#------------------------------------------------------------------------------
#$Date: 2016-04-05 18:11:43 +0300 (Tue, 05 Apr 2016) $
#$Revision: 181587 $
#$URL: svn://www.crystallography.net/cod/cif/1/54/23/1542312.cif $
#------------------------------------------------------------------------------
#
# This file is available in the Crystallography Open Database (COD),
# http://www.crystallography.net/
#
# All data on this site have been placed in the public domain by the
# contributors.
#
data_1542312
loop_
_publ_author_name
'Black, Samuel P.'
'Wood, Daniel M.'
'Schwarz, Felix B.'
'Ronson, Tanya K.'
'Holstein, Julian J.'
'Stefankiewicz, Artur R.'
'Schalley, Christoph A.'
'Sanders, Jeremy. K. M.'
'Nitschke, Jonathan R.'
_publ_section_title
;
 Catenation and encapsulation induce distinct reconstitutions within a
 dynamic library of mixed-ligand Zn4L6cages
;
_journal_issue                   4
_journal_name_full               'Chem. Sci.'
_journal_page_first              2614
_journal_paper_doi               10.1039/C5SC04906G
_journal_volume                  7
_journal_year                    2016
_chemical_formula_moiety
'C228 H132 N36 O24 Zn4, C2 F6 N O4 S2, 3(F6 P)'
_chemical_formula_sum            'C230 H132 F24 N37 O28 P3 S2 Zn4'
_chemical_formula_weight         4736.23
_chemical_name_systematic
;
 ?
;
_space_group_crystal_system      monoclinic
_space_group_IT_number           14
_space_group_name_Hall           '-P 2ybc'
_space_group_name_H-M_alt        'P 1 21/c 1'
_symmetry_space_group_name_Hall  '-P 2ybc'
_symmetry_space_group_name_H-M   'P 1 21/c 1'
_atom_sites_solution_hydrogens   geom
_audit_creation_method           SHELXL-2013
_audit_update_record
;
2015-04-27 deposited with the CCDC.
2016-01-22 downloaded from the CCDC.
;
_cell_angle_alpha                90
_cell_angle_beta                 91.52(3)
_cell_angle_gamma                90
_cell_formula_units_Z            4
_cell_length_a                   29.307(5)
_cell_length_b                   45.110(9)
_cell_length_c                   26.896(6)
_cell_measurement_temperature    120(2)
_cell_volume                     35545(12)
_computing_cell_refinement
;
CrysAlisPro, Agilent Technologies,
Version 1.171.36.21 (release 14-08-2012 CrysAlis171 .NET)
(compiled Sep 14 2012,17:21:16)
;
_computing_data_collection
;
CrysAlisPro, Agilent Technologies,
Version 1.171.36.21 (release 14-08-2012 CrysAlis171 .NET)
(compiled Sep 14 2012,17:21:16)
;
_computing_data_reduction
;
CrysAlisPro, Agilent Technologies,
Version 1.171.36.21 (release 14-08-2012 CrysAlis171 .NET)
(compiled Sep 14 2012,17:21:16)
;
_computing_structure_refinement  'SHELXL-2013 (Sheldrick, 2013)'
_computing_structure_solution    'SHELXL-2013 (Sheldrick, 2013)'
_diffrn_ambient_temperature      120(2)
_diffrn_detector_area_resol_mean 16.1183
_diffrn_measured_fraction_theta_full 0.981
_diffrn_measured_fraction_theta_max 0.993
_diffrn_measurement_device_type  'Xcalibur, Eos, Gemini ultra'
_diffrn_orient_matrix_UB_11      -0.0278280000
_diffrn_orient_matrix_UB_12      -0.0285796000
_diffrn_orient_matrix_UB_13      -0.0141903000
_diffrn_orient_matrix_UB_21      0.0021992000
_diffrn_orient_matrix_UB_22      0.0091909000
_diffrn_orient_matrix_UB_23      -0.0505021000
_diffrn_orient_matrix_UB_31      0.0500114000
_diffrn_orient_matrix_UB_32      -0.0162742000
_diffrn_orient_matrix_UB_33      -0.0040277000
_diffrn_radiation_monochromator  mirror
_diffrn_radiation_source         'Enhance Ultra (Cu) X-ray Source'
_diffrn_radiation_type           CuK\a
_diffrn_radiation_wavelength     1.54184
_diffrn_reflns_av_R_equivalents  0.0526
_diffrn_reflns_av_unetI/netI     0.0727
_diffrn_reflns_Laue_measured_fraction_full 0.981
_diffrn_reflns_Laue_measured_fraction_max 0.993
_diffrn_reflns_limit_h_max       14
_diffrn_reflns_limit_h_min       -23
_diffrn_reflns_limit_k_max       36
_diffrn_reflns_limit_k_min       -36
_diffrn_reflns_limit_l_max       21
_diffrn_reflns_limit_l_min       -21
_diffrn_reflns_number            37642
_diffrn_reflns_point_group_measured_fraction_full 0.981
_diffrn_reflns_point_group_measured_fraction_max 0.993
_diffrn_reflns_theta_full        39.000
_diffrn_reflns_theta_max         38.811
_diffrn_reflns_theta_min         5.802
_exptl_absorpt_coefficient_mu    1.310
_exptl_absorpt_correction_T_max  1.287
_exptl_absorpt_correction_T_min  0.692
_exptl_absorpt_correction_type   gaussian
_exptl_absorpt_process_details
;
CrysAlisPro, Agilent Technologies,
Version 1.171.36.21 (release 14-08-2012 CrysAlis171 .NET)
(compiled Sep 14 2012,17:21:16)
Numerical absorption correction based on gaussian integration over
                        a multifaceted crystal model
;
_exptl_crystal_colour            yellow
_exptl_crystal_density_diffrn    0.885
_exptl_crystal_description       block
_exptl_crystal_F_000             9632
_exptl_crystal_recrystallization_method
'Re-crystallisation from solvent: diethyl ether, acetonitrile'
_exptl_crystal_size_max          0.443
_exptl_crystal_size_mid          0.327
_exptl_crystal_size_min          0.177
_refine_diff_density_max         0.923
_refine_diff_density_min         -0.664
_refine_diff_density_rms         0.117
_refine_ls_extinction_method     none
_refine_ls_goodness_of_fit_ref   2.255
_refine_ls_hydrogen_treatment    constr
_refine_ls_matrix_type           full
_refine_ls_number_parameters     2953
_refine_ls_number_reflns         19847
_refine_ls_number_restraints     8854
_refine_ls_restrained_S_all      1.884
_refine_ls_R_factor_all          0.2138
_refine_ls_R_factor_gt           0.1969
_refine_ls_shift/su_max          0.000
_refine_ls_shift/su_mean         0.000
_refine_ls_structure_factor_coef Fsqd
_refine_ls_weighting_details
'w=1/[\s^2^(Fo^2^)+(0.2000P)^2^] where P=(Fo^2^+2Fc^2^)/3'
_refine_ls_weighting_scheme      calc
_refine_ls_wR_factor_gt          0.5204
_refine_ls_wR_factor_ref         0.5324
_reflns_Friedel_coverage         0.000
_reflns_number_gt                15247
_reflns_number_total             19847
_reflns_threshold_expression     'I > 2\s(I)'
_cod_data_source_file            c5sc04906g2.cif
_cod_data_source_block           samzn_sq
_cod_depositor_comments
'Adding full bibliography for 1542311--1542313.cif.'
_cod_database_code               1542312
_shelx_space_group_comment
;
The symmetry employed for this shelxl refinement is uniquely defined
by the following loop, which should always be used as a source of
symmetry information in preference to the above space-group names.
They are only intended as comments.
;
_shelx_estimated_absorpt_t_min   0.651
_shelx_estimated_absorpt_t_max   0.834
_shelxl_version_number           2013-4
_shelx_res_file
;
TITL sol in P2(1)/c
CELL  1.54184  29.3073  45.1096  26.8963   90.000   91.520   90.000
ZERR  4.00   0.0054   0.0090   0.0059   0.000   0.030   0.000
LATT  1
SYMM -X, 1/2+Y, 1/2-Z
SFAC C H N ZN P F O S
UNIT 920 528 148 16 12 96 112 8
L.S. 30 0 1092
LIST 4
BOND $H
CONF
HTAB
WPDB -2
ACTA 78.000
SIZE 0.4428 0.3274 0.1769
TEMP -173
+N1P.dfx
+PF6.dfx
+TFI.dfx
REM 10 and 11 are diagonal ligands
NCSY 1 N1_10 > C34G_10
REM 12 to 15 other ligands
NCSY 1 N1_12 > C34G_12
NCSY 2 N1_12 > C34G_12
NCSY 3 N1_12 > C34G_12
FMAP 2
PLAN 20
RIGU_* $C $N $O $F $P $S
ISOR_* $C $N $O $F $P $S
SIMU_* 0.02 0.04 $C $N $O $F $P $S
ABIN
WGHT    0.200000
FVAR       0.10332
ZN1   4    0.564491    0.270062    0.771650    11.00000    0.12411    0.08922 =
         0.08376   -0.00572    0.00423   -0.01004
ZN2   4   -0.034430    0.302875    0.327417    11.00000    0.09924    0.11753 =
         0.09713    0.00272    0.00850    0.00739
ZN3   4    0.457346   -0.013659    0.172103    11.00000    0.19243    0.07791 =
         0.05048    0.00421    0.02192    0.03847
ZN4   4    0.053608   -0.049705    0.804189    11.00000    0.19843    0.11415 =
         0.06919    0.00973    0.01409   -0.03992
RESI 10 N1P
REM diagonal
N1    3    0.128774   -0.045535    0.795483    11.00000    0.17241    0.09729 =
         0.06120    0.01717    0.01574   -0.00305
C2    1    0.157835   -0.044888    0.754103    11.00000    0.18149    0.10508 =
         0.06929    0.01068    0.02130   -0.01400
C3    1    0.162325   -0.070967    0.726954    11.00000    0.18041    0.11089 =
         0.08189    0.00329    0.02779   -0.01712
AFIX  43
H3    2    0.150357   -0.089095    0.738984    11.00000   -1.20000
AFIX   0
C4    1    0.184417   -0.070071    0.682330    11.00000    0.18483    0.11410 =
         0.08375   -0.00164    0.02779   -0.02703
AFIX  43
H4    2    0.187278   -0.087541    0.662937    11.00000   -1.20000
AFIX   0
C5    1    0.202558   -0.043272    0.665864    11.00000    0.18040    0.11466 =
         0.07739   -0.00018    0.02833   -0.02438
C6    1    0.200984   -0.017908    0.694908    11.00000    0.19114    0.11223 =
         0.06921    0.00551    0.02805   -0.02417
AFIX  43
H6    2    0.215453   -0.000232    0.684355    11.00000   -1.20000
AFIX   0
C7    1    0.178161   -0.018468    0.739488    11.00000    0.20111    0.11024 =
         0.07493    0.00835    0.03385   -0.01863
AFIX  43
H7    2    0.176438   -0.001210    0.759593    11.00000   -1.20000
AFIX   0
N8    3    0.220495   -0.042239    0.616315    11.00000    0.17336    0.11785 =
         0.07629   -0.00483    0.02368   -0.02882
C9    1    0.189582   -0.045771    0.575906    11.00000    0.17164    0.12552 =
         0.08059   -0.00952    0.02298   -0.02376
C10   1    0.207931   -0.043796    0.525428    11.00000    0.16734    0.11659 =
         0.07605   -0.00894    0.02107   -0.01750
C11   1    0.180003   -0.047489    0.483921    11.00000    0.16897    0.13978 =
         0.08119   -0.01433    0.02197   -0.01300
AFIX  43
H11   2    0.148648   -0.052152    0.487479    11.00000   -1.20000
AFIX   0
C12   1    0.197763   -0.044385    0.436825    11.00000    0.17492    0.15369 =
         0.08110   -0.01542    0.02224   -0.01627
AFIX  43
H12   2    0.178236   -0.046460    0.408278    11.00000   -1.20000
AFIX   0
C13   1    0.243539   -0.038309    0.431071    11.00000    0.17013    0.14054 =
         0.06952   -0.00814    0.01803   -0.00982
C14   1    0.261997   -0.035510    0.380694    11.00000    0.17297    0.14436 =
         0.06999   -0.00097    0.01847   -0.00006
N15   3    0.307836   -0.027426    0.377044    11.00000    0.16963    0.11885 =
         0.06541    0.00370    0.01748    0.01049
C16   1    0.337625   -0.022059    0.417400    11.00000    0.16623    0.10402 =
         0.06436    0.00355    0.02099    0.01110
C17   1    0.319078   -0.026377    0.467501    11.00000    0.16606    0.10284 =
         0.06339   -0.00251    0.02046   -0.00222
C18   1    0.347052   -0.023097    0.508866    11.00000    0.16681    0.10490 =
         0.06639   -0.00299    0.01874   -0.00348
AFIX  43
H18   2    0.378177   -0.017889    0.505095    11.00000   -1.20000
AFIX   0
C19   1    0.330341   -0.027311    0.556170    11.00000    0.16716    0.09788 =
         0.06463   -0.00326    0.01738   -0.00912
AFIX  43
H19   2    0.350381   -0.025440    0.584340    11.00000   -1.20000
AFIX   0
C20   1    0.285243   -0.034148    0.562803    11.00000    0.16749    0.10204 =
         0.06777   -0.00754    0.01916   -0.01467
C21   1    0.267802   -0.036944    0.613581    11.00000    0.17139    0.11532 =
         0.07082   -0.01004    0.01894   -0.02407
C22   1    0.255237   -0.037608    0.520859    11.00000    0.16599    0.09815 =
         0.06886   -0.01195    0.02048   -0.01153
C23   1    0.272856   -0.034226    0.473060    11.00000    0.16486    0.10740 =
         0.06789   -0.00811    0.02065   -0.00200
O24   7    0.149317   -0.050331    0.582469    11.00000    0.17204    0.20238 =
         0.08871    0.00933    0.02155   -0.03677
O25   7    0.240132   -0.040641    0.342444    11.00000    0.19836    0.26585 =
         0.07027   -0.00350    0.01410   -0.03343
O26   7    0.376179   -0.013168    0.409920    11.00000    0.16705    0.12852 =
         0.06818    0.00995    0.02133    0.00808
O27   7    0.290415   -0.034644    0.651812    11.00000    0.16981    0.10987 =
         0.06794   -0.00301    0.01524   -0.02974
C28   1    0.325704   -0.023856    0.328237    11.00000    0.16923    0.11697 =
         0.06216    0.00857    0.01398    0.01811
C29   1    0.348008   -0.047463    0.306733    11.00000    0.17781    0.11885 =
         0.05768    0.01387    0.00935    0.02332
AFIX  43
H29   2    0.350500   -0.065982    0.323405    11.00000   -1.20000
AFIX   0
C30   1    0.366570   -0.043528    0.260510    11.00000    0.18717    0.11968 =
         0.05775    0.01314    0.01428    0.02954
AFIX  43
H30   2    0.382426   -0.059285    0.245128    11.00000   -1.20000
AFIX   0
C31   1    0.361818   -0.016214    0.236640    11.00000    0.16985    0.11490 =
         0.06337    0.01228    0.01281    0.02920
C32   1    0.339387    0.007545    0.258410    11.00000    0.18590    0.11931 =
         0.07239    0.01831    0.03056    0.03527
AFIX  43
H32   2    0.336389    0.026005    0.241639    11.00000   -1.20000
AFIX   0
C33   1    0.321607    0.003533    0.305077    11.00000    0.18659    0.12277 =
         0.07157    0.01194    0.02997    0.03106
AFIX  43
H33   2    0.306688    0.019430    0.321157    11.00000   -1.20000
AFIX   0
N34   3    0.381777   -0.012579    0.189671    11.00000    0.16137    0.10774 =
         0.05572    0.01839    0.00592    0.04392
C1A   1    0.145729   -0.042516    0.838283    11.00000    0.20999    0.15352 =
         0.06718    0.01204    0.00590    0.00710
AFIX  43
H1A   2    0.177792   -0.039973    0.842312    11.00000   -1.20000
AFIX   0
C34A  1    0.357271   -0.006928    0.150866    11.00000    0.18214    0.16778 =
         0.06543    0.02658    0.00235    0.04852
AFIX  43
H34A  2    0.325188   -0.004611    0.153289    11.00000   -1.20000
AFIX   0
C1B   1    0.117365   -0.042792    0.882672    11.00000    0.23010    0.20015 =
         0.07336    0.01289    0.01645    0.01216
C34B  1    0.379018   -0.004009    0.102195    11.00000    0.20007    0.18914 =
         0.06492    0.03157    0.00984    0.04125
N1C   3    0.071885   -0.045525    0.876818    11.00000    0.23143    0.20906 =
         0.06868    0.01448    0.01734    0.00842
N34C  3    0.424444   -0.008468    0.100433    11.00000    0.20511    0.17994 =
         0.06670    0.02771    0.01331    0.04165
C1D   1    0.046885   -0.045252    0.917839    11.00000    0.24432    0.25941 =
         0.07951    0.00684    0.02323    0.00334
AFIX  43
H1D   2    0.014610   -0.046529    0.914254    11.00000   -1.20000
AFIX   0
C34D  1    0.445413   -0.005287    0.056712    11.00000    0.20516    0.20692 =
         0.06706    0.03243    0.01429    0.04069
AFIX  43
H34D  2    0.477289   -0.008887    0.055284    11.00000   -1.20000
AFIX   0
C1E   1    0.066375   -0.043170    0.965521    11.00000    0.25325    0.29570 =
         0.08368    0.00310    0.01424    0.00016
AFIX  43
H1E   2    0.048034   -0.043390    0.994116    11.00000   -1.20000
AFIX   0
C34E  1    0.421470    0.003135    0.013701    11.00000    0.21173    0.22827 =
         0.07752    0.03683    0.00943    0.04273
AFIX  43
H34E  2    0.436837    0.005839   -0.016625    11.00000   -1.20000
AFIX   0
C1F   1    0.112857   -0.040796    0.969717    11.00000    0.25843    0.29746 =
         0.08614    0.00259    0.01635    0.00386
AFIX  43
H1F   2    0.126885   -0.039504    1.001893    11.00000   -1.20000
AFIX   0
C34F  1    0.375186    0.007474    0.015861    11.00000    0.21325    0.23298 =
         0.07549    0.03898    0.00780    0.04432
AFIX  43
H34F  2    0.358249    0.013228   -0.013161    11.00000   -1.20000
AFIX   0
C1G   1    0.139846   -0.040227    0.928677    11.00000    0.24963    0.26208 =
         0.07867    0.00439    0.01140    0.00520
AFIX  43
H1G   2    0.172070   -0.038194    0.931582    11.00000   -1.20000
AFIX   0
C34G  1    0.353265    0.003492    0.060089    11.00000    0.20806    0.21487 =
         0.07208    0.03688    0.00656    0.04232
AFIX  43
H34G  2    0.321124    0.005845    0.061677    11.00000   -1.20000
AFIX   0
RESI 11 N1P
REM diagonal
N1    3    0.549242    0.270013    0.691489    11.00000    0.11265    0.08492 =
         0.08233   -0.00856    0.00279   -0.00096
C2    1    0.506233    0.269169    0.665533    11.00000    0.11395    0.08050 =
         0.08202   -0.01321   -0.00062    0.00202
C3    1    0.492620    0.244285    0.638722    11.00000    0.12279    0.08364 =
         0.09628   -0.01636   -0.01473    0.00613
AFIX  43
H3    2    0.512492    0.227680    0.637453    11.00000   -1.20000
AFIX   0
C4    1    0.450718    0.243095    0.613763    11.00000    0.11942    0.07885 =
         0.09759   -0.01640   -0.01362    0.00718
AFIX  43
H4    2    0.441901    0.226031    0.595172    11.00000   -1.20000
AFIX   0
C5    1    0.422007    0.267344    0.616543    11.00000    0.11825    0.07802 =
         0.08648   -0.01253   -0.00875    0.00486
C6    1    0.434659    0.292369    0.644397    11.00000    0.11764    0.07954 =
         0.08188   -0.01317   -0.00347    0.00683
AFIX  43
H6    2    0.414174    0.308575    0.647112    11.00000   -1.20000
AFIX   0
C7    1    0.477274    0.293374    0.668014    11.00000    0.11713    0.07932 =
         0.07414   -0.00752    0.00055   -0.00060
AFIX  43
H7    2    0.486588    0.310614    0.685849    11.00000   -1.20000
AFIX   0
N8    3    0.377881    0.265799    0.591642    11.00000    0.11734    0.07544 =
         0.06818    0.00023   -0.00442    0.00444
C9    1    0.373273    0.276445    0.542757    11.00000    0.11702    0.09473 =
         0.06896    0.00421   -0.00424   -0.00260
C10   1    0.325810    0.278318    0.522851    11.00000    0.11265    0.09003 =
         0.06059   -0.00157   -0.00054   -0.00067
C11   1    0.317727    0.289487    0.475601    11.00000    0.10625    0.11542 =
         0.06216    0.00567    0.00114   -0.00160
AFIX  43
H11   2    0.342399    0.294849    0.455232    11.00000   -1.20000
AFIX   0
C12   1    0.273215    0.292715    0.458522    11.00000    0.10771    0.11850 =
         0.06050    0.01271   -0.00087   -0.00428
AFIX  43
H12   2    0.267673    0.301125    0.426547    11.00000   -1.20000
AFIX   0
C13   1    0.236564    0.284221    0.486029    11.00000    0.10640    0.09043 =
         0.05953    0.00196    0.00013   -0.00364
C14   1    0.189461    0.287715    0.466301    11.00000    0.10523    0.09642 =
         0.07149    0.01133   -0.00186   -0.00604
N15   3    0.154456    0.278222    0.496709    11.00000    0.10194    0.09538 =
         0.07373    0.01131   -0.00082   -0.00362
C16   1    0.159595    0.266508    0.544568    11.00000    0.11064    0.08346 =
         0.07248    0.00761    0.00116   -0.00558
C17   1    0.206976    0.263008    0.563626    11.00000    0.11201    0.08258 =
         0.06758    0.00204    0.00110   -0.00614
C18   1    0.215776    0.250831    0.609624    11.00000    0.11713    0.09106 =
         0.06878    0.00411    0.00260   -0.00004
AFIX  43
H18   2    0.190978    0.244534    0.629067    11.00000   -1.20000
AFIX   0
C19   1    0.259933    0.247496    0.628400    11.00000    0.11873    0.08159 =
         0.07047   -0.00232    0.00290    0.00531
AFIX  43
H19   2    0.265505    0.238745    0.660110    11.00000   -1.20000
AFIX   0
C20   1    0.295575    0.257088    0.600289    11.00000    0.11712    0.07865 =
         0.06211   -0.00670   -0.00103    0.00063
C21   1    0.342611    0.255233    0.621048    11.00000    0.12068    0.08793 =
         0.06439    0.00051   -0.00457    0.00003
C22   1    0.289016    0.269147    0.552177    11.00000    0.11131    0.07064 =
         0.05920   -0.01018   -0.00073   -0.00131
C23   1    0.243577    0.272064    0.533888    11.00000    0.11209    0.08478 =
         0.06213    0.00083   -0.00035   -0.00528
O24   7    0.406349    0.283598    0.519862    11.00000    0.12100    0.18371 =
         0.08398    0.03453   -0.00407   -0.01348
O25   7    0.180845    0.298681    0.425065    11.00000    0.10963    0.12789 =
         0.07489    0.02135   -0.00780   -0.00408
O26   7    0.126589    0.261135    0.568410    11.00000    0.11596    0.11037 =
         0.07047    0.01259   -0.00243   -0.01173
O27   7    0.351967    0.244542    0.661793    11.00000    0.11981    0.11846 =
         0.06829    0.01771   -0.00632   -0.01434
C28   1    0.108475    0.281492    0.476620    11.00000    0.10473    0.10613 =
         0.08854    0.01594   -0.00485   -0.00736
C29   1    0.091317    0.309728    0.469041    11.00000    0.10078    0.10291 =
         0.10121    0.01427   -0.00710   -0.00785
AFIX  43
H29   2    0.108676    0.326680    0.478583    11.00000   -1.20000
AFIX   0
C30   1    0.048274    0.312720    0.447233    11.00000    0.10023    0.10417 =
         0.10073    0.01987   -0.00347   -0.01058
AFIX  43
H30   2    0.036523    0.332090    0.441577    11.00000   -1.20000
AFIX   0
C31   1    0.021664    0.288614    0.433335    11.00000    0.09209    0.10800 =
         0.09229    0.01324    0.00818   -0.01287
C32   1    0.039556    0.260700    0.442950    11.00000    0.10177    0.10863 =
         0.09940    0.00874   -0.00055   -0.01251
AFIX  43
H32   2    0.021717    0.243744    0.434602    11.00000   -1.20000
AFIX   0
C33   1    0.082600    0.256748    0.464334    11.00000    0.10589    0.11039 =
         0.09886    0.00437   -0.00375   -0.00853
AFIX  43
H33   2    0.094194    0.237388    0.470477    11.00000   -1.20000
AFIX   0
N34   3   -0.020907    0.292872    0.408485    11.00000    0.08920    0.12255 =
         0.09356    0.00230    0.00972   -0.00812
C1A   1    0.586177    0.272502    0.667939    11.00000    0.11302    0.09083 =
         0.10323   -0.00009    0.00879   -0.00002
AFIX  43
H1A   2    0.584309    0.274030    0.632716    11.00000   -1.20000
AFIX   0
C34A  1   -0.058421    0.291703    0.429240    11.00000    0.09192    0.14511 =
         0.10946   -0.00469    0.01435   -0.01082
AFIX  43
H34A  2   -0.058388    0.288367    0.464115    11.00000   -1.20000
AFIX   0
C1B   1    0.631514    0.273130    0.692526    11.00000    0.11051    0.10575 =
         0.11493    0.00061    0.01015   -0.00244
C34B  1   -0.102655    0.295185    0.402905    11.00000    0.08859    0.17296 =
         0.11475   -0.01268    0.01415   -0.00888
N1C   3    0.632679    0.271847    0.742696    11.00000    0.08980    0.08053 =
         0.10673    0.00280    0.00570   -0.00625
N34C  3   -0.103076    0.299926    0.353520    11.00000    0.06701    0.15596 =
         0.10679   -0.01660    0.01127   -0.00936
C1D   1    0.673274    0.274480    0.765983    11.00000    0.10193    0.14865 =
         0.12719   -0.00299    0.00506   -0.00992
AFIX  43
H1D   2    0.675264    0.274159    0.801291    11.00000   -1.20000
AFIX   0
C34D  1   -0.141565    0.302602    0.326702    11.00000    0.08068    0.21266 =
         0.11790   -0.01131    0.01088   -0.00923
AFIX  43
H34D  2   -0.140670    0.305927    0.291864    11.00000   -1.20000
AFIX   0
C1E   1    0.712404    0.277668    0.738944    11.00000    0.10539    0.18633 =
         0.14161    0.00078    0.01321   -0.01302
AFIX  43
H1E   2    0.740931    0.279579    0.756254    11.00000   -1.20000
AFIX   0
C34E  1   -0.183138    0.300495    0.350077    11.00000    0.07849    0.23465 =
         0.12609   -0.00677    0.01385   -0.01243
AFIX  43
H34E  2   -0.211030    0.301878    0.331407    11.00000   -1.20000
AFIX   0
C1F   1    0.711420    0.278170    0.687571    11.00000    0.11307    0.18707 =
         0.14153    0.00140    0.01035   -0.00766
AFIX  43
H1F   2    0.738843    0.279828    0.669720    11.00000   -1.20000
AFIX   0
C34F  1   -0.183189    0.296373    0.400687    11.00000    0.08750    0.24166 =
         0.12661   -0.00353    0.01718   -0.00927
AFIX  43
H34F  2   -0.211499    0.295438    0.417021    11.00000   -1.20000
AFIX   0
C1G   1    0.669634    0.276204    0.662726    11.00000    0.11526    0.15776 =
         0.13124   -0.00089    0.01550   -0.00999
AFIX  43
H1G   2    0.666957    0.276900    0.627468    11.00000   -1.20000
AFIX   0
C34G  1   -0.143149    0.293562    0.428318    11.00000    0.09066    0.22503 =
         0.12289   -0.00770    0.01772   -0.01010
AFIX  43
H34G  2   -0.143276    0.290636    0.463293    11.00000   -1.20000
AFIX   0
RESI 12 N1P
N1    3    0.041085   -0.002827    0.799100    11.00000    0.15674    0.11130 =
         0.10870   -0.00938    0.02179   -0.04432
C2    1    0.074343    0.019476    0.791799    11.00000    0.15401    0.11461 =
         0.11089   -0.00684    0.01739   -0.04426
C3    1    0.100954    0.028393    0.832662    11.00000    0.16291    0.11779 =
         0.10832   -0.00306    0.01748   -0.04782
AFIX  43
H3    2    0.095850    0.019865    0.864327    11.00000   -1.20000
AFIX   0
C4    1    0.134790    0.049531    0.827834    11.00000    0.15402    0.11520 =
         0.10518   -0.00479    0.01464   -0.04415
AFIX  43
H4    2    0.153320    0.055170    0.855769    11.00000   -1.20000
AFIX   0
C5    1    0.141304    0.062373    0.781724    11.00000    0.13594    0.09691 =
         0.10229   -0.00938    0.01942   -0.02377
C6    1    0.114096    0.054145    0.741329    11.00000    0.14047    0.10563 =
         0.10680   -0.00615    0.01754   -0.02781
AFIX  43
H6    2    0.118272    0.063449    0.710090    11.00000   -1.20000
AFIX   0
C7    1    0.080844    0.032567    0.745614    11.00000    0.14054    0.10610 =
         0.10941   -0.00919    0.02091   -0.02930
AFIX  43
H7    2    0.062719    0.026769    0.717463    11.00000   -1.20000
AFIX   0
N8    3    0.177152    0.084097    0.777929    11.00000    0.12767    0.09046 =
         0.09510   -0.01387    0.01642   -0.01146
C9    1    0.167561    0.112220    0.797774    11.00000    0.12364    0.09170 =
         0.10227   -0.01889    0.01727   -0.01141
C10   1    0.205862    0.133240    0.801194    11.00000    0.11534    0.08660 =
         0.07481   -0.01514    0.00957   -0.00550
C11   1    0.199467    0.160949    0.821179    11.00000    0.11384    0.08846 =
         0.07843   -0.01638    0.00648   -0.00395
AFIX  43
H11   2    0.169805    0.166649    0.830917    11.00000   -1.20000
AFIX   0
C12   1    0.235242    0.180688    0.827410    11.00000    0.11346    0.08420 =
         0.07249   -0.00972    0.00451   -0.00212
AFIX  43
H12   2    0.230230    0.199547    0.842005    11.00000   -1.20000
AFIX   0
C13   1    0.278122    0.172920    0.812399    11.00000    0.10948    0.07588 =
         0.04304   -0.00053   -0.00431    0.00103
C14   1    0.316165    0.193968    0.818052    11.00000    0.11172    0.07463 =
         0.04024    0.00156   -0.00473    0.00009
N15   3    0.358695    0.184749    0.801025    11.00000    0.11308    0.07535 =
         0.05458   -0.00317   -0.00220   -0.00152
C16   1    0.368614    0.156996    0.779373    11.00000    0.12338    0.07241 =
         0.05269    0.00111    0.00290   -0.00136
C17   1    0.329576    0.136562    0.773618    11.00000    0.12174    0.07831 =
         0.04805    0.00067    0.00551   -0.00316
C18   1    0.336063    0.109292    0.752623    11.00000    0.12712    0.08015 =
         0.07854   -0.00961    0.01530   -0.00867
AFIX  43
H18   2    0.365342    0.103952    0.741212    11.00000   -1.20000
AFIX   0
C19   1    0.300004    0.089373    0.747922    11.00000    0.12751    0.08419 =
         0.09435   -0.01820    0.02156   -0.01085
AFIX  43
H19   2    0.305312    0.070450    0.733690    11.00000   -1.20000
AFIX   0
C20   1    0.256914    0.096244    0.763250    11.00000    0.12717    0.08699 =
         0.08238   -0.01827    0.01551   -0.00834
C21   1    0.218947    0.074803    0.759295    11.00000    0.12953    0.09197 =
         0.08573   -0.01582    0.01637   -0.01146
C22   1    0.249288    0.124635    0.784423    11.00000    0.12114    0.08596 =
         0.06737   -0.01263    0.00823   -0.00432
C23   1    0.286118    0.144997    0.790029    11.00000    0.11760    0.07933 =
         0.05131   -0.00504    0.00185   -0.00192
O24   7    0.128658    0.118727    0.808139    11.00000    0.12393    0.10102 =
         0.14612   -0.02999    0.02862   -0.01627
O25   7    0.313024    0.218492    0.836040    11.00000    0.12380    0.07641 =
         0.07691   -0.00950    0.00385   -0.00440
O26   7    0.407469    0.151395    0.766719    11.00000    0.12949    0.06683 =
         0.09754    0.00890    0.01925    0.00467
O27   7    0.222432    0.050124    0.741063    11.00000    0.13199    0.09614 =
         0.10997   -0.03263    0.01620   -0.01659
C28   1    0.394388    0.206676    0.800419    11.00000    0.11664    0.07871 =
         0.04973   -0.01143    0.00380   -0.01102
C29   1    0.424229    0.211169    0.841046    11.00000    0.12511    0.08865 =
         0.05333   -0.00805   -0.00073   -0.02367
AFIX  43
H29   2    0.422487    0.199132    0.869916    11.00000   -1.20000
AFIX   0
C30   1    0.456442    0.233557    0.838363    11.00000    0.13058    0.08620 =
         0.05073   -0.00861   -0.00407   -0.02420
AFIX  43
H30   2    0.476903    0.236990    0.865745    11.00000   -1.20000
AFIX   0
C31   1    0.459083    0.250941    0.796218    11.00000    0.11674    0.08088 =
         0.05772   -0.00966   -0.00298   -0.01916
C32   1    0.429594    0.246149    0.755919    11.00000    0.12670    0.09381 =
         0.05792   -0.00375   -0.00790   -0.02840
AFIX  43
H32   2    0.431801    0.258089    0.726986    11.00000   -1.20000
AFIX   0
C33   1    0.396983    0.224078    0.757623    11.00000    0.12150    0.08779 =
         0.05234   -0.00932   -0.00205   -0.02242
AFIX  43
H33   2    0.376628    0.220786    0.730100    11.00000   -1.20000
AFIX   0
N34   3    0.491633    0.273746    0.793294    11.00000    0.09982    0.07197 =
         0.04375   -0.00125   -0.02358   -0.01438
C1A   1   -0.001279    0.004163    0.798580    11.00000    0.15722    0.13082 =
         0.13587   -0.01208    0.02081   -0.04153
AFIX  43
H1A   2   -0.010691    0.023866    0.791202    11.00000   -1.20000
AFIX   0
C34A  1    0.480139    0.300811    0.801907    11.00000    0.11138    0.07671 =
         0.04557   -0.00281   -0.02097   -0.01198
AFIX  43
H34A  2    0.449895    0.305430    0.811145    11.00000   -1.20000
AFIX   0
C1B   1   -0.035033   -0.018794    0.809581    11.00000    0.15841    0.14473 =
         0.14607   -0.00669    0.01956   -0.04549
C34B  1    0.514316    0.324480    0.797290    11.00000    0.12610    0.08123 =
         0.06898   -0.00690   -0.01081   -0.02315
N1C   3   -0.017151   -0.045701    0.818963    11.00000    0.15302    0.13616 =
         0.10568   -0.01843    0.00635   -0.04947
N34C  3    0.555608    0.315441    0.782526    11.00000    0.12675    0.08742 =
         0.09102   -0.00372   -0.00486   -0.02171
C1D   1   -0.046979   -0.066802    0.830194    11.00000    0.16337    0.15367 =
         0.16419   -0.00033    0.01597   -0.04909
AFIX  43
H1D   2   -0.035265   -0.085966    0.837719    11.00000   -1.20000
AFIX   0
C34D  1    0.587345    0.336682    0.775822    11.00000    0.13620    0.09531 =
         0.11519   -0.00040   -0.00144   -0.02662
AFIX  43
H34D  2    0.616607    0.330923    0.764904    11.00000   -1.20000
AFIX   0
C1E   1   -0.093783   -0.062874    0.831713    11.00000    0.16326    0.16707 =
         0.20150    0.01325    0.01647   -0.04674
AFIX  43
H1E   2   -0.113441   -0.078944    0.839062    11.00000   -1.20000
AFIX   0
C34E  1    0.579192    0.366243    0.784088    11.00000    0.13697    0.08916 =
         0.10714    0.00394    0.00781   -0.03281
AFIX  43
H34E  2    0.602512    0.380518    0.779364    11.00000   -1.20000
AFIX   0
C1F   1   -0.111135   -0.034692    0.822154    11.00000    0.16874    0.17206 =
         0.20825    0.01647    0.02262   -0.04607
AFIX  43
H1F   2   -0.143017   -0.031070    0.823397    11.00000   -1.20000
AFIX   0
C34F  1    0.537263    0.374762    0.799127    11.00000    0.14053    0.08517 =
         0.09494   -0.00002    0.00062   -0.03065
AFIX  43
H34F  2    0.531288    0.395168    0.804771    11.00000   -1.20000
AFIX   0
C1G   1   -0.081508   -0.012060    0.810845    11.00000    0.16278    0.15865 =
         0.19341    0.00647    0.02313   -0.04220
AFIX  43
H1G   2   -0.092333    0.007424    0.804152    11.00000   -1.20000
AFIX   0
C34G  1    0.503157    0.354097    0.806326    11.00000    0.13159    0.07510 =
         0.06322   -0.00400    0.00260   -0.02742
AFIX  43
H34G  2    0.473714    0.359740    0.816852    11.00000   -1.20000
AFIX   0
RESI 13 N1P
N1    3    0.042109   -0.057425    0.723360    11.00000    0.16221    0.10151 =
         0.06825    0.01609    0.00090   -0.03559
C2    1    0.036789   -0.035237    0.686590    11.00000    0.16052    0.10326 =
         0.07270    0.01383    0.01041   -0.02764
C3    1   -0.003692   -0.019536    0.681843    11.00000    0.15392    0.10772 =
         0.08277    0.02691    0.01865   -0.02407
AFIX  43
H3    2   -0.028913   -0.024418    0.701749    11.00000   -1.20000
AFIX   0
C4    1   -0.006884    0.003307    0.647781    11.00000    0.15260    0.10884 =
         0.09131    0.02850    0.01747   -0.02151
AFIX  43
H4    2   -0.034256    0.014508    0.644592    11.00000   -1.20000
AFIX   0
C5    1    0.029710    0.009917    0.618278    11.00000    0.15213    0.10332 =
         0.08316    0.01815    0.01124   -0.02711
C6    1    0.070122   -0.006341    0.621772    11.00000    0.15684    0.10709 =
         0.07078    0.01125    0.00641   -0.02351
AFIX  43
H6    2    0.094854   -0.001916    0.600883    11.00000   -1.20000
AFIX   0
C7    1    0.073504   -0.029022    0.656216    11.00000    0.15527    0.10131 =
         0.07133    0.01336    0.00904   -0.02731
AFIX  43
H7    2    0.100750   -0.040364    0.659225    11.00000   -1.20000
AFIX   0
N8    3    0.026605    0.033970    0.583287    11.00000    0.14149    0.10225 =
         0.08897    0.02362    0.00274   -0.03712
C9    1   -0.005792    0.032211    0.543910    11.00000    0.15693    0.10650 =
         0.10015    0.02693   -0.00778   -0.04474
C10   1   -0.010331    0.057629    0.509312    11.00000    0.14717    0.10981 =
         0.10436    0.03055   -0.00792   -0.04383
C11   1   -0.042217    0.057626    0.471131    11.00000    0.14520    0.10455 =
         0.10471    0.02732   -0.00928   -0.04284
AFIX  43
H11   2   -0.060861    0.040596    0.466197    11.00000   -1.20000
AFIX   0
C12   1   -0.048183    0.081606    0.439493    11.00000    0.12699    0.09935 =
         0.08693    0.02171    0.00322   -0.03469
AFIX  43
H12   2   -0.071122    0.081147    0.413878    11.00000   -1.20000
AFIX   0
C13   1   -0.020768    0.105972    0.445421    11.00000    0.12065    0.09658 =
         0.09305    0.02145    0.00376   -0.02659
C14   1   -0.026401    0.131691    0.411887    11.00000    0.13403    0.10033 =
         0.09277    0.02227    0.00429   -0.02691
N15   3    0.001596    0.156275    0.421075    11.00000    0.13191    0.09859 =
         0.09018    0.01834    0.00848   -0.02451
C16   1    0.035812    0.158413    0.458372    11.00000    0.13902    0.11261 =
         0.10140    0.02662    0.00091   -0.03556
C17   1    0.041855    0.132067    0.490682    11.00000    0.13765    0.11185 =
         0.11624    0.03101   -0.00858   -0.04058
C18   1    0.073113    0.132276    0.529666    11.00000    0.14175    0.11510 =
         0.12153    0.03356   -0.01366   -0.03967
AFIX  43
H18   2    0.092999    0.148770    0.533869    11.00000   -1.20000
AFIX   0
C19   1    0.076168    0.108924    0.562900    11.00000    0.14064    0.11337 =
         0.12476    0.03293   -0.00807   -0.04188
AFIX  43
H19   2    0.096808    0.110379    0.590629    11.00000   -1.20000
AFIX   0
C20   1    0.050271    0.083639    0.557107    11.00000    0.13531    0.10964 =
         0.11172    0.02942   -0.00927   -0.03871
C21   1    0.055233    0.058722    0.592497    11.00000    0.13964    0.10156 =
         0.10369    0.02082   -0.00070   -0.03359
C22   1    0.018313    0.082592    0.516790    11.00000    0.14100    0.11042 =
         0.10964    0.03010   -0.00788   -0.03953
C23   1    0.013309    0.107038    0.483620    11.00000    0.13073    0.10672 =
         0.10353    0.02754   -0.00278   -0.03639
O24   7   -0.029885    0.010410    0.540804    11.00000    0.18095    0.11305 =
         0.12262    0.03192   -0.01888   -0.06039
O25   7   -0.053569    0.132395    0.376416    11.00000    0.19266    0.10279 =
         0.12214    0.03539   -0.04041   -0.03564
O26   7    0.057127    0.181130    0.464754    11.00000    0.15504    0.12465 =
         0.09613    0.02152    0.00892   -0.04872
O27   7    0.081556    0.059078    0.629243    11.00000    0.16408    0.10112 =
         0.12407    0.02363   -0.02275   -0.02408
C28   1   -0.005957    0.181754    0.389827    11.00000    0.12705    0.10105 =
         0.08607    0.01442    0.01425   -0.01754
C29   1   -0.045967    0.197774    0.393691    11.00000    0.12515    0.10515 =
         0.08297    0.01075    0.01311   -0.01246
AFIX  43
H29   2   -0.068243    0.191676    0.416589    11.00000   -1.20000
AFIX   0
C30   1   -0.053746    0.222411    0.364713    11.00000    0.12289    0.09741 =
         0.08109    0.00590    0.00734   -0.01678
AFIX  43
H30   2   -0.081010    0.233551    0.367985    11.00000   -1.20000
AFIX   0
C31   1   -0.021553    0.230936    0.330627    11.00000    0.12882    0.09567 =
         0.07860    0.00459    0.00849   -0.01228
C32   1    0.018700    0.214826    0.327867    11.00000    0.12403    0.08439 =
         0.06949    0.00275    0.00763   -0.01992
AFIX  43
H32   2    0.041190    0.221106    0.305354    11.00000   -1.20000
AFIX   0
C33   1    0.027130    0.190092    0.356602    11.00000    0.12218    0.09243 =
         0.08123    0.01150    0.01393   -0.01517
AFIX  43
H33   2    0.054608    0.179117    0.353801    11.00000   -1.20000
AFIX   0
N34   3   -0.030815    0.256742    0.301233    11.00000    0.12964    0.10345 =
         0.08579    0.01189    0.00917   -0.00246
C1A   1    0.042972   -0.084533    0.712264    11.00000    0.16209    0.10295 =
         0.07982    0.01827   -0.00010   -0.03811
AFIX  43
H1A   2    0.040507   -0.090658    0.678506    11.00000   -1.20000
AFIX   0
C34A  1   -0.035194    0.255663    0.254775    11.00000    0.13072    0.11913 =
         0.08628    0.01201    0.01109   -0.00505
AFIX  43
H34A  2   -0.031445    0.237083    0.238765    11.00000   -1.20000
AFIX   0
C1B   1    0.047861   -0.106598    0.752401    11.00000    0.19207    0.11188 =
         0.08271    0.02396   -0.00832   -0.04346
C34B  1   -0.045847    0.281755    0.223902    11.00000    0.13675    0.13258 =
         0.10249    0.02289    0.00063   -0.00253
N1C   3    0.052329   -0.095644    0.798995    11.00000    0.22206    0.11933 =
         0.08340    0.02406   -0.00924   -0.04635
N34C  3   -0.052257    0.306760    0.249884    11.00000    0.12297    0.13036 =
         0.10291    0.02113    0.00103   -0.00244
C1D   1    0.061130   -0.115500    0.835344    11.00000    0.23743    0.12322 =
         0.09243    0.02776   -0.01180   -0.03969
AFIX  43
H1D   2    0.063760   -0.108592    0.868663    11.00000   -1.20000
AFIX   0
C34D  1   -0.066284    0.330843    0.224601    11.00000    0.15912    0.13854 =
         0.11144    0.02792   -0.00659    0.00185
AFIX  43
H34D  2   -0.071785    0.348632    0.242373    11.00000   -1.20000
AFIX   0
C1E   1    0.066521   -0.145432    0.826519    11.00000    0.23842    0.12145 =
         0.09687    0.02730   -0.00801   -0.04033
AFIX  43
H1E   2    0.073417   -0.158547    0.853312    11.00000   -1.20000
AFIX   0
C34E  1   -0.072982    0.330665    0.173773    11.00000    0.19045    0.15542 =
         0.11705    0.02771   -0.00979    0.00944
AFIX  43
H34E  2   -0.083773    0.347940    0.157030    11.00000   -1.20000
AFIX   0
C1F   1    0.061892   -0.156155    0.778996    11.00000    0.22103    0.11960 =
         0.09819    0.02945   -0.00565   -0.03989
AFIX  43
H1F   2    0.065948   -0.176658    0.772361    11.00000   -1.20000
AFIX   0
C34F  1   -0.063951    0.305299    0.147330    11.00000    0.19906    0.15906 =
         0.11584    0.02772   -0.01052    0.00981
AFIX  43
H34F  2   -0.067363    0.305237    0.112106    11.00000   -1.20000
AFIX   0
C1G   1    0.051218   -0.136603    0.740901    11.00000    0.18917    0.10753 =
         0.08477    0.02559   -0.00087   -0.05166
AFIX  43
H1G   2    0.046306   -0.143438    0.707781    11.00000   -1.20000
AFIX   0
C34G  1   -0.049890    0.279889    0.172169    11.00000    0.17076    0.15333 =
         0.10962    0.02713    0.00208   -0.00060
AFIX  43
H34G  2   -0.043326    0.262087    0.154894    11.00000   -1.20000
AFIX   0
RESI 14 N1P
N1    3    0.484413   -0.024456    0.250063    11.00000    0.16121    0.07230 =
         0.05667   -0.00243    0.03065    0.00818
C2    1    0.489623   -0.004628    0.290485    11.00000    0.15567    0.07388 =
         0.05870   -0.00291    0.02939    0.01166
C3    1    0.529517    0.011310    0.299213    11.00000    0.15351    0.07696 =
         0.06691   -0.01013    0.03361    0.01086
AFIX  43
H3    2    0.554157    0.009129    0.277256    11.00000   -1.20000
AFIX   0
C4    1    0.533978    0.030334    0.339399    11.00000    0.15845    0.08210 =
         0.06835   -0.01003    0.03563    0.00539
AFIX  43
H4    2    0.561361    0.041170    0.345443    11.00000   -1.20000
AFIX   0
C5    1    0.497263    0.033123    0.370626    11.00000    0.15252    0.07122 =
         0.06186   -0.00517    0.02997    0.01097
C6    1    0.456335    0.017760    0.361530    11.00000    0.15252    0.06202 =
         0.05070    0.00602    0.02723    0.01361
AFIX  43
H6    2    0.431300    0.020420    0.382806    11.00000   -1.20000
AFIX   0
C7    1    0.452650   -0.001299    0.321368    11.00000    0.15771    0.07275 =
         0.06052   -0.00397    0.02917    0.00743
AFIX  43
H7    2    0.425196   -0.011991    0.314944    11.00000   -1.20000
AFIX   0
N8    3    0.502055    0.050964    0.415005    11.00000    0.13828    0.06574 =
         0.05622   -0.00203    0.03292    0.00898
C9    1    0.522872    0.038553    0.457799    11.00000    0.14435    0.07768 =
         0.06135   -0.00429    0.02888    0.02111
C10   1    0.523812    0.056657    0.503688    11.00000    0.14548    0.08025 =
         0.06044   -0.00221    0.02193    0.02559
C11   1    0.540786    0.045586    0.548303    11.00000    0.14412    0.08034 =
         0.05724   -0.00578    0.02274    0.02591
AFIX  43
H11   2    0.552112    0.025855    0.549149    11.00000   -1.20000
AFIX   0
C12   1    0.542047    0.061891    0.591743    11.00000    0.12564    0.07379 =
         0.05457   -0.00317    0.02745    0.01699
AFIX  43
H12   2    0.553415    0.053267    0.621821    11.00000   -1.20000
AFIX   0
C13   1    0.526734    0.090698    0.591177    11.00000    0.11993    0.07066 =
         0.06266   -0.00239    0.02856    0.01272
C14   1    0.531224    0.109460    0.635911    11.00000    0.13097    0.07681 =
         0.06451   -0.00444    0.03209    0.00638
N15   3    0.517091    0.138954    0.630913    11.00000    0.13717    0.07673 =
         0.06983   -0.00789    0.02285    0.01007
C16   1    0.497043    0.151970    0.588281    11.00000    0.14032    0.07773 =
         0.07011   -0.00884    0.01966    0.01311
C17   1    0.492129    0.132574    0.544419    11.00000    0.14083    0.07865 =
         0.07030   -0.00499    0.01737    0.01574
C18   1    0.474432    0.143518    0.500453    11.00000    0.16312    0.08099 =
         0.07261   -0.00930    0.00620    0.01938
AFIX  43
H18   2    0.464135    0.163477    0.499075    11.00000   -1.20000
AFIX   0
C19   1    0.471199    0.126248    0.458101    11.00000    0.15310    0.07340 =
         0.06828   -0.00595    0.01082    0.01997
AFIX  43
H19   2    0.457997    0.134374    0.428478    11.00000   -1.20000
AFIX   0
C20   1    0.486793    0.097443    0.458093    11.00000    0.14334    0.07180 =
         0.06563   -0.00322    0.01765    0.01560
C21   1    0.484027    0.079688    0.412145    11.00000    0.13460    0.06934 =
         0.06449   -0.00345    0.02372    0.01100
C22   1    0.506058    0.085662    0.502735    11.00000    0.12242    0.07373 =
         0.06315   -0.00120    0.02539    0.01108
C23   1    0.507727    0.103171    0.546622    11.00000    0.12289    0.07388 =
         0.06462   -0.00200    0.02639    0.00972
O24   7    0.537974    0.013503    0.455713    11.00000    0.15081    0.07994 =
         0.08523   -0.00033    0.04717    0.02598
O25   7    0.546744    0.100273    0.675124    11.00000    0.18683    0.09897 =
         0.07366   -0.00528    0.02185    0.02650
O26   7    0.487073    0.178100    0.586610    11.00000    0.24787    0.08470 =
         0.07921   -0.01721   -0.01529    0.03688
O27   7    0.468886    0.088861    0.372409    11.00000    0.17252    0.07202 =
         0.07291   -0.00218    0.00693    0.00840
C28   1    0.528522    0.159208    0.670739    11.00000    0.14683    0.09209 =
         0.07689   -0.01276    0.01632    0.00413
C29   1    0.569962    0.174583    0.670105    11.00000    0.15264    0.10687 =
         0.09258   -0.02877    0.02866   -0.00494
AFIX  43
H29   2    0.590616    0.171114    0.644102    11.00000   -1.20000
AFIX   0
C30   1    0.581001    0.194803    0.707140    11.00000    0.15137    0.09421 =
         0.08779   -0.02238    0.02771   -0.00664
AFIX  43
H30   2    0.609137    0.205242    0.706641    11.00000   -1.20000
AFIX   0
C31   1    0.550539    0.199767    0.745241    11.00000    0.14224    0.08422 =
         0.07416   -0.01241    0.01454    0.00294
C32   1    0.509106    0.184657    0.746338    11.00000    0.13874    0.07863 =
         0.06790   -0.00160    0.00907    0.00865
AFIX  43
H32   2    0.488486    0.188248    0.772328    11.00000   -1.20000
AFIX   0
C33   1    0.498182    0.164294    0.709120    11.00000    0.13354    0.07834 =
         0.06574   -0.00491    0.00640    0.01413
AFIX  43
H33   2    0.470084    0.153816    0.709738    11.00000   -1.20000
AFIX   0
N34   3    0.562481    0.221534    0.781529    11.00000    0.13148    0.08461 =
         0.07541   -0.01428    0.01390    0.00097
C1A   1    0.499714   -0.051111    0.253133    11.00000    0.18456    0.07995 =
         0.05973   -0.00645    0.02401    0.01776
AFIX  43
H1A   2    0.515264   -0.057757    0.282502    11.00000   -1.20000
AFIX   0
C34A  1    0.573625    0.212900    0.825728    11.00000    0.14248    0.10999 =
         0.07053   -0.01259    0.01399    0.00140
AFIX  43
H34A  2    0.572484    0.192451    0.834049    11.00000   -1.20000
AFIX   0
C1B   1    0.492789   -0.071157    0.210515    11.00000    0.20055    0.08712 =
         0.05722   -0.01085    0.02641    0.01910
C34B  1    0.588152    0.234831    0.863358    11.00000    0.18319    0.12392 =
         0.07789   -0.01844   -0.00293   -0.00226
N1C   3    0.469255   -0.060052    0.170992    11.00000    0.21020    0.09389 =
         0.05172   -0.01344    0.02590    0.02452
N34C  3    0.588792    0.263496    0.848922    11.00000    0.18962    0.12237 =
         0.07881   -0.01972   -0.01982   -0.01103
C1D   1    0.461390   -0.078415    0.132205    11.00000    0.20824    0.09665 =
         0.05294   -0.01410    0.02571    0.01881
AFIX  43
H1D   2    0.443847   -0.071235    0.104543    11.00000   -1.20000
AFIX   0
C34D  1    0.603059    0.284494    0.881008    11.00000    0.19745    0.13131 =
         0.08326   -0.02418   -0.01975   -0.00746
AFIX  43
H34D  2    0.603607    0.304584    0.870448    11.00000   -1.20000
AFIX   0
C1E   1    0.477629   -0.107305    0.130620    11.00000    0.21776    0.10088 =
         0.05740   -0.01535    0.02745    0.02263
AFIX  43
H1E   2    0.472262   -0.119067    0.101755    11.00000   -1.20000
AFIX   0
C34E  1    0.617012    0.277543    0.929198    11.00000    0.20462    0.14405 =
         0.08592   -0.02170   -0.02108   -0.00233
AFIX  43
H34E  2    0.627357    0.292567    0.951534    11.00000   -1.20000
AFIX   0
C1F   1    0.501368   -0.118845    0.170632    11.00000    0.20967    0.09543 =
         0.05678   -0.01279    0.03070    0.02352
AFIX  43
H1F   2    0.512296   -0.138672    0.170607    11.00000   -1.20000
AFIX   0
C34F  1    0.615547    0.248471    0.943918    11.00000    0.21917    0.14540 =
         0.08612   -0.02040   -0.01202    0.00061
AFIX  43
H34F  2    0.624550    0.243390    0.977024    11.00000   -1.20000
AFIX   0
C1G   1    0.508820   -0.100209    0.211477    11.00000    0.20759    0.08786 =
         0.05309   -0.00517    0.03539    0.02041
AFIX  43
H1G   2    0.524936   -0.107398    0.240121    11.00000   -1.20000
AFIX   0
C34G  1    0.601199    0.226429    0.911428    11.00000    0.21346    0.13762 =
         0.08167   -0.01543   -0.00770    0.00001
AFIX  43
H34G  2    0.600278    0.206267    0.921553    11.00000   -1.20000
AFIX   0
RESI 15 N1P
N1    3    0.469739    0.034011    0.183812    11.00000    0.16207    0.09342 =
         0.06121    0.00012    0.00742    0.03194
C2    1    0.439354    0.055230    0.203150    11.00000    0.16742    0.09074 =
         0.06986    0.00076    0.00967    0.03395
C3    1    0.401487    0.063251    0.173801    11.00000    0.17929    0.10853 =
         0.07469   -0.01477    0.00041    0.04695
AFIX  43
H3    2    0.396557    0.054356    0.142096    11.00000   -1.20000
AFIX   0
C4    1    0.371141    0.084073    0.190664    11.00000    0.18175    0.10168 =
         0.07119   -0.01464   -0.00318    0.04682
AFIX  43
H4    2    0.345212    0.089349    0.170640    11.00000   -1.20000
AFIX   0
C5    1    0.378354    0.097499    0.237217    11.00000    0.16604    0.08037 =
         0.06040   -0.00180    0.00986    0.02710
C6    1    0.415625    0.089238    0.265523    11.00000    0.16926    0.07786 =
         0.05984    0.00492    0.01122    0.02711
AFIX  43
H6    2    0.420604    0.098187    0.297177    11.00000   -1.20000
AFIX   0
C7    1    0.446382    0.068198    0.249441    11.00000    0.17037    0.08671 =
         0.06823    0.00408    0.01129    0.03093
AFIX  43
H7    2    0.471947    0.062735    0.269882    11.00000   -1.20000
AFIX   0
N8    3    0.347423    0.120906    0.250085    11.00000    0.16280    0.07553 =
         0.05795    0.00233    0.01476    0.02087
C9    1    0.305586    0.111880    0.269020    11.00000    0.16463    0.07578 =
         0.07768    0.00966    0.02156    0.02148
C10   1    0.270734    0.134717    0.277952    11.00000    0.15924    0.07239 =
         0.06329    0.00754    0.02011    0.01851
C11   1    0.228384    0.126527    0.294546    11.00000    0.16787    0.07947 =
         0.10432    0.01546    0.03583    0.02226
AFIX  43
H11   2    0.221908    0.106245    0.300740    11.00000   -1.20000
AFIX   0
C12   1    0.195184    0.147972    0.302199    11.00000    0.16387    0.07960 =
         0.10283    0.01719    0.03747    0.02230
AFIX  43
H12   2    0.166563    0.142481    0.315184    11.00000   -1.20000
AFIX   0
C13   1    0.203950    0.177392    0.290832    11.00000    0.14961    0.07917 =
         0.08092    0.01214    0.02558    0.01645
C14   1    0.167407    0.199647    0.294059    11.00000    0.14759    0.08294 =
         0.09599    0.01452    0.02271    0.01823
N15   3    0.178378    0.228793    0.280117    11.00000    0.13135    0.08235 =
         0.07023    0.00966    0.01570    0.02107
C16   1    0.220213    0.239212    0.263560    11.00000    0.13335    0.07969 =
         0.06004    0.00350    0.01042    0.01853
C17   1    0.256088    0.216463    0.260575    11.00000    0.13587    0.07332 =
         0.05238    0.00709    0.00989    0.01841
C18   1    0.298548    0.224043    0.244161    11.00000    0.14038    0.07077 =
         0.07166    0.00800    0.01554    0.01463
AFIX  43
H18   2    0.304881    0.244071    0.235878    11.00000   -1.20000
AFIX   0
C19   1    0.332258    0.202658    0.239590    11.00000    0.14024    0.07386 =
         0.06391    0.00219    0.01440    0.01858
AFIX  43
H19   2    0.361490    0.208500    0.228700    11.00000   -1.20000
AFIX   0
C20   1    0.324612    0.173070    0.250409    11.00000    0.14591    0.07501 =
         0.04218    0.00428    0.00764    0.01887
C21   1    0.360005    0.150461    0.241334    11.00000    0.15471    0.07575 =
         0.04122    0.00310    0.00917    0.02326
C22   1    0.281411    0.164631    0.267624    11.00000    0.14441    0.07182 =
         0.03912    0.00592    0.00747    0.01909
C23   1    0.247143    0.186598    0.273554    11.00000    0.14225    0.07196 =
         0.05527    0.00915    0.01219    0.01597
O24   7    0.299495    0.085961    0.280254    11.00000    0.18252    0.07056 =
         0.10107    0.01404    0.03006    0.01836
O25   7    0.129859    0.193645    0.309531    11.00000    0.15912    0.09785 =
         0.14775    0.02134    0.04382    0.01758
O26   7    0.226334    0.264774    0.250990    11.00000    0.13908    0.07974 =
         0.08670    0.00665    0.01708    0.01810
O27   7    0.399466    0.156436    0.229997    11.00000    0.15683    0.08463 =
         0.06703    0.00229    0.01830    0.02445
C28   1    0.142166    0.250316    0.285986    11.00000    0.12450    0.08347 =
         0.07408    0.01217    0.01162    0.02055
C29   1    0.109032    0.255635    0.249171    11.00000    0.11760    0.08296 =
         0.07653    0.00930    0.00982    0.01473
AFIX  43
H29   2    0.109961    0.245689    0.218081    11.00000   -1.20000
AFIX   0
C30   1    0.074719    0.275670    0.258672    11.00000    0.10658    0.07072 =
         0.07391    0.01611    0.01692    0.00208
AFIX  43
H30   2    0.051740    0.279688    0.234016    11.00000   -1.20000
AFIX   0
C31   1    0.073933    0.289909    0.304364    11.00000    0.10896    0.07664 =
         0.08412    0.01102    0.01652    0.00384
C32   1    0.107670    0.284647    0.340557    11.00000    0.10685    0.08123 =
         0.08113    0.00927    0.01838    0.00752
AFIX  43
H32   2    0.107060    0.294811    0.371468    11.00000   -1.20000
AFIX   0
C33   1    0.142020    0.264650    0.331514    11.00000    0.11564    0.08947 =
         0.08153    0.00502    0.01404    0.01749
AFIX  43
H33   2    0.165164    0.260771    0.356052    11.00000   -1.20000
AFIX   0
N34   3    0.038769    0.310367    0.313207    11.00000    0.09209    0.07264 =
         0.07823    0.00467    0.00965   -0.00030
C1A   1    0.510561    0.041003    0.175913    11.00000    0.16226    0.10344 =
         0.06344    0.00810    0.00811    0.03140
AFIX  43
H1A   2    0.520067    0.060738    0.182887    11.00000   -1.20000
AFIX   0
C34A  1    0.049971    0.337159    0.324636    11.00000    0.10561    0.07834 =
         0.11964   -0.00153    0.01343    0.00131
AFIX  43
H34A  2    0.081158    0.342884    0.324370    11.00000   -1.20000
AFIX   0
C1B   1    0.544050    0.020167    0.156500    11.00000    0.15488    0.10943 =
         0.05047    0.00517    0.00334    0.03138
C34B  1    0.015199    0.359028    0.338095    11.00000    0.11163    0.08926 =
         0.14204   -0.01374    0.01614    0.00713
N1C   3    0.528760   -0.007526    0.147954    11.00000    0.13692    0.10705 =
         0.04815    0.00437    0.00141    0.03796
N34C  3   -0.027331    0.348228    0.339675    11.00000    0.10907    0.10071 =
         0.13443   -0.00276    0.01005    0.00729
C1D   1    0.557523   -0.025857    0.125781    11.00000    0.15692    0.12433 =
         0.08308   -0.01175    0.01344    0.03382
AFIX  43
H1D   2    0.546571   -0.045004    0.116861    11.00000   -1.20000
AFIX   0
C34D  1   -0.060325    0.366940    0.353515    11.00000    0.11583    0.10811 =
         0.14408   -0.00056    0.01836    0.01036
AFIX  43
H34D  2   -0.090586    0.359477    0.354744    11.00000   -1.20000
AFIX   0
C1E   1    0.602404   -0.018994    0.114753    11.00000    0.15222    0.12754 =
         0.07185   -0.00402    0.01444    0.03207
AFIX  43
H1E   2    0.622045   -0.033141    0.100258    11.00000   -1.20000
AFIX   0
C34E  1   -0.053271    0.396009    0.365953    11.00000    0.11782    0.10895 =
         0.16490   -0.00862    0.02121    0.01047
AFIX  43
H34E  2   -0.077790    0.408201    0.376024    11.00000   -1.20000
AFIX   0
C1F   1    0.616808    0.009023    0.125767    11.00000    0.16158    0.13309 =
         0.08230   -0.00242    0.00771    0.03001
AFIX  43
H1F   2    0.647256    0.014655    0.119008    11.00000   -1.20000
AFIX   0
C34F  1   -0.009545    0.407121    0.363460    11.00000    0.11777    0.10161 =
         0.18442   -0.02205    0.02491    0.00917
AFIX  43
H34F  2   -0.003333    0.427254    0.371492    11.00000   -1.20000
AFIX   0
C1G   1    0.587590    0.029419    0.146715    11.00000    0.15334    0.12213 =
         0.05696    0.00793    0.00180    0.02975
AFIX  43
H1G   2    0.597307    0.049067    0.154037    11.00000   -1.20000
AFIX   0
C34G  1    0.025164    0.388386    0.349025    11.00000    0.11721    0.09203 =
         0.17532   -0.01956    0.02214    0.00406
AFIX  43
H34G  2    0.055485    0.395594    0.346646    11.00000   -1.20000
AFIX   0

RESI 50 PF6
P1    5    0.257766    0.036812    0.888669    11.00000    0.27315    0.36901 =
         0.23779    0.08864    0.00980    0.02810
F2    6    0.217604    0.031938    0.926852    11.00000    0.28278    0.37712 =
         0.23789    0.08280    0.01570    0.02307
F3    6    0.288942    0.052882    0.932023    11.00000    0.31210    0.41495 =
         0.25142    0.07136    0.00826    0.01685
F4    6    0.301317    0.041776    0.852316    11.00000    0.28401    0.40002 =
         0.24876    0.07388    0.02599    0.02495
F5    6    0.231125    0.020359    0.842429    11.00000    0.28651    0.37781 =
         0.25265    0.06850    0.01870    0.02454
F6    6    0.237602    0.068569    0.869689    11.00000    0.27782    0.36582 =
         0.22196    0.08369    0.01834    0.01817
F7    6    0.277830    0.004038    0.905269    11.00000    0.31614    0.39411 =
         0.28096    0.09050    0.01245    0.04335
RESI 51 PF6
P1    5   -0.090658   -0.096486    0.667934    11.00000    0.19531    0.14580 =
         0.37225    0.06232    0.02338   -0.04905
F2    6   -0.119829   -0.103959    0.717383    11.00000    0.21879    0.14994 =
         0.35283    0.05752    0.02645   -0.06077
F3    6   -0.044022   -0.105835    0.696753    11.00000    0.20543    0.18257 =
         0.40945    0.05990    0.00160   -0.04947
F4    6   -0.062182   -0.091303    0.616915    11.00000    0.21707    0.17911 =
         0.38733    0.05327    0.04756   -0.05686
F5    6   -0.138804   -0.088664    0.637954    11.00000    0.18564    0.16069 =
         0.34205    0.07040    0.03339   -0.03853
F6    6   -0.098338   -0.131440    0.648288    11.00000    0.19916    0.14730 =
         0.38486    0.05129    0.01461   -0.03160
F7    6   -0.085233   -0.062473    0.685661    11.00000    0.20143    0.15255 =
         0.36772    0.05386    0.02298   -0.06105
RESI 52 PF6
P1    5    0.502298    0.072913    0.018864    11.00000    0.55229    0.17801 =
         0.14254   -0.02875    0.05094    0.06769
F2    6    0.476525    0.055555   -0.026969    11.00000    0.55162    0.20926 =
         0.15968   -0.02633    0.04107    0.06726
F3    6    0.549682    0.073388   -0.011467    11.00000    0.54770    0.21131 =
         0.15400   -0.03922    0.04418    0.05834
F4    6    0.527274    0.087388    0.067802    11.00000    0.56288    0.21544 =
         0.16367   -0.04602    0.05040    0.06378
F5    6    0.452992    0.070719    0.044683    11.00000    0.55561    0.21886 =
         0.19557   -0.02247    0.06230    0.07108
F6    6    0.489634    0.104963   -0.003288    11.00000    0.58274    0.21044 =
         0.20480   -0.00822    0.05172    0.07291
F7    6    0.516818    0.040782    0.042524    11.00000    0.53672    0.18317 =
         0.15472   -0.02770    0.03191    0.06236
RESI 60 TFI
S1    8    0.206234    0.348735    0.583614    11.00000    0.26001    0.14314 =
         0.14113   -0.03435   -0.02282   -0.00914
O2    7    0.211187    0.380596    0.584553    11.00000    0.25650    0.14390 =
         0.14899   -0.04094    0.00970   -0.00868
O3    7    0.178685    0.334094    0.545849    11.00000    0.26012    0.14900 =
         0.13300   -0.01959   -0.02216   -0.02537
C4    1    0.175134    0.340355    0.639995    11.00000    0.28296    0.19853 =
         0.15397   -0.02684   -0.01264   -0.02673
F5    6    0.198890    0.351975    0.678235    11.00000    0.28543    0.20247 =
         0.16374   -0.02825   -0.03146   -0.01241
F6    6    0.132668    0.349936    0.632275    11.00000    0.28533    0.25579 =
         0.22423   -0.01352   -0.01983   -0.01807
F7    6    0.172996    0.311923    0.649546    11.00000    0.35669    0.20429 =
         0.18813   -0.02412    0.00403   -0.03435
N8    3    0.256575    0.332902    0.585469    11.00000    0.25655    0.14500 =
         0.15762   -0.04534   -0.03147   -0.00933
S9    8    0.301799    0.347637    0.612118    11.00000    0.26196    0.15079 =
         0.15421   -0.03664   -0.02928   -0.01139
O10   7    0.290158    0.369177    0.648435    11.00000    0.26839    0.14156 =
         0.15035   -0.03268   -0.01152   -0.02710
O11   7    0.335698    0.324982    0.619971    11.00000    0.27368    0.16881 =
         0.16561   -0.04121   -0.03890    0.00528
C12   1    0.329150    0.369190    0.563535    11.00000    0.28059    0.18324 =
         0.17259   -0.02211   -0.01561   -0.01675
F13   6    0.300006    0.390607    0.551475    11.00000    0.27281    0.19078 =
         0.21707   -0.00542   -0.01597   -0.02450
F14   6    0.368730    0.378772    0.580271    11.00000    0.28275    0.20699 =
         0.19633   -0.04536   -0.01418   -0.01167
F15   6    0.333080    0.351876    0.523723    11.00000    0.32328    0.19633 =
         0.18373   -0.02572   -0.01163   -0.01636
RESI 0
HKLF 4

REM  sol in P2(1)/c
REM R1 =  0.1969 for   15247 Fo > 4sig(Fo)  and  0.2138 for all   19847 data
REM   2953 parameters refined using   8854 restraints

END

WGHT      0.2000      0.0000

REM Instructions for potential hydrogen bonds
EQIV $1 -x+1, -y, -z
HTAB_52 C34D_10 F2_$1
HTAB C34E_10 F2_52
HTAB_52 C34E_10 F7_$1
HTAB C4_11 O26_14
HTAB C6_11 O11_60
HTAB C4_12 F6_50
HTAB C6_12 O27_13
HTAB C33_12 O27_11
HTAB C3_13 F7_51
HTAB C7_13 O24_10
HTAB C33_13 O25_15
EQIV $2 -x, -y, -z+1
HTAB_51 C33_13 F6_$2
HTAB_13 C1A_13 O25_$2
HTAB_13 C1G_13 O25_$2
HTAB C6_14 O26_10
HTAB C33_14 O26_12
HTAB_52 C1D_14 F3_$1
EQIV $3 x, -y+1/2, z-1/2
HTAB_60 C4_15 O10_$3
HTAB C6_15 O27_14
HTAB C32_15 O25_11
HTAB C33_15 O25_11
HTAB_12 C34A_15 O24_$3
HTAB_52 C1D_15 F2_$1
EQIV $4 -x+1, -y, -z+1
HTAB_50 C1E_15 F4_$4
HTAB_12 C34G_15 O24_$3

REM Highest difference peak  0.923,  deepest hole -0.664,  1-sigma level  0.117
Q1    1   0.2404  0.3396  0.6381  11.00000  0.05    0.92
Q2    1   0.6279  0.2736  0.7577  11.00000  0.05    0.76
Q3    1   0.3957 -0.0163  0.3065  11.00000  0.05    0.60
Q4    1   0.5397 -0.0092  0.1623  11.00000  0.05    0.59
Q5    1   0.5007  0.2110  0.8355  11.00000  0.05    0.55
Q6    1   0.5000  0.2716  0.7697  11.00000  0.05    0.55
Q7    1  -0.0609 -0.1176  0.5862  11.00000  0.05    0.53
Q8    1   0.0883  0.2057  0.3081  11.00000  0.05    0.52
Q9    1   0.4702  0.2045  0.7543  11.00000  0.05    0.52
Q10   1   0.2024  0.1203  0.8327  11.00000  0.05    0.52
Q11   1   0.3922 -0.0152  0.1764  11.00000  0.05    0.51
Q12   1   0.1279 -0.0556  0.8043  11.00000  0.05    0.51
Q13   1   0.0861  0.0731  0.7798  11.00000  0.05    0.50
Q14   1   0.1681  0.2659  0.2488  11.00000  0.05    0.50
Q15   1  -0.0012  0.2773  0.2799  11.00000  0.05    0.49
Q16   1   0.3704  0.0619  0.2476  11.00000  0.05    0.46
Q17   1   0.2607 -0.0381  0.5065  11.00000  0.05    0.44
Q18   1   0.2884  0.3192  0.4510  11.00000  0.05    0.44
Q19   1   0.2825  0.0599  0.7730  11.00000  0.05    0.44
Q20   1   0.1063  0.2935  0.4329  11.00000  0.05    0.44
;
_shelx_res_checksum              18997
_shelx_fab_file
;
    4    0    0   -382.01      0.00
    5    0    0    140.34      0.00
    6    0    0     31.71      0.00
    7    0    0     15.75      0.00
    8    0    0     27.55      0.00
    9    0    0   -237.76      0.00
   10    0    0    -25.98      0.00
   11    0    0   -121.72      0.00
   12    0    0     59.95      0.00
   14    0    0     10.30      0.00
   15    0    0    -24.57      0.00
   16    0    0     10.81      0.00
   17    0    0     -2.69      0.00
   18    0    0     16.08      0.00
   19    0    0     10.28      0.00
   20    0    0    -23.43      0.00
   21    0    0     -7.93      0.00
   22    0    0     -0.87      0.00
   23    0    0     -2.36      0.00
    4    1    0     49.46      0.00
    5    1    0   -130.10      0.00
    6    1    0   -151.85      0.00
    7    1    0    -34.28      0.00
    8    1    0    -30.05      0.00
    9    1    0    -26.35      0.00
   10    1    0     67.54      0.00
   11    1    0    -26.36      0.00
   12    1    0    -29.53      0.00
   13    1    0    -22.65      0.00
   14    1    0    -25.30      0.00
   15    1    0     -2.44      0.00
   16    1    0     58.71      0.00
   17    1    0    -13.16      0.00
   18    1    0      5.13      0.00
   19    1    0    -30.18      0.00
   20    1    0     -8.56      0.00
   21    1    0     -2.31      0.00
   22    1    0      0.97      0.00
   23    1    0     10.72      0.00
    4    2    0   -124.71      0.00
    5    2    0    128.58      0.00
    6    2    0   -183.49      0.00
    7    2    0    -34.44      0.00
    8    2    0    -13.47      0.00
    9    2    0     59.23      0.00
   10    2    0    -12.39      0.00
   11    2    0     -9.54      0.00
   12    2    0      8.12      0.00
   13    2    0     12.13      0.00
   14    2    0    -38.93      0.00
   15    2    0    -11.88      0.00
   16    2    0      2.84      0.00
   17    2    0     26.27      0.00
   18    2    0     -7.55      0.00
   19    2    0     -6.44      0.00
   20    2    0      1.32      0.00
   21    2    0     -4.18      0.00
   22    2    0      5.74      0.00
   23    2    0      5.68      0.00
    4    3    0    172.40      0.00
    5    3    0     -0.68      0.00
    6    3    0    103.15      0.00
    7    3    0     28.74      0.00
    8    3    0    -63.98      0.00
    9    3    0     13.95      0.00
   10    3    0    -15.45      0.00
   11    3    0      1.80      0.00
   12    3    0     -1.36      0.00
   13    3    0     30.66      0.00
   14    3    0     17.34      0.00
   15    3    0      8.49      0.00
   16    3    0      7.40      0.00
   17    3    0     -6.80      0.00
   18    3    0     17.95      0.00
   19    3    0      6.13      0.00
   20    3    0    -19.03      0.00
   21    3    0      5.35      0.00
   22    3    0     -3.97      0.00
   23    3    0      2.08      0.00
    4    4    0    213.91      0.00
    5    4    0   -220.50      0.00
    6    4    0     36.51      0.00
    7    4    0     83.44      0.00
    8    4    0     99.45      0.00
    9    4    0     32.62      0.00
   10    4    0     -6.29      0.00
   11    4    0     40.49      0.00
   12    4    0    -29.58      0.00
   13    4    0     54.41      0.00
   14    4    0     -8.48      0.00
   15    4    0     -1.64      0.00
   16    4    0     -6.75      0.00
   17    4    0    -22.66      0.00
   18    4    0    -16.07      0.00
   19    4    0     -2.26      0.00
   20    4    0     11.95      0.00
   21    4    0    -11.91      0.00
   22    4    0     -0.16      0.00
   23    4    0     -3.67      0.00
    3    5    0    -37.92      0.00
    4    5    0     41.51      0.00
    5    5    0    -29.35      0.00
    6    5    0    -46.14      0.00
    7    5    0     -1.56      0.00
    8    5    0     -8.61      0.00
    9    5    0     17.97      0.00
   10    5    0    -75.42      0.00
   11    5    0     35.16      0.00
   12    5    0     36.63      0.00
   13    5    0    -41.07      0.00
   14    5    0     11.54      0.00
   15    5    0     -0.57      0.00
   16    5    0     -5.82      0.00
   17    5    0      0.23      0.00
   18    5    0    -16.04      0.00
   19    5    0      8.91      0.00
   20    5    0      1.66      0.00
   21    5    0     -5.24      0.00
   22    5    0     -2.00      0.00
   23    5    0      2.02      0.00
    3    6    0    -60.96      0.00
    4    6    0     16.71      0.00
    5    6    0    -77.48      0.00
    6    6    0     48.97      0.00
    7    6    0    -21.01      0.00
    8    6    0    -37.43      0.00
    9    6    0    -46.45      0.00
   10    6    0     10.41      0.00
   11    6    0     -8.01      0.00
   12    6    0     65.85      0.00
   13    6    0     25.80      0.00
   14    6    0     -4.77      0.00
   15    6    0     -5.79      0.00
   16    6    0      9.45      0.00
   17    6    0     -4.08      0.00
   18    6    0     18.20      0.00
   19    6    0      2.28      0.00
   20    6    0     -1.06      0.00
   21    6    0      8.27      0.00
   22    6    0     -6.11      0.00
   23    6    0      3.30      0.00
    3    7    0   -197.18      0.00
    4    7    0    -26.07      0.00
    5    7    0    115.02      0.00
    6    7    0    -75.75      0.00
    7    7    0     33.80      0.00
    8    7    0    -56.80      0.00
    9    7    0    -36.64      0.00
   10    7    0     16.36      0.00
   11    7    0    -40.87      0.00
   12    7    0      5.66      0.00
   13    7    0    -24.23      0.00
   14    7    0    -24.02      0.00
   15    7    0     15.29      0.00
   16    7    0     -7.64      0.00
   17    7    0    -11.24      0.00
   18    7    0    -15.07      0.00
   19    7    0     -0.77      0.00
   20    7    0      4.54      0.00
   21    7    0    -21.39      0.00
   22    7    0      1.66      0.00
   23    7    0      5.76      0.00
    1    8    0     96.23      0.00
    2    8    0      6.93      0.00
    3    8    0   -165.23      0.00
    4    8    0    -71.64      0.00
    5    8    0     50.91      0.00
    6    8    0     83.70      0.00
    7    8    0      4.62      0.00
    8    8    0    -46.86      0.00
    9    8    0     56.85      0.00
   10    8    0    -17.59      0.00
   11    8    0    -10.70      0.00
   12    8    0    -24.04      0.00
   13    8    0    -16.83      0.00
   14    8    0     13.27      0.00
   15    8    0     38.07      0.00
   16    8    0      3.61      0.00
   17    8    0     -2.12      0.00
   18    8    0    -14.33      0.00
   19    8    0     -1.42      0.00
   20    8    0      8.42      0.00
   21    8    0      5.52      0.00
   22    8    0    -11.73      0.00
   23    8    0     -2.31      0.00
    1    9    0    -72.57      0.00
    2    9    0     60.06      0.00
    3    9    0     72.29      0.00
    4    9    0    -32.83      0.00
    5    9    0    -52.31      0.00
    6    9    0    -14.09      0.00
    7    9    0     33.02      0.00
    8    9    0     14.39      0.00
    9    9    0    -24.98      0.00
   10    9    0     18.10      0.00
   11    9    0     -7.13      0.00
   12    9    0      6.64      0.00
   13    9    0     12.01      0.00
   14    9    0    -26.27      0.00
   15    9    0      4.69      0.00
   16    9    0     13.12      0.00
   17    9    0      6.44      0.00
   18    9    0      2.17      0.00
   19    9    0      4.56      0.00
   20    9    0     -4.91      0.00
   21    9    0      4.73      0.00
   22    9    0     10.23      0.00
   23    9    0     -5.78      0.00
    1   10    0    -51.29      0.00
    2   10    0    -68.88      0.00
    3   10    0    -29.24      0.00
    4   10    0     43.08      0.00
    5   10    0    -18.84      0.00
    6   10    0    112.69      0.00
    7   10    0     31.58      0.00
    8   10    0    -24.13      0.00
    9   10    0     58.05      0.00
   10   10    0      5.54      0.00
   11   10    0     -5.88      0.00
   12   10    0    -18.49      0.00
   13   10    0    -23.46      0.00
   14   10    0     15.79      0.00
   15   10    0    -29.75      0.00
   16   10    0    -20.90      0.00
   17   10    0    -15.41      0.00
   18   10    0      7.40      0.00
   19   10    0     10.77      0.00
   20   10    0     -0.58      0.00
   21   10    0    -18.51      0.00
   22   10    0      5.12      0.00
    1   11    0    -63.41      0.00
    2   11    0   -200.44      0.00
    3   11    0     13.77      0.00
    4   11    0    -31.20      0.00
    5   11    0     -8.86      0.00
    6   11    0     49.60      0.00
    7   11    0    -55.52      0.00
    8   11    0    -32.36      0.00
    9   11    0    -38.42      0.00
   10   11    0      3.89      0.00
   11   11    0      8.82      0.00
   12   11    0     -7.05      0.00
   13   11    0      2.17      0.00
   14   11    0     -9.95      0.00
   15   11    0    -16.83      0.00
   16   11    0    -16.41      0.00
   17   11    0     -9.29      0.00
   18   11    0     20.16      0.00
   19   11    0      5.18      0.00
   20   11    0      2.31      0.00
   21   11    0      8.42      0.00
   22   11    0     -6.95      0.00
    0   12    0   -264.09      0.00
    1   12    0    -44.18      0.00
    2   12    0    136.51      0.00
    3   12    0     75.24      0.00
    4   12    0    -54.62      0.00
    5   12    0    -14.45      0.00
    6   12    0    -95.43      0.00
    7   12    0     18.72      0.00
    8   12    0      6.16      0.00
    9   12    0    -17.26      0.00
   10   12    0     27.87      0.00
   11   12    0    -32.24      0.00
   12   12    0    -14.68      0.00
   13   12    0     16.31      0.00
   14   12    0     45.24      0.00
   15   12    0      7.56      0.00
   16   12    0     -9.05      0.00
   17   12    0     -1.52      0.00
   18   12    0      0.83      0.00
   19   12    0      8.63      0.00
   20   12    0     -4.26      0.00
   21   12    0      8.67      0.00
   22   12    0      2.83      0.00
    1   13    0   -177.61      0.00
    2   13    0     83.68      0.00
    3   13    0    -49.98      0.00
    4   13    0    -15.40      0.00
    5   13    0     35.53      0.00
    6   13    0     68.25      0.00
    7   13    0     16.01      0.00
    8   13    0     41.48      0.00
    9   13    0     47.02      0.00
   10   13    0    -18.44      0.00
   11   13    0     -3.95      0.00
   12   13    0    -22.72      0.00
   13   13    0      5.28      0.00
   14   13    0     18.91      0.00
   15   13    0      7.60      0.00
   16   13    0    -23.24      0.00
   17   13    0     -0.48      0.00
   18   13    0     -5.64      0.00
   19   13    0    -10.70      0.00
   20   13    0     12.36      0.00
   21   13    0     -2.22      0.00
   22   13    0      0.63      0.00
    0   14    0     55.29      0.00
    1   14    0    -13.39      0.00
    2   14    0     23.40      0.00
    3   14    0    101.80      0.00
    4   14    0    -52.02      0.00
    5   14    0     -6.09      0.00
    6   14    0     10.77      0.00
    7   14    0    -14.77      0.00
    8   14    0      8.70      0.00
    9   14    0      1.78      0.00
   10   14    0     -2.64      0.00
   11   14    0     11.04      0.00
   12   14    0     10.82      0.00
   13   14    0     -6.74      0.00
   14   14    0     -3.51      0.00
   15   14    0     13.92      0.00
   16   14    0     -8.68      0.00
   17   14    0      1.08      0.00
   18   14    0    -11.71      0.00
   19   14    0     -5.22      0.00
   20   14    0     -5.91      0.00
   21   14    0     -3.87      0.00
   22   14    0     -2.15      0.00
    1   15    0    -62.11      0.00
    2   15    0    -28.33      0.00
    3   15    0    -29.40      0.00
    4   15    0    -35.86      0.00
    5   15    0     35.97      0.00
    6   15    0    -37.13      0.00
    7   15    0      6.65      0.00
    8   15    0     11.20      0.00
    9   15    0    -24.59      0.00
   10   15    0    -14.51      0.00
   11   15    0    -10.13      0.00
   12   15    0      3.72      0.00
   13   15    0      8.61      0.00
   14   15    0     -5.60      0.00
   15   15    0    -32.14      0.00
   16   15    0     -0.15      0.00
   17   15    0      5.84      0.00
   18   15    0      7.69      0.00
   19   15    0     -2.19      0.00
   20   15    0      4.00      0.00
   21   15    0     -2.02      0.00
    0   16    0     31.57      0.00
    1   16    0    -21.85      0.00
    2   16    0    -79.51      0.00
    3   16    0    -76.76      0.00
    4   16    0     24.51      0.00
    5   16    0      6.56      0.00
    6   16    0     83.12      0.00
    7   16    0     -9.28      0.00
    8   16    0    -21.88      0.00
    9   16    0    -32.54      0.00
   10   16    0    -16.63      0.00
   11   16    0     33.48      0.00
   12   16    0     25.85      0.00
   13   16    0     -9.48      0.00
   14   16    0    -15.22      0.00
   15   16    0    -11.53      0.00
   16   16    0    -10.93      0.00
   17   16    0     -4.97      0.00
   18   16    0      4.27      0.00
   19   16    0      5.15      0.00
   20   16    0      6.17      0.00
   21   16    0     -4.37      0.00
    1   17    0     21.83      0.00
    2   17    0    -61.62      0.00
    3   17    0     19.58      0.00
    4   17    0     14.75      0.00
    5   17    0     40.87      0.00
    6   17    0     20.08      0.00
    7   17    0    -12.57      0.00
    8   17    0    -10.82      0.00
    9   17    0    -11.75      0.00
   10   17    0     -4.25      0.00
   11   17    0     27.98      0.00
   12   17    0     12.93      0.00
   13   17    0     20.31      0.00
   14   17    0    -22.18      0.00
   15   17    0     -4.27      0.00
   16   17    0      9.66      0.00
   17   17    0     -6.65      0.00
   18   17    0      8.21      0.00
   19   17    0      5.13      0.00
   20   17    0    -15.00      0.00
   21   17    0     -2.92      0.00
    0   18    0    -13.97      0.00
    1   18    0    -11.52      0.00
    2   18    0      6.42      0.00
    3   18    0     46.07      0.00
    4   18    0     22.56      0.00
    5   18    0      0.90      0.00
    6   18    0      8.72      0.00
    7   18    0    -21.18      0.00
    8   18    0      8.40      0.00
    9   18    0     -3.94      0.00
   10   18    0      9.37      0.00
   11   18    0     20.93      0.00
   12   18    0      5.62      0.00
   13   18    0    -11.53      0.00
   14   18    0     -7.04      0.00
   15   18    0      5.48      0.00
   16   18    0     11.33      0.00
   17   18    0      1.31      0.00
   18   18    0     -7.42      0.00
   19   18    0      3.16      0.00
   20   18    0      6.74      0.00
    1   19    0    -27.68      0.00
    2   19    0     -9.20      0.00
    3   19    0     35.10      0.00
    4   19    0      8.10      0.00
    5   19    0    -19.17      0.00
    6   19    0     11.39      0.00
    7   19    0    -27.09      0.00
    8   19    0      0.02      0.00
    9   19    0      8.01      0.00
   10   19    0      6.04      0.00
   11   19    0     -2.86      0.00
   12   19    0     25.15      0.00
   13   19    0    -11.30      0.00
   14   19    0     -9.55      0.00
   15   19    0     -5.95      0.00
   16   19    0      3.81      0.00
   17   19    0     -3.82      0.00
   18   19    0      5.30      0.00
   19   19    0     -5.60      0.00
   20   19    0     -6.73      0.00
    0   20    0    -35.00      0.00
    1   20    0    -23.16      0.00
    2   20    0    -19.86      0.00
    3   20    0     34.64      0.00
    4   20    0     -2.16      0.00
    5   20    0     18.50      0.00
    6   20    0    -44.78      0.00
    7   20    0     16.04      0.00
    8   20    0    -21.22      0.00
    9   20    0    -14.95      0.00
   10   20    0      2.56      0.00
   11   20    0     11.72      0.00
   12   20    0      3.13      0.00
   13   20    0     13.44      0.00
   14   20    0    -18.98      0.00
   15   20    0     -1.41      0.00
   16   20    0     -1.01      0.00
   17   20    0     -2.99      0.00
   18   20    0      6.27      0.00
   19   20    0      7.82      0.00
    1   21    0     13.51      0.00
    2   21    0     -5.75      0.00
    3   21    0    -35.65      0.00
    4   21    0     18.58      0.00
    5   21    0     41.13      0.00
    6   21    0    -15.32      0.00
    7   21    0      7.71      0.00
    8   21    0     -0.58      0.00
    9   21    0     -2.38      0.00
   10   21    0     -5.59      0.00
   11   21    0      9.60      0.00
   12   21    0     -6.27      0.00
   13   21    0     -6.22      0.00
   14   21    0      1.88      0.00
   15   21    0      3.75      0.00
   16   21    0    -12.47      0.00
   17   21    0     -1.07      0.00
   18   21    0     -1.99      0.00
   19   21    0     10.98      0.00
    0   22    0    -42.08      0.00
    1   22    0    -54.59      0.00
    2   22    0      0.58      0.00
    3   22    0    -57.43      0.00
    4   22    0      0.51      0.00
    5   22    0     20.11      0.00
    6   22    0    -23.98      0.00
    7   22    0     -9.80      0.00
    8   22    0      3.45      0.00
    9   22    0     -9.10      0.00
   10   22    0      3.06      0.00
   11   22    0    -10.47      0.00
   12   22    0     27.52      0.00
   13   22    0     13.74      0.00
   14   22    0    -15.23      0.00
   15   22    0     -0.71      0.00
   16   22    0     10.95      0.00
   17   22    0     15.80      0.00
   18   22    0      1.85      0.00
   19   22    0      0.41      0.00
    1   23    0     49.38      0.00
    2   23    0     -1.06      0.00
    3   23    0     17.50      0.00
    4   23    0     16.75      0.00
    5   23    0     27.58      0.00
    6   23    0     32.52      0.00
    7   23    0    -26.46      0.00
    8   23    0     -1.57      0.00
    9   23    0     28.88      0.00
   10   23    0     -7.98      0.00
   11   23    0     23.09      0.00
   12   23    0     -3.47      0.00
   13   23    0     -9.10      0.00
   14   23    0      8.56      0.00
   15   23    0      4.77      0.00
   16   23    0      1.32      0.00
   17   23    0     -1.96      0.00
   18   23    0      4.21      0.00
    0   24    0    -12.33      0.00
    1   24    0     18.30      0.00
    2   24    0     23.36      0.00
    3   24    0    -31.26      0.00
    4   24    0     10.96      0.00
    5   24    0     -3.69      0.00
    6   24    0      8.59      0.00
    7   24    0     -3.86      0.00
    8   24    0    -15.08      0.00
    9   24    0      5.11      0.00
   10   24    0     -6.15      0.00
   11   24    0    -11.41      0.00
   12   24    0      5.20      0.00
   13   24    0    -15.13      0.00
   14   24    0     -3.93      0.00
   15   24    0      6.35      0.00
   16   24    0      1.50      0.00
   17   24    0     -1.89      0.00
   18   24    0      2.28      0.00
    1   25    0    -42.39      0.00
    2   25    0     44.33      0.00
    3   25    0      8.36      0.00
    4   25    0     -4.06      0.00
    5   25    0    -13.89      0.00
    6   25    0     23.67      0.00
    7   25    0     -3.62      0.00
    8   25    0      3.14      0.00
    9   25    0     -4.44      0.00
   10   25    0      2.18      0.00
   11   25    0    -17.48      0.00
   12   25    0     12.68      0.00
   13   25    0     -3.29      0.00
   14   25    0    -13.71      0.00
   15   25    0     -6.43      0.00
   16   25    0     -5.79      0.00
   17   25    0     -6.47      0.00
    0   26    0     -2.64      0.00
    1   26    0     19.28      0.00
    2   26    0    -45.93      0.00
    3   26    0    -22.53      0.00
    4   26    0     18.32      0.00
    5   26    0     -0.56      0.00
    6   26    0    -12.43      0.00
    7   26    0     15.45      0.00
    8   26    0      8.26      0.00
    9   26    0     -3.89      0.00
   10   26    0    -16.07      0.00
   11   26    0     -4.64      0.00
   12   26    0      5.78      0.00
   13   26    0     11.62      0.00
   14   26    0      0.01      0.00
   15   26    0      3.88      0.00
   16   26    0      5.35      0.00
    1   27    0    -15.66      0.00
    2   27    0     25.41      0.00
    3   27    0      3.56      0.00
    4   27    0    -10.53      0.00
    5   27    0      8.09      0.00
    6   27    0    -13.83      0.00
    7   27    0     -2.19      0.00
    8   27    0     -4.57      0.00
    9   27    0     22.58      0.00
   10   27    0     14.08      0.00
   11   27    0      2.02      0.00
   12   27    0      0.58      0.00
   13   27    0    -10.79      0.00
   14   27    0     -9.04      0.00
   15   27    0     -6.07      0.00
   16   27    0      1.88      0.00
    0   28    0     16.12      0.00
    1   28    0      8.49      0.00
    2   28    0    -14.88      0.00
    3   28    0      5.91      0.00
    4   28    0      5.81      0.00
    5   28    0      2.11      0.00
    6   28    0      0.98      0.00
    7   28    0     -9.70      0.00
    8   28    0    -18.53      0.00
    9   28    0      7.22      0.00
   10   28    0     18.98      0.00
   11   28    0     10.78      0.00
   12   28    0      7.41      0.00
   13   28    0    -14.87      0.00
   14   28    0     -9.22      0.00
   15   28    0    -13.18      0.00
    1   29    0     19.41      0.00
    2   29    0     -0.48      0.00
    3   29    0     18.89      0.00
    4   29    0     -9.86      0.00
    5   29    0     -8.64      0.00
    6   29    0    -20.03      0.00
    7   29    0     -5.58      0.00
    8   29    0     -8.11      0.00
    9   29    0     13.87      0.00
   10   29    0     10.66      0.00
   11   29    0      4.05      0.00
   12   29    0     11.45      0.00
   13   29    0      9.03      0.00
   14   29    0      3.87      0.00
    0   30    0    -16.72      0.00
    1   30    0     -0.33      0.00
    2   30    0     17.31      0.00
    3   30    0      8.60      0.00
    4   30    0      9.95      0.00
    5   30    0    -16.77      0.00
    6   30    0    -18.48      0.00
    7   30    0     -9.35      0.00
    8   30    0     10.97      0.00
    9   30    0      2.36      0.00
   10   30    0      9.43      0.00
   11   30    0     11.01      0.00
   12   30    0     -2.17      0.00
   13   30    0      6.14      0.00
    1   31    0     -7.49      0.00
    2   31    0      1.82      0.00
    3   31    0      8.20      0.00
    4   31    0     17.67      0.00
    5   31    0     -6.90      0.00
    6   31    0     12.84      0.00
    7   31    0     -0.54      0.00
    8   31    0      0.28      0.00
    9   31    0     -8.44      0.00
   10   31    0     -4.50      0.00
   11   31    0      2.99      0.00
   12   31    0      1.22      0.00
    0   32    0     21.70      0.00
    1   32    0     16.17      0.00
    2   32    0     -5.55      0.00
    3   32    0     -6.85      0.00
    4   32    0    -22.74      0.00
    5   32    0      0.39      0.00
    6   32    0     10.12      0.00
    7   32    0      6.10      0.00
    8   32    0      6.35      0.00
    9   32    0     -9.82      0.00
   10   32    0     -3.96      0.00
   11   32    0      0.98      0.00
    1   33    0      0.41      0.00
    2   33    0     20.66      0.00
    3   33    0     16.58      0.00
    4   33    0     11.71      0.00
    5   33    0     -8.78      0.00
    6   33    0      3.80      0.00
    7   33    0     13.15      0.00
    8   33    0     -8.02      0.00
    9   33    0      6.69      0.00
   10   33    0     -0.85      0.00
    0   34    0     17.77      0.00
    1   34    0     -0.42      0.00
    2   34    0      9.44      0.00
    3   34    0     -4.16      0.00
    4   34    0     -4.87      0.00
    5   34    0     -2.77      0.00
    6   34    0      9.04      0.00
    7   34    0      3.24      0.00
    8   34    0      1.06      0.00
    1   35    0      2.07      0.00
    2   35    0      3.84      0.00
    3   35    0      2.00      0.00
    4   35    0     -3.88      0.00
    5   35    0     -8.41      0.00
    6   35    0      0.00      0.00
    7   35    0      2.40      0.00
    0   36    0    -29.15      0.00
    1   36    0      1.33      0.00
    2   36    0     16.27      0.00
    3   36    0      1.32      0.00
    4   36    0     -7.32      0.00
  -23    1    1      3.33      0.00
  -22    1    1      7.25      0.00
  -21    1    1     -1.26      0.00
  -20    1    1     -3.74      0.00
  -19    1    1     -5.72      0.00
  -18    1    1      6.11      0.00
  -17    1    1      9.44      0.00
  -16    1    1     -1.48      0.00
  -15    1    1     -8.92      0.00
  -14    1    1     16.98      0.00
  -13    1    1     -9.20      0.00
  -12    1    1    -16.85      0.00
  -11    1    1     37.77      0.00
  -10    1    1    -45.61      0.00
   -9    1    1      8.09      0.00
   -8    1    1   -104.99      0.00
   -7    1    1   -101.03      0.00
   -6    1    1     55.11      0.00
   -5    1    1     25.01      0.00
   -4    1    1    331.02      0.00
    4    1    1    178.83      0.00
    5    1    1   -106.06      0.00
    6    1    1    -14.96      0.00
    7    1    1    -22.92      0.00
    8    1    1     80.09      0.00
    9    1    1    -51.69      0.00
   10    1    1      7.04      0.00
   11    1    1    -10.83      0.00
   12    1    1      7.91      0.00
   13    1    1      8.92      0.00
   14    1    1     -5.49      0.00
   15    1    1     -9.52      0.00
   16    1    1    -18.83      0.00
   17    1    1     -6.72      0.00
   18    1    1     -6.92      0.00
   19    1    1    -12.52      0.00
   20    1    1    -14.90      0.00
   21    1    1     -1.53      0.00
   22    1    1      8.36      0.00
   23    1    1      2.18      0.00
  -23    2    1     14.23      0.00
  -22    2    1      0.73      0.00
  -21    2    1     13.67      0.00
  -20    2    1     -8.74      0.00
  -19    2    1    -19.46      0.00
  -18    2    1     28.84      0.00
  -17    2    1     13.47      0.00
  -16    2    1      3.50      0.00
  -15    2    1     -2.49      0.00
  -14    2    1    -32.24      0.00
  -13    2    1    -26.48      0.00
  -12    2    1    -17.69      0.00
  -11    2    1     43.46      0.00
  -10    2    1     52.46      0.00
   -9    2    1    -18.93      0.00
   -8    2    1   -140.04      0.00
   -7    2    1     48.14      0.00
   -6    2    1     18.90      0.00
   -5    2    1    134.23      0.00
   -4    2    1    -22.85      0.00
    4    2    1   -206.80      0.00
    5    2    1     -1.38      0.00
    6    2    1     13.70      0.00
    7    2    1     15.62      0.00
    8    2    1     42.47      0.00
    9    2    1    -59.60      0.00
   10    2    1    -52.57      0.00
   11    2    1    -33.64      0.00
   12    2    1     54.72      0.00
   13    2    1    -20.24      0.00
   14    2    1    -11.78      0.00
   15    2    1    -10.54      0.00
   16    2    1    -12.03      0.00
   17    2    1      1.00      0.00
   18    2    1    -17.64      0.00
   19    2    1      6.67      0.00
   20    2    1      4.96      0.00
   21    2    1     -5.55      0.00
   22    2    1      6.59      0.00
   23    2    1      4.66      0.00
  -23    3    1     -7.33      0.00
  -22    3    1     -6.94      0.00
  -21    3    1      4.53      0.00
  -20    3    1      7.77      0.00
  -19    3    1      7.73      0.00
  -18    3    1      2.42      0.00
  -17    3    1     -9.66      0.00
  -16    3    1    -12.97      0.00
  -15    3    1    -21.39      0.00
  -14    3    1     -5.45      0.00
  -13    3    1     37.79      0.00
  -12    3    1     37.58      0.00
  -11    3    1    -68.34      0.00
  -10    3    1    -61.64      0.00
   -9    3    1    -57.24      0.00
   -8    3    1    -57.37      0.00
   -7    3    1     17.85      0.00
   -6    3    1     16.17      0.00
   -5    3    1     88.49      0.00
   -4    3    1   -171.67      0.00
    4    3    1     10.17      0.00
    5    3    1     81.50      0.00
    6    3    1    127.11      0.00
    7    3    1    -24.35      0.00
    8    3    1    -72.39      0.00
    9    3    1    -41.08      0.00
   10    3    1    -36.36      0.00
   11    3    1     36.14      0.00
   12    3    1    -25.72      0.00
   13    3    1     20.18      0.00
   14    3    1    -19.00      0.00
   15    3    1      3.72      0.00
   16    3    1     18.86      0.00
   17    3    1     14.94      0.00
   18    3    1     18.50      0.00
   19    3    1      9.53      0.00
   20    3    1     13.52      0.00
   21    3    1      3.37      0.00
   22    3    1     -7.61      0.00
   23    3    1      1.05      0.00
  -23    4    1    -12.95      0.00
  -22    4    1     -7.70      0.00
  -21    4    1     -1.47      0.00
  -20    4    1    -14.86      0.00
  -19    4    1     15.38      0.00
  -18    4    1    -11.92      0.00
  -17    4    1    -24.10      0.00
  -16    4    1     -3.70      0.00
  -15    4    1     12.99      0.00
  -14    4    1     -2.70      0.00
  -13    4    1    -21.96      0.00
  -12    4    1      4.68      0.00
  -11    4    1    -12.99      0.00
  -10    4    1    -30.40      0.00
   -9    4    1    -60.49      0.00
   -8    4    1      9.25      0.00
   -7    4    1     27.95      0.00
   -6    4    1    -36.78      0.00
   -5    4    1     18.75      0.00
   -4    4    1     35.81      0.00
   -3    4    1    -30.55      0.00
    3    4    1    -86.22      0.00
    4    4    1   -129.19      0.00
    5    4    1    -47.54      0.00
    6    4    1    -38.61      0.00
    7    4    1     57.53      0.00
    8    4    1    -29.11      0.00
    9    4    1     19.02      0.00
   10    4    1     31.61      0.00
   11    4    1     -7.71      0.00
   12    4    1     26.99      0.00
   13    4    1    -18.15      0.00
   14    4    1     -6.82      0.00
   15    4    1     10.62      0.00
   16    4    1    -13.79      0.00
   17    4    1     -0.72      0.00
   18    4    1    -10.20      0.00
   19    4    1    -11.80      0.00
   20    4    1    -10.91      0.00
   21    4    1      4.87      0.00
   22    4    1     -0.00      0.00
   23    4    1     -8.51      0.00
  -23    5    1     -1.21      0.00
  -22    5    1     -0.31      0.00
  -21    5    1     -1.88      0.00
  -20    5    1     -6.20      0.00
  -19    5    1     -4.05      0.00
  -18    5    1     -5.40      0.00
  -17    5    1      7.64      0.00
  -16    5    1    -10.70      0.00
  -15    5    1     24.77      0.00
  -14    5    1     13.65      0.00
  -13    5    1    -13.09      0.00
  -12    5    1     10.27      0.00
  -11    5    1    -39.64      0.00
  -10    5    1     85.99      0.00
   -9    5    1     63.38      0.00
   -8    5    1    -10.48      0.00
   -7    5    1     30.41      0.00
   -6    5    1    -23.52      0.00
   -5    5    1     -4.98      0.00
   -4    5    1     61.81      0.00
   -3    5    1     43.31      0.00
    3    5    1      2.40      0.00
    4    5    1    156.89      0.00
    5    5    1    -37.84      0.00
    6    5    1    -55.99      0.00
    7    5    1    -19.08      0.00
    8    5    1    -27.08      0.00
    9    5    1     67.26      0.00
   10    5    1     27.00      0.00
   11    5    1      8.52      0.00
   12    5    1    -10.42      0.00
   13    5    1    -19.66      0.00
   14    5    1     -2.58      0.00
   15    5    1      1.08      0.00
   16    5    1    -11.62      0.00
   17    5    1    -14.86      0.00
   18    5    1    -13.78      0.00
   19    5    1      8.46      0.00
   20    5    1     -2.38      0.00
   21    5    1      0.09      0.00
   22    5    1      7.19      0.00
   23    5    1     -3.26      0.00
  -23    6    1      5.90      0.00
  -22    6    1      1.72      0.00
  -21    6    1     10.74      0.00
  -20    6    1      1.74      0.00
  -19    6    1    -15.69      0.00
  -18    6    1    -16.87      0.00
  -17    6    1      7.41      0.00
  -16    6    1     20.51      0.00
  -15    6    1     27.04      0.00
  -14    6    1     35.09      0.00
  -13    6    1     24.98      0.00
  -12    6    1     24.73      0.00
  -11    6    1    -25.09      0.00
  -10    6    1    -16.04      0.00
   -9    6    1      2.95      0.00
   -8    6    1    -23.37      0.00
   -7    6    1     66.63      0.00
   -6    6    1    110.47      0.00
   -5    6    1    -63.87      0.00
   -4    6    1     14.64      0.00
   -3    6    1     70.03      0.00
    3    6    1    -47.17      0.00
    4    6    1     18.92      0.00
    5    6    1    -56.46      0.00
    6    6    1   -125.44      0.00
    7    6    1   -114.50      0.00
    8    6    1    -68.56      0.00
    9    6    1     18.26      0.00
   10    6    1     24.36      0.00
   11    6    1     -7.66      0.00
   12    6    1    -31.32      0.00
   13    6    1     -7.56      0.00
   14    6    1     22.37      0.00
   15    6    1     -7.59      0.00
   16    6    1    -18.36      0.00
   17    6    1    -14.22      0.00
   18    6    1    -14.22      0.00
   19    6    1     10.97      0.00
   20    6    1      7.35      0.00
   21    6    1      1.18      0.00
   22    6    1     -3.06      0.00
   23    6    1     12.17      0.00
  -23    7    1     -4.25      0.00
  -22    7    1      8.12      0.00
  -21    7    1      2.93      0.00
  -20    7    1     -0.93      0.00
  -19    7    1      3.96      0.00
  -18    7    1      3.22      0.00
  -17    7    1     -7.25      0.00
  -16    7    1     13.59      0.00
  -15    7    1     -6.52      0.00
  -14    7    1     13.33      0.00
  -13    7    1      0.67      0.00
  -12    7    1      7.19      0.00
  -11    7    1    -12.90      0.00
  -10    7    1    -34.95      0.00
   -9    7    1    -72.85      0.00
   -8    7    1     61.03      0.00
   -7    7    1   -125.90      0.00
   -6    7    1      9.69      0.00
   -5    7    1     44.42      0.00
   -4    7    1   -168.59      0.00
   -3    7    1    121.44      0.00
   -1    7    1   -129.06      0.00
    2    7    1      5.93      0.00
    3    7    1   -130.00      0.00
    4    7    1     78.10      0.00
    5    7    1     63.37      0.00
    6    7    1    -25.61      0.00
    7    7    1      8.56      0.00
    8    7    1    -17.99      0.00
    9    7    1      8.37      0.00
   10    7    1     -8.34      0.00
   11    7    1     35.68      0.00
   12    7    1      9.74      0.00
   13    7    1     -3.45      0.00
   14    7    1     49.80      0.00
   15    7    1    -16.61      0.00
   16    7    1      5.19      0.00
   17    7    1     -1.00      0.00
   18    7    1     -2.64      0.00
   19    7    1    -11.46      0.00
   20    7    1     -2.88      0.00
   21    7    1     -3.96      0.00
   22    7    1     -7.76      0.00
   23    7    1      4.50      0.00
  -23    8    1      7.38      0.00
  -22    8    1     -6.77      0.00
  -21    8    1     -8.35      0.00
  -20    8    1      7.59      0.00
  -19    8    1     -2.87      0.00
  -18    8    1    -12.50      0.00
  -17    8    1     11.10      0.00
  -16    8    1    -21.16      0.00
  -15    8    1      6.53      0.00
  -14    8    1      1.88      0.00
  -13    8    1     -9.05      0.00
  -12    8    1     37.33      0.00
  -11    8    1     17.77      0.00
  -10    8    1     -6.73      0.00
   -9    8    1    -70.74      0.00
   -8    8    1     34.01      0.00
   -7    8    1    110.57      0.00
   -6    8    1     39.16      0.00
   -5    8    1    102.06      0.00
   -4    8    1     43.70      0.00
   -3    8    1   -108.35      0.00
   -2    8    1     26.88      0.00
   -1    8    1   -141.79      0.00
    2    8    1   -128.53      0.00
    3    8    1    -22.53      0.00
    4    8    1    -49.36      0.00
    5    8    1     16.31      0.00
    6    8    1     79.92      0.00
    7    8    1    -77.63      0.00
    8    8    1     76.79      0.00
    9    8    1     -3.50      0.00
   10    8    1     18.14      0.00
   11    8    1     51.28      0.00
   12    8    1    -11.63      0.00
   13    8    1    -25.88      0.00
   14    8    1    -15.89      0.00
   15    8    1    -23.59      0.00
   16    8    1      0.75      0.00
   17    8    1      2.51      0.00
   18    8    1     31.40      0.00
   19    8    1     -0.91      0.00
   20    8    1     -0.94      0.00
   21    8    1      3.61      0.00
   22    8    1     -4.84      0.00
   23    8    1    -13.04      0.00
  -23    9    1     -0.72      0.00
  -22    9    1     -1.14      0.00
  -21    9    1     12.40      0.00
  -20    9    1    -23.07      0.00
  -19    9    1     10.36      0.00
  -18    9    1      4.60      0.00
  -17    9    1      1.57      0.00
  -16    9    1     16.31      0.00
  -15    9    1     17.23      0.00
  -14    9    1    -51.18      0.00
  -13    9    1      1.47      0.00
  -12    9    1    -21.21      0.00
  -11    9    1     47.31      0.00
  -10    9    1     14.56      0.00
   -9    9    1    -19.43      0.00
   -8    9    1     -8.70      0.00
   -7    9    1     58.73      0.00
   -6    9    1    -50.46      0.00
   -5    9    1     15.80      0.00
   -4    9    1    -71.00      0.00
   -3    9    1     10.83      0.00
   -2    9    1    -12.31      0.00
   -1    9    1    -45.27      0.00
    1    9    1     43.29      0.00
    2    9    1    274.99      0.00
    3    9    1    -48.91      0.00
    4    9    1    -37.20      0.00
    5    9    1     92.68      0.00
    6    9    1    -78.87      0.00
    7    9    1     21.90      0.00
    8    9    1    -11.48      0.00
    9    9    1      3.06      0.00
   10    9    1     -9.83      0.00
   11    9    1    -33.81      0.00
   12    9    1      4.39      0.00
   13    9    1     18.62      0.00
   14    9    1     -9.64      0.00
   15    9    1    -33.80      0.00
   16    9    1      0.36      0.00
   17    9    1      7.29      0.00
   18    9    1     -7.13      0.00
   19    9    1     10.38      0.00
   20    9    1     -8.79      0.00
   21    9    1      3.50      0.00
   22    9    1      0.82      0.00
   23    9    1      1.06      0.00
  -22   10    1      7.75      0.00
  -21   10    1     -9.79      0.00
  -20   10    1      3.77      0.00
  -19   10    1      6.14      0.00
  -18   10    1     11.98      0.00
  -17   10    1      3.09      0.00
  -16   10    1    -14.05      0.00
  -15   10    1     32.07      0.00
  -14   10    1      2.59      0.00
  -13   10    1     17.18      0.00
  -12   10    1     11.09      0.00
  -11   10    1     25.32      0.00
  -10   10    1    -20.75      0.00
   -9   10    1    -12.68      0.00
   -8   10    1     30.49      0.00
   -7   10    1    -21.98      0.00
   -6   10    1    -12.32      0.00
   -5   10    1      3.94      0.00
   -4   10    1    -86.41      0.00
   -3   10    1     37.93      0.00
   -2   10    1   -188.17      0.00
   -1   10    1    -88.34      0.00
    0   10    1    -28.51      0.00
    1   10    1     -1.46      0.00
    2   10    1    103.48      0.00
    3   10    1    180.06      0.00
    4   10    1    -72.58      0.00
    5   10    1     27.42      0.00
    6   10    1     -9.32      0.00
    7   10    1     17.62      0.00
    8   10    1    -19.93      0.00
    9   10    1    -36.73      0.00
   10   10    1     -8.78      0.00
   11   10    1     -4.60      0.00
   12   10    1     10.29      0.00
   13   10    1     53.93      0.00
   14   10    1    -19.70      0.00
   15   10    1    -12.25      0.00
   16   10    1    -23.94      0.00
   17   10    1      0.04      0.00
   18   10    1      1.83      0.00
   19   10    1     -2.42      0.00
   20   10    1      3.89      0.00
   21   10    1      0.84      0.00
   22   10    1     -8.48      0.00
  -22   11    1     -0.79      0.00
  -21   11    1     -6.83      0.00
  -20   11    1     13.84      0.00
  -19   11    1      8.12      0.00
  -18   11    1      4.96      0.00
  -17   11    1    -18.58      0.00
  -16   11    1     -5.77      0.00
  -15   11    1    -13.75      0.00
  -14   11    1     -7.97      0.00
  -13   11    1    -18.04      0.00
  -12   11    1      2.42      0.00
  -11   11    1     13.35      0.00
  -10   11    1      7.02      0.00
   -9   11    1     18.36      0.00
   -8   11    1     43.25      0.00
   -7   11    1     -7.66      0.00
   -6   11    1    -15.49      0.00
   -5   11    1    -14.28      0.00
   -4   11    1    -14.45      0.00
   -3   11    1    -42.27      0.00
   -2   11    1    109.95      0.00
   -1   11    1    -51.70      0.00
    0   11    1    -70.94      0.00
    1   11    1    -37.29      0.00
    2   11    1   -184.95      0.00
    3   11    1     48.76      0.00
    4   11    1     77.54      0.00
    5   11    1      6.22      0.00
    6   11    1    -11.22      0.00
    7   11    1     -2.56      0.00
    8   11    1     79.63      0.00
    9   11    1    -14.02      0.00
   10   11    1     31.77      0.00
   11   11    1    -25.41      0.00
   12   11    1     -5.63      0.00
   13   11    1     16.02      0.00
   14   11    1      7.39      0.00
   15   11    1    -17.31      0.00
   16   11    1    -23.18      0.00
   17   11    1      3.57      0.00
   18   11    1      8.30      0.00
   19   11    1     -1.43      0.00
   20   11    1     12.24      0.00
   21   11    1      2.98      0.00
   22   11    1      2.76      0.00
  -22   12    1      0.33      0.00
  -21   12    1     -2.15      0.00
  -20   12    1     -3.53      0.00
  -19   12    1    -10.91      0.00
  -18   12    1      3.54      0.00
  -17   12    1      3.53      0.00
  -16   12    1     29.71      0.00
  -15   12    1     -9.32      0.00
  -14   12    1     -1.42      0.00
  -13   12    1     -9.19      0.00
  -12   12    1    -14.72      0.00
  -11   12    1     -9.71      0.00
  -10   12    1     -4.13      0.00
   -9   12    1     -0.35      0.00
   -8   12    1    -23.85      0.00
   -7   12    1     -4.13      0.00
   -6   12    1     47.83      0.00
   -5   12    1    -37.46      0.00
   -4   12    1     33.92      0.00
   -3   12    1    135.42      0.00
   -2   12    1   -139.74      0.00
   -1   12    1    -68.71      0.00
    0   12    1    168.16      0.00
    1   12    1   -111.37      0.00
    2   12    1     48.06      0.00
    3   12    1     61.84      0.00
    4   12    1    -22.13      0.00
    5   12    1     -8.10      0.00
    6   12    1    -12.75      0.00
    7   12    1    -11.36      0.00
    8   12    1      4.17      0.00
    9   12    1     -9.90      0.00
   10   12    1     21.48      0.00
   11   12    1    -13.83      0.00
   12   12    1    -41.95      0.00
   13   12    1     -8.42      0.00
   14   12    1      3.75      0.00
   15   12    1      3.76      0.00
   16   12    1     19.13      0.00
   17   12    1     -1.73      0.00
   18   12    1    -10.19      0.00
   19   12    1      6.54      0.00
   20   12    1      3.36      0.00
   21   12    1     -4.40      0.00
   22   12    1     -1.55      0.00
  -22   13    1     -7.46      0.00
  -21   13    1    -13.28      0.00
  -20   13    1      8.29      0.00
  -19   13    1     19.21      0.00
  -18   13    1     12.19      0.00
  -17   13    1      6.99      0.00
  -16   13    1     -0.75      0.00
  -15   13    1     10.32      0.00
  -14   13    1     13.22      0.00
  -13   13    1     -1.90      0.00
  -12   13    1     -1.83      0.00
  -11   13    1     20.60      0.00
  -10   13    1    -56.07      0.00
   -9   13    1     39.82      0.00
   -8   13    1     15.17      0.00
   -7   13    1    -25.07      0.00
   -6   13    1     71.62      0.00
   -5   13    1      9.97      0.00
   -4   13    1     23.75      0.00
   -3   13    1    -12.65      0.00
   -2   13    1    -66.16      0.00
   -1   13    1    -15.05      0.00
    0   13    1     40.20      0.00
    1   13    1      1.76      0.00
    2   13    1   -122.66      0.00
    3   13    1      3.05      0.00
    4   13    1     -0.12      0.00
    5   13    1    -47.05      0.00
    6   13    1     13.42      0.00
    7   13    1     -7.79      0.00
    8   13    1    -40.65      0.00
    9   13    1     -0.11      0.00
   10   13    1      3.96      0.00
   11   13    1     25.78      0.00
   12   13    1     10.41      0.00
   13   13    1    -11.11      0.00
   14   13    1    -36.41      0.00
   15   13    1      8.10      0.00
   16   13    1    -12.39      0.00
   17   13    1     22.33      0.00
   18   13    1      3.76      0.00
   19   13    1     -0.22      0.00
   20   13    1     12.57      0.00
   21   13    1     -4.33      0.00
   22   13    1     -8.17      0.00
  -22   14    1      7.27      0.00
  -21   14    1     10.04      0.00
  -20   14    1      1.14      0.00
  -19   14    1      6.39      0.00
  -18   14    1     -8.39      0.00
  -17   14    1     -1.88      0.00
  -16   14    1     -8.58      0.00
  -15   14    1     -4.92      0.00
  -14   14    1     13.78      0.00
  -13   14    1     -8.09      0.00
  -12   14    1    -11.45      0.00
  -11   14    1     -0.18      0.00
  -10   14    1    -69.77      0.00
   -9   14    1     10.32      0.00
   -8   14    1     24.15      0.00
   -7   14    1     11.00      0.00
   -6   14    1     28.06      0.00
   -5   14    1    -24.29      0.00
   -4   14    1     24.23      0.00
   -3   14    1     65.39      0.00
   -2   14    1     66.60      0.00
   -1   14    1     12.44      0.00
    0   14    1    -29.43      0.00
    1   14    1   -161.05      0.00
    2   14    1    -13.39      0.00
    3   14    1     34.63      0.00
    4   14    1     15.85      0.00
    5   14    1     -2.16      0.00
    6   14    1     14.96      0.00
    7   14    1     -9.34      0.00
    8   14    1     -6.86      0.00
    9   14    1     -5.49      0.00
   10   14    1     32.76      0.00
   11   14    1      2.24      0.00
   12   14    1    -20.09      0.00
   13   14    1    -10.80      0.00
   14   14    1      2.40      0.00
   15   14    1    -12.00      0.00
   16   14    1     33.37      0.00
   17   14    1     -2.14      0.00
   18   14    1      1.14      0.00
   19   14    1      0.36      0.00
   20   14    1    -15.38      0.00
   21   14    1      5.30      0.00
  -21   15    1     -0.91      0.00
  -20   15    1     -5.51      0.00
  -19   15    1    -10.69      0.00
  -18   15    1     -1.17      0.00
  -17   15    1     12.91      0.00
  -16   15    1     11.27      0.00
  -15   15    1      7.12      0.00
  -14   15    1      1.28      0.00
  -13   15    1    -17.00      0.00
  -12   15    1     -4.73      0.00
  -11   15    1     17.73      0.00
  -10   15    1      3.43      0.00
   -9   15    1     26.62      0.00
   -8   15    1     16.81      0.00
   -7   15    1      1.76      0.00
   -6   15    1    -61.12      0.00
   -5   15    1    -16.96      0.00
   -4   15    1     57.21      0.00
   -3   15    1     28.59      0.00
   -2   15    1    -80.27      0.00
   -1   15    1     60.06      0.00
    0   15    1     49.52      0.00
    1   15    1      6.12      0.00
    2   15    1     32.48      0.00
    3   15    1      1.07      0.00
    4   15    1     21.57      0.00
    5   15    1     -6.54      0.00
    6   15    1    -55.18      0.00
    7   15    1     10.07      0.00
    8   15    1    -10.01      0.00
    9   15    1      7.23      0.00
   10   15    1     -3.76      0.00
   11   15    1    -20.11      0.00
   12   15    1    -16.78      0.00
   13   15    1    -17.87      0.00
   14   15    1      4.09      0.00
   15   15    1      0.23      0.00
   16   15    1      7.09      0.00
   17   15    1      6.85      0.00
   18   15    1     14.00      0.00
   19   15    1     -6.76      0.00
   20   15    1      0.99      0.00
   21   15    1      3.77      0.00
  -21   16    1      1.53      0.00
  -20   16    1     -3.03      0.00
  -19   16    1      0.96      0.00
  -18   16    1      4.73      0.00
  -17   16    1    -13.75      0.00
  -16   16    1      1.71      0.00
  -15   16    1     -0.06      0.00
  -14   16    1     22.44      0.00
  -13   16    1      5.84      0.00
  -12   16    1      1.60      0.00
  -11   16    1     -2.35      0.00
  -10   16    1     24.77      0.00
   -9   16    1      1.46      0.00
   -8   16    1     10.83      0.00
   -7   16    1     -4.82      0.00
   -6   16    1     18.90      0.00
   -5   16    1     16.72      0.00
   -4   16    1    -47.22      0.00
   -3   16    1    -21.83      0.00
   -2   16    1    -23.61      0.00
   -1   16    1    -14.25      0.00
    0   16    1    -56.22      0.00
    1   16    1     16.31      0.00
    2   16    1    -11.09      0.00
    3   16    1     51.70      0.00
    4   16    1     16.75      0.00
    5   16    1    -48.77      0.00
    6   16    1    -21.51      0.00
    7   16    1     32.86      0.00
    8   16    1    -16.20      0.00
    9   16    1     18.47      0.00
   10   16    1    -38.56      0.00
   11   16    1    -10.09      0.00
   12   16    1    -12.78      0.00
   13   16    1    -10.39      0.00
   14   16    1      5.74      0.00
   15   16    1      2.02      0.00
   16   16    1     -5.32      0.00
   17   16    1     -5.58      0.00
   18   16    1     -5.32      0.00
   19   16    1     13.71      0.00
   20   16    1      0.29      0.00
   21   16    1     -0.89      0.00
  -21   17    1      5.25      0.00
  -20   17    1     -4.08      0.00
  -19   17    1     -1.86      0.00
  -18   17    1     -0.51      0.00
  -17   17    1     10.25      0.00
  -16   17    1      6.29      0.00
  -15   17    1     -1.68      0.00
  -14   17    1      7.91      0.00
  -13   17    1     -9.35      0.00
  -12   17    1     -7.46      0.00
  -11   17    1    -55.40      0.00
  -10   17    1      6.16      0.00
   -9   17    1     -2.49      0.00
   -8   17    1     15.12      0.00
   -7   17    1    -30.74      0.00
   -6   17    1    -44.81      0.00
   -5   17    1    -41.89      0.00
   -4   17    1     12.71      0.00
   -3   17    1    -34.05      0.00
   -2   17    1    -16.54      0.00
   -1   17    1    -22.19      0.00
    0   17    1      5.03      0.00
    1   17    1    -50.44      0.00
    2   17    1     51.87      0.00
    3   17    1    -80.10      0.00
    4   17    1     -2.81      0.00
    5   17    1    -45.86      0.00
    6   17    1      1.81      0.00
    7   17    1     18.86      0.00
    8   17    1     30.51      0.00
    9   17    1     -4.61      0.00
   10   17    1      3.12      0.00
   11   17    1      8.34      0.00
   12   17    1    -18.61      0.00
   13   17    1     -8.55      0.00
   14   17    1      0.44      0.00
   15   17    1     11.60      0.00
   16   17    1     11.28      0.00
   17   17    1     -4.54      0.00
   18   17    1      6.58      0.00
   19   17    1      4.77      0.00
   20   17    1      2.31      0.00
   21   17    1      5.00      0.00
  -20   18    1    -12.30      0.00
  -19   18    1    -12.32      0.00
  -18   18    1     -4.36      0.00
  -17   18    1    -14.12      0.00
  -16   18    1      0.18      0.00
  -15   18    1     -8.25      0.00
  -14   18    1    -21.52      0.00
  -13   18    1     18.83      0.00
  -12   18    1     -1.56      0.00
  -11   18    1    -11.98      0.00
  -10   18    1     28.88      0.00
   -9   18    1     13.12      0.00
   -8   18    1    -20.15      0.00
   -7   18    1    -16.34      0.00
   -6   18    1     35.15      0.00
   -5   18    1     31.12      0.00
   -4   18    1    -13.75      0.00
   -3   18    1     21.13      0.00
   -2   18    1     20.67      0.00
   -1   18    1     28.33      0.00
    0   18    1      3.19      0.00
    1   18    1      4.42      0.00
    2   18    1     10.38      0.00
    3   18    1     51.17      0.00
    4   18    1     49.54      0.00
    5   18    1    -43.21      0.00
    6   18    1     17.08      0.00
    7   18    1     21.73      0.00
    8   18    1      0.81      0.00
    9   18    1    -11.34      0.00
   10   18    1      8.33      0.00
   11   18    1      1.48      0.00
   12   18    1     16.46      0.00
   13   18    1    -17.56      0.00
   14   18    1    -16.64      0.00
   15   18    1      2.49      0.00
   16   18    1      2.91      0.00
   17   18    1      0.67      0.00
   18   18    1      3.59      0.00
   19   18    1      0.60      0.00
   20   18    1     -1.83      0.00
  -20   19    1      2.53      0.00
  -19   19    1      2.32      0.00
  -18   19    1      2.43      0.00
  -17   19    1     -2.82      0.00
  -16   19    1      6.73      0.00
  -15   19    1      9.01      0.00
  -14   19    1      0.39      0.00
  -13   19    1      4.71      0.00
  -12   19    1      7.46      0.00
  -11   19    1     -7.54      0.00
  -10   19    1    -17.20      0.00
   -9   19    1     12.47      0.00
   -8   19    1     16.65      0.00
   -7   19    1     64.92      0.00
   -6   19    1      0.80      0.00
   -5   19    1     26.39      0.00
   -4   19    1     -5.35      0.00
   -3   19    1     17.32      0.00
   -2   19    1    -31.60      0.00
   -1   19    1     33.03      0.00
    0   19    1    -55.91      0.00
    1   19    1    -59.21      0.00
    2   19    1     -7.73      0.00
    3   19    1      1.69      0.00
    4   19    1    -30.34      0.00
    5   19    1     26.64      0.00
    6   19    1    -26.47      0.00
    7   19    1     43.94      0.00
    8   19    1      3.57      0.00
    9   19    1      6.60      0.00
   10   19    1     -8.44      0.00
   11   19    1     21.22      0.00
   12   19    1     -2.07      0.00
   13   19    1    -11.26      0.00
   14   19    1     -4.61      0.00
   15   19    1      1.45      0.00
   16   19    1      4.84      0.00
   17   19    1    -24.90      0.00
   18   19    1     -5.81      0.00
   19   19    1     -5.13      0.00
   20   19    1     -3.18      0.00
  -19   20    1     -0.32      0.00
  -18   20    1      9.24      0.00
  -17   20    1      7.30      0.00
  -16   20    1    -13.41      0.00
  -15   20    1      9.70      0.00
  -14   20    1     -3.99      0.00
  -13   20    1      2.79      0.00
  -12   20    1    -13.73      0.00
  -11   20    1    -14.29      0.00
  -10   20    1    -16.56      0.00
   -9   20    1     20.22      0.00
   -8   20    1    -27.08      0.00
   -7   20    1     -5.88      0.00
   -6   20    1     -1.49      0.00
   -5   20    1     -1.05      0.00
   -4   20    1     23.29      0.00
   -3   20    1     -6.34      0.00
   -2   20    1     13.59      0.00
   -1   20    1      4.68      0.00
    0   20    1    -23.13      0.00
    1   20    1     -4.72      0.00
    2   20    1    -19.63      0.00
    3   20    1     41.26      0.00
    4   20    1      6.18      0.00
    5   20    1    -43.30      0.00
    6   20    1      8.15      0.00
    7   20    1     10.15      0.00
    8   20    1      8.79      0.00
    9   20    1     -4.35      0.00
   10   20    1    -14.38      0.00
   11   20    1     -6.02      0.00
   12   20    1     -2.95      0.00
   13   20    1     -4.55      0.00
   14   20    1     -0.58      0.00
   15   20    1      1.20      0.00
   16   20    1     -4.84      0.00
   17   20    1      5.47      0.00
   18   20    1     -6.41      0.00
   19   20    1      4.31      0.00
  -19   21    1     -3.02      0.00
  -18   21    1      0.31      0.00
  -17   21    1      5.76      0.00
  -16   21    1    -12.72      0.00
  -15   21    1     10.50      0.00
  -14   21    1    -10.75      0.00
  -13   21    1    -22.42      0.00
  -12   21    1     -6.15      0.00
  -11   21    1     -8.56      0.00
  -10   21    1    -11.75      0.00
   -9   21    1     24.65      0.00
   -8   21    1     11.82      0.00
   -7   21    1    -32.00      0.00
   -6   21    1     -5.04      0.00
   -5   21    1    -19.29      0.00
   -4   21    1      2.80      0.00
   -3   21    1      6.04      0.00
   -2   21    1      5.97      0.00
   -1   21    1     -6.89      0.00
    0   21    1     -3.90      0.00
    1   21    1     -6.43      0.00
    2   21    1    -40.50      0.00
    3   21    1     20.42      0.00
    4   21    1    -37.57      0.00
    5   21    1     -4.50      0.00
    6   21    1     -9.90      0.00
    7   21    1    -37.07      0.00
    8   21    1     -4.32      0.00
    9   21    1      1.24      0.00
   10   21    1     13.87      0.00
   11   21    1    -10.43      0.00
   12   21    1     -7.77      0.00
   13   21    1     -8.40      0.00
   14   21    1     12.92      0.00
   15   21    1     23.51      0.00
   16   21    1      1.95      0.00
   17   21    1      2.19      0.00
   18   21    1     12.01      0.00
   19   21    1      0.56      0.00
  -19   22    1     -0.37      0.00
  -18   22    1     -4.35      0.00
  -17   22    1      4.18      0.00
  -16   22    1      5.33      0.00
  -15   22    1    -22.87      0.00
  -14   22    1      1.75      0.00
  -13   22    1    -15.17      0.00
  -12   22    1     11.42      0.00
  -11   22    1      5.57      0.00
  -10   22    1     22.35      0.00
   -9   22    1     26.67      0.00
   -8   22    1    -16.26      0.00
   -7   22    1    -18.77      0.00
   -6   22    1     -1.26      0.00
   -5   22    1     -6.96      0.00
   -4   22    1     53.19      0.00
   -3   22    1    -30.39      0.00
   -2   22    1      9.39      0.00
   -1   22    1     14.46      0.00
    0   22    1     -6.14      0.00
    1   22    1     22.94      0.00
    2   22    1     16.67      0.00
    3   22    1    -19.49      0.00
    4   22    1      6.88      0.00
    5   22    1      8.93      0.00
    6   22    1     -2.68      0.00
    7   22    1     12.27      0.00
    8   22    1     -3.62      0.00
    9   22    1     17.51      0.00
   10   22    1     -1.72      0.00
   11   22    1    -14.33      0.00
   12   22    1    -12.15      0.00
   13   22    1      5.16      0.00
   14   22    1      7.14      0.00
   15   22    1     14.16      0.00
   16   22    1     16.62      0.00
   17   22    1      5.95      0.00
   18   22    1      1.31      0.00
  -18   23    1      3.76      0.00
  -17   23    1     -7.32      0.00
  -16   23    1      0.07      0.00
  -15   23    1      4.24      0.00
  -14   23    1      1.14      0.00
  -13   23    1      2.55      0.00
  -12   23    1      6.09      0.00
  -11   23    1    -24.45      0.00
  -10   23    1      5.57      0.00
   -9   23    1     22.91      0.00
   -8   23    1      3.56      0.00
   -7   23    1      0.00      0.00
   -6   23    1     23.46      0.00
   -5   23    1    -43.16      0.00
   -4   23    1      8.15      0.00
   -3   23    1    -32.25      0.00
   -2   23    1      3.12      0.00
   -1   23    1    -11.29      0.00
    0   23    1     18.45      0.00
    1   23    1     24.07      0.00
    2   23    1     17.52      0.00
    3   23    1     -2.73      0.00
    4   23    1    -13.47      0.00
    5   23    1    -31.97      0.00
    6   23    1     44.01      0.00
    7   23    1    -29.73      0.00
    8   23    1      1.85      0.00
    9   23    1    -15.01      0.00
   10   23    1     14.46      0.00
   11   23    1      8.07      0.00
   12   23    1     -3.23      0.00
   13   23    1      9.03      0.00
   14   23    1      9.17      0.00
   15   23    1    -10.92      0.00
   16   23    1      4.29      0.00
   17   23    1      8.93      0.00
   18   23    1      2.75      0.00
  -18   24    1     -9.13      0.00
  -17   24    1      3.37      0.00
  -16   24    1      0.46      0.00
  -15   24    1     -4.16      0.00
  -14   24    1     -8.85      0.00
  -13   24    1     -2.48      0.00
  -12   24    1     25.21      0.00
  -11   24    1      9.88      0.00
  -10   24    1      4.90      0.00
   -9   24    1      1.55      0.00
   -8   24    1     -7.34      0.00
   -7   24    1      6.18      0.00
   -6   24    1    -19.97      0.00
   -5   24    1    -14.52      0.00
   -4   24    1    -11.81      0.00
   -3   24    1    -13.64      0.00
   -2   24    1    -26.90      0.00
   -1   24    1     14.23      0.00
    0   24    1      8.91      0.00
    1   24    1    -10.77      0.00
    2   24    1     -2.17      0.00
    3   24    1    -13.97      0.00
    4   24    1     34.07      0.00
    5   24    1      9.99      0.00
    6   24    1     17.09      0.00
    7   24    1      6.82      0.00
    8   24    1    -34.85      0.00
    9   24    1     -9.00      0.00
   10   24    1     10.37      0.00
   11   24    1     -8.81      0.00
   12   24    1     -1.49      0.00
   13   24    1      6.13      0.00
   14   24    1     10.54      0.00
   15   24    1     -3.65      0.00
   16   24    1     12.03      0.00
   17   24    1      8.56      0.00
  -17   25    1     -1.25      0.00
  -16   25    1      6.77      0.00
  -15   25    1     -3.46      0.00
  -14   25    1      2.50      0.00
  -13   25    1     -2.27      0.00
  -12   25    1    -16.99      0.00
  -11   25    1     24.88      0.00
  -10   25    1     -8.00      0.00
   -9   25    1    -11.05      0.00
   -8   25    1    -25.47      0.00
   -7   25    1     14.18      0.00
   -6   25    1      6.15      0.00
   -5   25    1      3.96      0.00
   -4   25    1    -37.58      0.00
   -3   25    1      1.93      0.00
   -2   25    1    -29.32      0.00
   -1   25    1      5.71      0.00
    0   25    1    -26.74      0.00
    1   25    1    -24.28      0.00
    2   25    1     12.76      0.00
    3   25    1     10.63      0.00
    4   25    1    -11.24      0.00
    5   25    1     27.25      0.00
    6   25    1     15.40      0.00
    7   25    1     13.41      0.00
    8   25    1     -4.79      0.00
    9   25    1     13.12      0.00
   10   25    1     -8.85      0.00
   11   25    1     -3.06      0.00
   12   25    1    -19.34      0.00
   13   25    1     10.95      0.00
   14   25    1     -0.28      0.00
   15   25    1     -1.47      0.00
   16   25    1      0.65      0.00
   17   25    1     -0.58      0.00
  -16   26    1      1.85      0.00
  -15   26    1      8.69      0.00
  -14   26    1     -2.31      0.00
  -13   26    1     -9.74      0.00
  -12   26    1     -9.57      0.00
  -11   26    1     10.52      0.00
  -10   26    1      8.67      0.00
   -9   26    1     16.62      0.00
   -8   26    1    -10.77      0.00
   -7   26    1    -15.85      0.00
   -6   26    1    -21.67      0.00
   -5   26    1    -13.25      0.00
   -4   26    1    -10.50      0.00
   -3   26    1     20.18      0.00
   -2   26    1     -6.67      0.00
   -1   26    1      1.40      0.00
    0   26    1     11.39      0.00
    1   26    1     -9.54      0.00
    2   26    1    -33.71      0.00
    3   26    1     42.30      0.00
    4   26    1      3.75      0.00
    5   26    1     -4.07      0.00
    6   26    1      6.18      0.00
    7   26    1     -4.99      0.00
    8   26    1     14.02      0.00
    9   26    1     15.36      0.00
   10   26    1     -3.97      0.00
   11   26    1    -16.07      0.00
   12   26    1     -7.42      0.00
   13   26    1      7.48      0.00
   14   26    1     -5.27      0.00
   15   26    1      7.18      0.00
   16   26    1      7.26      0.00
  -16   27    1     13.85      0.00
  -15   27    1      4.73      0.00
  -14   27    1      1.41      0.00
  -13   27    1     -7.13      0.00
  -12   27    1    -11.10      0.00
  -11   27    1     -9.40      0.00
  -10   27    1     12.69      0.00
   -9   27    1      4.45      0.00
   -8   27    1      7.13      0.00
   -7   27    1     -7.12      0.00
   -6   27    1      8.37      0.00
   -5   27    1     -6.99      0.00
   -4   27    1    -26.69      0.00
   -3   27    1     -5.01      0.00
   -2   27    1     25.14      0.00
   -1   27    1      2.01      0.00
    0   27    1     -2.60      0.00
    1   27    1    -25.42      0.00
    2   27    1     18.46      0.00
    3   27    1     -9.51      0.00
    4   27    1    -21.38      0.00
    5   27    1      8.25      0.00
    6   27    1    -11.57      0.00
    7   27    1     24.77      0.00
    8   27    1     16.11      0.00
    9   27    1     -5.04      0.00
   10   27    1     10.58      0.00
   11   27    1     -3.57      0.00
   12   27    1     -3.24      0.00
   13   27    1      5.22      0.00
   14   27    1      1.62      0.00
   15   27    1      3.15      0.00
   16   27    1      3.15      0.00
  -15   28    1      7.01      0.00
  -14   28    1    -11.12      0.00
  -13   28    1    -12.99      0.00
  -12   28    1      5.20      0.00
  -11   28    1     -2.41      0.00
  -10   28    1     -9.45      0.00
   -9   28    1    -13.78      0.00
   -8   28    1     -2.84      0.00
   -7   28    1     -0.08      0.00
   -6   28    1      9.08      0.00
   -5   28    1    -14.90      0.00
   -4   28    1     -0.07      0.00
   -3   28    1      1.01      0.00
   -2   28    1      2.91      0.00
   -1   28    1    -35.21      0.00
    0   28    1     -0.79      0.00
    1   28    1      9.37      0.00
    2   28    1    -18.40      0.00
    3   28    1     -6.50      0.00
    4   28    1    -23.18      0.00
    5   28    1     23.48      0.00
    6   28    1     30.67      0.00
    7   28    1      3.26      0.00
    8   28    1     14.50      0.00
    9   28    1     -1.61      0.00
   10   28    1      2.67      0.00
   11   28    1      6.86      0.00
   12   28    1      6.33      0.00
   13   28    1     10.50      0.00
   14   28    1     -1.70      0.00
   15   28    1      9.25      0.00
  -14   29    1      4.24      0.00
  -13   29    1      4.86      0.00
  -12   29    1     15.13      0.00
  -11   29    1     -5.23      0.00
  -10   29    1      5.33      0.00
   -9   29    1     -9.42      0.00
   -8   29    1      4.25      0.00
   -7   29    1     14.84      0.00
   -6   29    1      5.82      0.00
   -5   29    1     15.30      0.00
   -4   29    1    -19.90      0.00
   -3   29    1     -5.14      0.00
   -2   29    1     14.75      0.00
   -1   29    1      5.06      0.00
    0   29    1      7.71      0.00
    1   29    1     -2.15      0.00
    2   29    1    -34.62      0.00
    3   29    1     -1.36      0.00
    4   29    1     10.82      0.00
    5   29    1      7.08      0.00
    6   29    1      2.46      0.00
    7   29    1      1.91      0.00
    8   29    1      0.67      0.00
    9   29    1      0.47      0.00
   10   29    1      7.52      0.00
   11   29    1    -11.98      0.00
   12   29    1      5.26      0.00
   13   29    1      0.28      0.00
   14   29    1     -1.94      0.00
  -13   30    1      3.40      0.00
  -12   30    1     -5.96      0.00
  -11   30    1     -7.67      0.00
  -10   30    1     15.84      0.00
   -9   30    1    -14.69      0.00
   -8   30    1      6.18      0.00
   -7   30    1      1.96      0.00
   -6   30    1    -20.86      0.00
   -5   30    1     -6.43      0.00
   -4   30    1      1.90      0.00
   -3   30    1      4.34      0.00
   -2   30    1     11.42      0.00
   -1   30    1    -15.21      0.00
    0   30    1     16.71      0.00
    1   30    1      2.71      0.00
    2   30    1      0.38      0.00
    3   30    1      2.82      0.00
    4   30    1      1.41      0.00
    5   30    1     -4.34      0.00
    6   30    1      6.17      0.00
    7   30    1      0.51      0.00
    8   30    1     -5.64      0.00
    9   30    1      2.27      0.00
   10   30    1      3.54      0.00
   11   30    1    -13.67      0.00
   12   30    1      6.28      0.00
   13   30    1      1.88      0.00
  -12   31    1     -5.27      0.00
  -11   31    1      0.10      0.00
  -10   31    1      3.05      0.00
   -9   31    1      5.42      0.00
   -8   31    1     -0.97      0.00
   -7   31    1      8.93      0.00
   -6   31    1     -2.23      0.00
   -5   31    1      3.27      0.00
   -4   31    1      9.12      0.00
   -3   31    1     -1.87      0.00
   -2   31    1     -4.38      0.00
   -1   31    1      9.12      0.00
    0   31    1     12.55      0.00
    1   31    1    -19.62      0.00
    2   31    1    -14.93      0.00
    3   31    1     -7.85      0.00
    4   31    1      2.20      0.00
    5   31    1     -1.51      0.00
    6   31    1     -1.98      0.00
    7   31    1     -5.82      0.00
    8   31    1     -8.19      0.00
    9   31    1      1.50      0.00
   10   31    1      4.87      0.00
   11   31    1      3.94      0.00
   12   31    1     -6.56      0.00
  -11   32    1     -0.08      0.00
  -10   32    1      6.25      0.00
   -9   32    1     -6.78      0.00
   -8   32    1     -2.72      0.00
   -7   32    1     17.32      0.00
   -6   32    1    -11.01      0.00
   -5   32    1    -10.71      0.00
   -4   32    1    -13.91      0.00
   -3   32    1     13.02      0.00
   -2   32    1     12.38      0.00
   -1   32    1     12.40      0.00
    0   32    1      6.67      0.00
    1   32    1    -11.53      0.00
    2   32    1     11.21      0.00
    3   32    1     -0.77      0.00
    4   32    1    -10.78      0.00
    5   32    1      1.47      0.00
    6   32    1    -12.35      0.00
    7   32    1      6.87      0.00
    8   32    1      1.71      0.00
    9   32    1     -0.81      0.00
   10   32    1      3.95      0.00
   11   32    1     -6.75      0.00
  -10   33    1      1.33      0.00
   -9   33    1     -4.16      0.00
   -8   33    1     -6.61      0.00
   -7   33    1     -3.57      0.00
   -6   33    1      2.09      0.00
   -5   33    1      4.17      0.00
   -4   33    1      8.08      0.00
   -3   33    1      8.36      0.00
   -2   33    1     -6.68      0.00
   -1   33    1    -13.71      0.00
    0   33    1     -6.30      0.00
    1   33    1      8.95      0.00
    2   33    1     22.52      0.00
    3   33    1      1.18      0.00
    4   33    1     -8.27      0.00
    5   33    1    -14.50      0.00
    6   33    1     -5.65      0.00
    7   33    1      3.82      0.00
    8   33    1     11.97      0.00
    9   33    1     -3.92      0.00
   10   33    1     -8.18      0.00
   -8   34    1    -13.36      0.00
   -7   34    1      2.96      0.00
   -6   34    1      6.60      0.00
   -5   34    1    -10.63      0.00
   -4   34    1     -1.15      0.00
   -3   34    1      8.99      0.00
   -2   34    1     -7.41      0.00
   -1   34    1     -3.66      0.00
    0   34    1     -4.42      0.00
    1   34    1     -4.33      0.00
    2   34    1      0.64      0.00
    3   34    1    -11.06      0.00
    4   34    1      0.06      0.00
    5   34    1     14.55      0.00
    6   34    1    -10.81      0.00
    7   34    1     -6.35      0.00
    8   34    1     -3.14      0.00
   -7   35    1     -2.55      0.00
   -6   35    1     -2.52      0.00
   -5   35    1     -8.01      0.00
   -4   35    1      7.02      0.00
   -3   35    1      0.70      0.00
   -2   35    1     15.99      0.00
   -1   35    1     -4.25      0.00
    0   35    1    -14.54      0.00
    1   35    1      4.51      0.00
    2   35    1      5.44      0.00
    3   35    1      4.45      0.00
    4   35    1      6.80      0.00
    5   35    1     -8.15      0.00
    6   35    1      3.66      0.00
    7   35    1     16.01      0.00
   -4   36    1      0.03      0.00
   -3   36    1     11.45      0.00
   -2   36    1     -2.44      0.00
   -1   36    1     -4.22      0.00
    0   36    1     -5.86      0.00
    1   36    1     17.49      0.00
    2   36    1     14.39      0.00
    3   36    1     -5.33      0.00
    4   36    1      5.29      0.00
  -23    0    2    -17.86      0.00
  -22    0    2     15.81      0.00
  -21    0    2    -10.72      0.00
  -20    0    2      3.93      0.00
  -19    0    2     24.73      0.00
  -18    0    2     18.30      0.00
  -17    0    2      7.43      0.00
  -16    0    2    -46.78      0.00
  -15    0    2     -1.41      0.00
  -14    0    2    -11.73      0.00
  -13    0    2     35.83      0.00
  -12    0    2    -27.54      0.00
  -11    0    2    -41.42      0.00
  -10    0    2     71.05      0.00
   -9    0    2   -134.88      0.00
   -8    0    2    271.94      0.00
   -7    0    2    120.84      0.00
   -6    0    2   -163.01      0.00
   -5    0    2    113.01      0.00
   -4    0    2    -49.65      0.00
    4    0    2    104.00      0.00
    5    0    2   -158.65      0.00
    6    0    2    -84.35      0.00
    7    0    2   -160.76      0.00
    8    0    2    -54.14      0.00
    9    0    2     55.23      0.00
   10    0    2    -22.26      0.00
   11    0    2     45.71      0.00
   12    0    2     37.72      0.00
   13    0    2    -97.12      0.00
   14    0    2     11.62      0.00
   15    0    2     19.45      0.00
   16    0    2     -2.80      0.00
   18    0    2     22.00      0.00
   19    0    2      3.39      0.00
   20    0    2     -7.76      0.00
   21    0    2     -6.58      0.00
   22    0    2      4.67      0.00
   23    0    2    -16.14      0.00
  -23    1    2    -13.59      0.00
  -22    1    2      8.59      0.00
  -21    1    2      0.19      0.00
  -20    1    2      6.29      0.00
  -19    1    2     -5.30      0.00
  -18    1    2     -0.69      0.00
  -17    1    2     17.03      0.00
  -16    1    2      1.80      0.00
  -15    1    2     -8.03      0.00
  -14    1    2     25.90      0.00
  -13    1    2     45.43      0.00
  -12    1    2    -99.29      0.00
  -11    1    2    -25.42      0.00
  -10    1    2    116.97      0.00
   -9    1    2     33.64      0.00
   -8    1    2     95.51      0.00
   -7    1    2     21.38      0.00
   -6    1    2    -12.37      0.00
   -5    1    2   -241.64      0.00
   -4    1    2   -197.18      0.00
    4    1    2    171.03      0.00
    5    1    2    172.87      0.00
    6    1    2    104.90      0.00
    7    1    2    -66.65      0.00
    8    1    2     92.74      0.00
    9    1    2    -79.42      0.00
   10    1    2     15.94      0.00
   11    1    2    -52.91      0.00
   12    1    2     23.46      0.00
   13    1    2     43.08      0.00
   14    1    2     15.06      0.00
   15    1    2    -32.90      0.00
   16    1    2      2.16      0.00
   18    1    2     11.82      0.00
   19    1    2      3.22      0.00
   20    1    2     14.05      0.00
   21    1    2    -12.97      0.00
   22    1    2     10.09      0.00
   23    1    2     -7.21      0.00
  -23    2    2     -5.11      0.00
  -22    2    2     -0.83      0.00
  -21    2    2      0.63      0.00
  -20    2    2     15.26      0.00
  -19    2    2     -9.11      0.00
  -18    2    2    -11.17      0.00
  -17    2    2     19.12      0.00
  -16    2    2     19.17      0.00
  -15    2    2      1.46      0.00
  -14    2    2    -34.35      0.00
  -13    2    2     13.41      0.00
  -12    2    2    -28.80      0.00
  -11    2    2   -104.12      0.00
  -10    2    2    -50.14      0.00
   -9    2    2     64.27      0.00
   -8    2    2     -1.50      0.00
   -7    2    2     15.45      0.00
   -6    2    2     -1.76      0.00
   -5    2    2     19.35      0.00
   -4    2    2   -302.58      0.00
   -3    2    2   -124.30      0.00
    3    2    2    -63.15      0.00
    4    2    2     15.89      0.00
    5    2    2     79.38      0.00
    6    2    2     40.50      0.00
    7    2    2    102.76      0.00
    8    2    2    -14.61      0.00
    9    2    2     66.33      0.00
   10    2    2      1.49      0.00
   11    2    2    -39.72      0.00
   12    2    2    -56.50      0.00
   13    2    2     12.67      0.00
   14    2    2     34.95      0.00
   15    2    2     11.54      0.00
   16    2    2     13.85      0.00
   17    2    2      4.16      0.00
   18    2    2     -9.23      0.00
   19    2    2    -13.92      0.00
   20    2    2     11.97      0.00
   21    2    2      5.67      0.00
   22    2    2     -8.79      0.00
   23    2    2     -1.26      0.00
  -23    3    2      3.78      0.00
  -22    3    2      0.28      0.00
  -21    3    2    -20.89      0.00
  -20    3    2      7.04      0.00
  -19    3    2      7.83      0.00
  -18    3    2     -3.99      0.00
  -17    3    2    -16.17      0.00
  -16    3    2     15.90      0.00
  -15    3    2      6.75      0.00
  -14    3    2    -21.31      0.00
  -13    3    2     26.12      0.00
  -12    3    2    -10.02      0.00
  -11    3    2     34.62      0.00
  -10    3    2     -9.20      0.00
   -9    3    2    -26.87      0.00
   -8    3    2     64.42      0.00
   -7    3    2    -80.95      0.00
   -6    3    2    -23.97      0.00
   -5    3    2    176.70      0.00
   -4    3    2   -112.28      0.00
   -3    3    2     75.64      0.00
    3    3    2    128.80      0.00
    4    3    2   -116.55      0.00
    5    3    2     85.88      0.00
    6    3    2      4.63      0.00
    7    3    2     45.98      0.00
    8    3    2     68.55      0.00
    9    3    2    -11.88      0.00
   10    3    2     -0.62      0.00
   11    3    2     24.30      0.00
   12    3    2    -64.94      0.00
   13    3    2     29.09      0.00
   14    3    2    -38.00      0.00
   15    3    2     15.27      0.00
   16    3    2    -27.48      0.00
   17    3    2    -10.77      0.00
   18    3    2      3.33      0.00
   19    3    2    -16.96      0.00
   20    3    2      4.01      0.00
   21    3    2      3.93      0.00
   22    3    2      1.31      0.00
   23    3    2     -4.19      0.00
  -23    4    2      3.05      0.00
  -22    4    2     -2.68      0.00
  -21    4    2      6.16      0.00
  -20    4    2     -8.46      0.00
  -19    4    2     -1.49      0.00
  -18    4    2     22.33      0.00
  -17    4    2     -3.39      0.00
  -16    4    2      9.24      0.00
  -15    4    2     12.51      0.00
  -14    4    2      8.01      0.00
  -13    4    2      0.64      0.00
  -12    4    2     12.80      0.00
  -11    4    2     19.74      0.00
  -10    4    2    -51.15      0.00
   -9    4    2     -4.51      0.00
   -8    4    2    -25.92      0.00
   -7    4    2     18.92      0.00
   -6    4    2     53.74      0.00
   -5    4    2    -73.26      0.00
   -4    4    2    217.23      0.00
   -3    4    2    -93.14      0.00
    2    4    2    104.89      0.00
    3    4    2     20.53      0.00
    4    4    2     26.32      0.00
    5    4    2      1.05      0.00
    6    4    2    -35.14      0.00
    7    4    2    -18.63      0.00
    8    4    2     32.98      0.00
    9    4    2    -51.21      0.00
   10    4    2    -42.19      0.00
   11    4    2    -11.42      0.00
   12    4    2      5.08      0.00
   13    4    2     33.77      0.00
   14    4    2    -19.85      0.00
   15    4    2    -35.05      0.00
   16    4    2     -3.74      0.00
   17    4    2     -4.76      0.00
   18    4    2      5.13      0.00
   19    4    2      3.39      0.00
   20    4    2     -5.87      0.00
   21    4    2     -3.08      0.00
   22    4    2      4.54      0.00
   23    4    2      5.02      0.00
  -23    5    2      8.14      0.00
  -22    5    2     -2.84      0.00
  -21    5    2      0.70      0.00
  -20    5    2      9.60      0.00
  -19    5    2      7.43      0.00
  -18    5    2     18.04      0.00
  -17    5    2     13.38      0.00
  -16    5    2      5.61      0.00
  -15    5    2    -13.50      0.00
  -14    5    2    -19.29      0.00
  -13    5    2    -41.63      0.00
  -12    5    2      4.89      0.00
  -11    5    2    -24.39      0.00
  -10    5    2    -31.24      0.00
   -9    5    2     -1.10      0.00
   -8    5    2    -27.95      0.00
   -7    5    2     -9.28      0.00
   -6    5    2     63.68      0.00
   -5    5    2     88.17      0.00
   -4    5    2    123.24      0.00
   -3    5    2    261.48      0.00
   -2    5    2    314.87      0.00
    2    5    2   -171.51      0.00
    3    5    2   -269.77      0.00
    4    5    2   -155.49      0.00
    5    5    2   -112.53      0.00
    6    5    2     14.24      0.00
    7    5    2    -27.93      0.00
    8    5    2    -33.93      0.00
    9    5    2      9.58      0.00
   10    5    2    -33.63      0.00
   11    5    2      7.22      0.00
   12    5    2      4.08      0.00
   13    5    2    -11.18      0.00
   14    5    2     30.38      0.00
   15    5    2     22.64      0.00
   16    5    2     -5.88      0.00
   17    5    2     -3.68      0.00
   18    5    2      1.69      0.00
   19    5    2     -4.39      0.00
   20    5    2      5.94      0.00
   21    5    2     -1.49      0.00
   22    5    2     -4.62      0.00
   23    5    2     10.73      0.00
  -23    6    2      1.80      0.00
  -22    6    2     -3.97      0.00
  -21    6    2      6.90      0.00
  -20    6    2     -2.90      0.00
  -19    6    2     -6.02      0.00
  -18    6    2      2.34      0.00
  -17    6    2    -24.95      0.00
  -16    6    2     -8.09      0.00
  -15    6    2    -11.56      0.00
  -14    6    2     24.52      0.00
  -13    6    2    -35.51      0.00
  -12    6    2      0.31      0.00
  -11    6    2      2.12      0.00
  -10    6    2    -43.94      0.00
   -9    6    2      6.24      0.00
   -8    6    2     31.31      0.00
   -7    6    2     20.53      0.00
   -6    6    2     26.09      0.00
   -5    6    2    -22.10      0.00
   -4    6    2    154.34      0.00
   -3    6    2    -56.55      0.00
   -2    6    2    -18.76      0.00
    1    6    2    -17.44      0.00
    2    6    2     43.87      0.00
    3    6    2    -71.20      0.00
    4    6    2    -64.85      0.00
    5    6    2     26.88      0.00
    6    6    2    -79.25      0.00
    7    6    2     17.55      0.00
    8    6    2     42.19      0.00
    9    6    2      9.93      0.00
   10    6    2     23.29      0.00
   11    6    2    -22.04      0.00
   12    6    2     -6.99      0.00
   13    6    2    -38.43      0.00
   14    6    2      0.13      0.00
   15    6    2      6.35      0.00
   16    6    2      2.31      0.00
   17    6    2     12.09      0.00
   18    6    2     -7.59      0.00
   19    6    2      4.18      0.00
   20    6    2     -4.29      0.00
   21    6    2     -1.51      0.00
   22    6    2      0.27      0.00
   23    6    2     -6.51      0.00
  -23    7    2     -4.99      0.00
  -22    7    2     -4.87      0.00
  -21    7    2     -2.61      0.00
  -20    7    2      9.95      0.00
  -19    7    2      2.74      0.00
  -18    7    2     -8.65      0.00
  -17    7    2     -7.41      0.00
  -16    7    2      3.46      0.00
  -15    7    2     -4.71      0.00
  -14    7    2     49.30      0.00
  -13    7    2     -8.62      0.00
  -12    7    2     -2.99      0.00
  -11    7    2    -25.51      0.00
  -10    7    2    -21.37      0.00
   -9    7    2     67.42      0.00
   -8    7    2     35.84      0.00
   -7    7    2    -51.18      0.00
   -6    7    2     69.31      0.00
   -5    7    2    -51.95      0.00
   -4    7    2      7.95      0.00
   -3    7    2    -17.78      0.00
   -2    7    2    150.62      0.00
    1    7    2     34.94      0.00
    2    7    2     94.74      0.00
    3    7    2   -129.71      0.00
    4    7    2    -44.77      0.00
    5    7    2    -78.73      0.00
    6    7    2     99.22      0.00
    7    7    2    -58.32      0.00
    8    7    2      4.11      0.00
    9    7    2    -25.47      0.00
   10    7    2    -35.43      0.00
   11    7    2      4.82      0.00
   12    7    2     -9.64      0.00
   13    7    2    -38.63      0.00
   14    7    2    -15.09      0.00
   15    7    2    -24.34      0.00
   16    7    2     16.53      0.00
   17    7    2     -5.74      0.00
   18    7    2      1.74      0.00
   19    7    2     23.11      0.00
   20    7    2      1.31      0.00
   21    7    2     -2.35      0.00
   22    7    2     -7.93      0.00
   23    7    2     -5.57      0.00
  -23    8    2      4.16      0.00
  -22    8    2     -2.95      0.00
  -21    8    2     -6.60      0.00
  -20    8    2      8.45      0.00
  -19    8    2      4.80      0.00
  -18    8    2     -5.49      0.00
  -17    8    2     -7.33      0.00
  -16    8    2      9.20      0.00
  -15    8    2     -0.64      0.00
  -14    8    2    -30.00      0.00
  -13    8    2     13.54      0.00
  -12    8    2    -17.70      0.00
  -11    8    2     29.33      0.00
  -10    8    2    -25.11      0.00
   -9    8    2     66.73      0.00
   -8    8    2      0.57      0.00
   -7    8    2    -52.92      0.00
   -6    8    2    -55.81      0.00
   -5    8    2     52.78      0.00
   -4    8    2     -5.04      0.00
   -3    8    2     76.42      0.00
   -2    8    2     35.81      0.00
   -1    8    2     53.67      0.00
    1    8    2     85.43      0.00
    2    8    2    -27.00      0.00
    3    8    2     -4.14      0.00
    4    8    2     44.78      0.00
    5    8    2     -6.41      0.00
    6    8    2    -48.13      0.00
    7    8    2     -7.30      0.00
    8    8    2    -33.23      0.00
    9    8    2     41.95      0.00
   10    8    2     31.92      0.00
   11    8    2     10.27      0.00
   12    8    2     19.90      0.00
   13    8    2      2.13      0.00
   14    8    2     19.75      0.00
   15    8    2     -8.64      0.00
   16    8    2    -14.14      0.00
   17    8    2     16.41      0.00
   18    8    2      1.46      0.00
   19    8    2      4.61      0.00
   20    8    2      0.18      0.00
   21    8    2      2.95      0.00
   22    8    2      0.96      0.00
   23    8    2     -5.47      0.00
  -23    9    2      2.26      0.00
  -22    9    2     -0.25      0.00
  -21    9    2      9.27      0.00
  -20    9    2    -13.58      0.00
  -19    9    2     -4.83      0.00
  -18    9    2      0.27      0.00
  -17    9    2     -1.03      0.00
  -16    9    2     21.15      0.00
  -15    9    2      0.96      0.00
  -14    9    2    -13.01      0.00
  -13    9    2    -24.37      0.00
  -12    9    2    -52.30      0.00
  -11    9    2     15.47      0.00
  -10    9    2     23.66      0.00
   -9    9    2     50.59      0.00
   -8    9    2     30.39      0.00
   -7    9    2    -22.86      0.00
   -6    9    2   -115.98      0.00
   -5    9    2     46.90      0.00
   -4    9    2   -130.85      0.00
   -3    9    2    -55.61      0.00
   -2    9    2   -124.15      0.00
   -1    9    2    189.55      0.00
    0    9    2    194.25      0.00
    1    9    2     51.68      0.00
    2    9    2    -92.19      0.00
    3    9    2     54.06      0.00
    4    9    2     73.86      0.00
    5    9    2     79.94      0.00
    6    9    2    -14.30      0.00
    7    9    2     37.23      0.00
    8    9    2      2.88      0.00
    9    9    2     16.04      0.00
   10    9    2    -33.69      0.00
   11    9    2     15.13      0.00
   12    9    2    -29.29      0.00
   13    9    2     14.39      0.00
   14    9    2     24.83      0.00
   15    9    2     -8.80      0.00
   16    9    2    -30.67      0.00
   17    9    2      8.37      0.00
   18    9    2    -13.41      0.00
   19    9    2      3.98      0.00
   20    9    2     14.17      0.00
   21    9    2     -0.82      0.00
   22    9    2     -4.95      0.00
  -22   10    2     -2.23      0.00
  -21   10    2      5.41      0.00
  -20   10    2     -7.22      0.00
  -19   10    2      3.20      0.00
  -18   10    2      9.19      0.00
  -17   10    2     -9.01      0.00
  -16   10    2    -11.82      0.00
  -15   10    2    -12.07      0.00
  -14   10    2     22.06      0.00
  -13   10    2     -0.90      0.00
  -12   10    2     10.48      0.00
  -11   10    2     -1.63      0.00
  -10   10    2     -7.94      0.00
   -9   10    2    -13.30      0.00
   -8   10    2     39.74      0.00
   -7   10    2     20.18      0.00
   -6   10    2     59.51      0.00
   -5   10    2     47.08      0.00
   -4   10    2     -8.73      0.00
   -3   10    2     14.59      0.00
   -2   10    2   -107.57      0.00
   -1   10    2   -117.82      0.00
    0   10    2    150.05      0.00
    1   10    2     96.93      0.00
    2   10    2      0.81      0.00
    3   10    2    -98.77      0.00
    4   10    2    -79.86      0.00
    5   10    2    -46.88      0.00
    6   10    2     34.59      0.00
    7   10    2     33.28      0.00
    8   10    2     29.49      0.00
    9   10    2    -17.33      0.00
   10   10    2    -43.06      0.00
   11   10    2    -30.64      0.00
   12   10    2     28.36      0.00
   13   10    2     13.18      0.00
   14   10    2    -32.61      0.00
   15   10    2     -6.75      0.00
   16   10    2    -30.24      0.00
   17   10    2    -13.22      0.00
   18   10    2     23.76      0.00
   19   10    2      0.40      0.00
   20   10    2     -0.36      0.00
   21   10    2      3.62      0.00
   22   10    2      1.14      0.00
  -22   11    2     -3.82      0.00
  -21   11    2      0.91      0.00
  -20   11    2      2.22      0.00
  -19   11    2     -1.01      0.00
  -18   11    2     10.26      0.00
  -17   11    2     17.87      0.00
  -16   11    2     22.90      0.00
  -15   11    2     -2.32      0.00
  -14   11    2    -10.96      0.00
  -13   11    2     10.54      0.00
  -12   11    2    -28.75      0.00
  -11   11    2    -20.07      0.00
  -10   11    2    -19.34      0.00
   -9   11    2    -20.87      0.00
   -8   11    2    -13.19      0.00
   -7   11    2      0.79      0.00
   -6   11    2     -5.37      0.00
   -5   11    2      0.61      0.00
   -4   11    2     56.14      0.00
   -3   11    2   -102.55      0.00
   -2   11    2    120.42      0.00
   -1   11    2    103.18      0.00
    0   11    2    -86.06      0.00
    1   11    2    150.55      0.00
    2   11    2   -107.92      0.00
    3   11    2   -136.68      0.00
    4   11    2      0.48      0.00
    5   11    2    -20.94      0.00
    6   11    2    -53.03      0.00
    7   11    2      2.63      0.00
    8   11    2    -35.29      0.00
    9   11    2      7.19      0.00
   10   11    2     48.41      0.00
   11   11    2    -16.29      0.00
   12   11    2      2.59      0.00
   13   11    2     19.33      0.00
   14   11    2     12.94      0.00
   15   11    2     -1.17      0.00
   16   11    2      5.01      0.00
   17   11    2      3.93      0.00
   18   11    2     -5.04      0.00
   19   11    2     -6.16      0.00
   20   11    2     -3.78      0.00
   21   11    2     -2.19      0.00
   22   11    2      2.72      0.00
  -22   12    2      4.99      0.00
  -21   12    2     12.32      0.00
  -20   12    2      0.64      0.00
  -19   12    2     -5.31      0.00
  -18   12    2     -5.79      0.00
  -17   12    2      9.57      0.00
  -16   12    2     -6.80      0.00
  -15   12    2      2.86      0.00
  -14   12    2    -24.67      0.00
  -13   12    2    -20.63      0.00
  -12   12    2     21.63      0.00
  -11   12    2    -11.89      0.00
  -10   12    2     40.83      0.00
   -9   12    2    -47.44      0.00
   -8   12    2    -50.22      0.00
   -7   12    2    -23.92      0.00
   -6   12    2     -1.17      0.00
   -5   12    2    -11.83      0.00
   -4   12    2    -14.91      0.00
   -3   12    2    -38.91      0.00
   -2   12    2     -2.65      0.00
   -1   12    2    -27.58      0.00
    0   12    2   -129.32      0.00
    1   12    2    -68.26      0.00
    2   12    2    153.29      0.00
    3   12    2     42.00      0.00
    4   12    2    -52.12      0.00
    5   12    2     15.74      0.00
    6   12    2      5.49      0.00
    7   12    2     19.76      0.00
    8   12    2     67.88      0.00
    9   12    2     -6.95      0.00
   10   12    2      5.19      0.00
   11   12    2    -25.72      0.00
   12   12    2    -15.93      0.00
   13   12    2     16.59      0.00
   14   12    2      6.50      0.00
   15   12    2     12.35      0.00
   16   12    2     -5.39      0.00
   17   12    2     21.71      0.00
   18   12    2     12.70      0.00
   19   12    2    -11.97      0.00
   20   12    2      2.17      0.00
   21   12    2     -0.78      0.00
   22   12    2      0.46      0.00
  -22   13    2      2.15      0.00
  -21   13    2     -7.70      0.00
  -20   13    2      6.01      0.00
  -19   13    2      4.10      0.00
  -18   13    2     -3.86      0.00
  -17   13    2    -11.02      0.00
  -16   13    2      0.73      0.00
  -15   13    2      6.70      0.00
  -14   13    2    -16.45      0.00
  -13   13    2     -9.06      0.00
  -12   13    2      1.49      0.00
  -11   13    2    -29.61      0.00
  -10   13    2     21.51      0.00
   -9   13    2     21.34      0.00
   -8   13    2     22.91      0.00
   -7   13    2    -10.20      0.00
   -6   13    2    -38.65      0.00
   -5   13    2     20.05      0.00
   -4   13    2      9.42      0.00
   -3   13    2    -34.31      0.00
   -2   13    2    120.25      0.00
   -1   13    2    -61.20      0.00
    0   13    2    -25.09      0.00
    1   13    2    131.89      0.00
    2   13    2     89.80      0.00
    3   13    2    -58.11      0.00
    4   13    2     81.20      0.00
    5   13    2    -49.20      0.00
    6   13    2     78.00      0.00
    7   13    2     38.99      0.00
    8   13    2    -22.92      0.00
    9   13    2     -2.74      0.00
   10   13    2    -13.52      0.00
   11   13    2     20.50      0.00
   12   13    2     12.46      0.00
   13   13    2    -13.28      0.00
   14   13    2     -1.21      0.00
   15   13    2    -14.79      0.00
   16   13    2    -18.90      0.00
   17   13    2    -20.71      0.00
   18   13    2     10.82      0.00
   19   13    2     -3.72      0.00
   20   13    2     -6.24      0.00
   21   13    2     -1.10      0.00
   22   13    2     -5.33      0.00
  -21   14    2      3.99      0.00
  -20   14    2      1.31      0.00
  -19   14    2      5.13      0.00
  -18   14    2     -2.58      0.00
  -17   14    2    -11.61      0.00
  -16   14    2     -1.36      0.00
  -15   14    2     17.64      0.00
  -14   14    2      0.39      0.00
  -13   14    2     18.02      0.00
  -12   14    2      3.65      0.00
  -11   14    2      8.90      0.00
  -10   14    2     32.31      0.00
   -9   14    2    -13.68      0.00
   -8   14    2     32.28      0.00
   -7   14    2    -15.63      0.00
   -6   14    2      0.14      0.00
   -5   14    2     66.81      0.00
   -4   14    2    -60.91      0.00
   -3   14    2      6.83      0.00
   -2   14    2     76.53      0.00
   -1   14    2      3.99      0.00
    0   14    2    -90.94      0.00
    1   14    2    -50.58      0.00
    2   14    2    -20.93      0.00
    3   14    2     53.32      0.00
    4   14    2    -26.74      0.00
    5   14    2     -4.39      0.00
    6   14    2    -55.91      0.00
    7   14    2    -24.28      0.00
    8   14    2    -15.47      0.00
    9   14    2    -29.03      0.00
   10   14    2    -11.72      0.00
   11   14    2     23.15      0.00
   12   14    2     13.77      0.00
   13   14    2      9.82      0.00
   14   14    2     -8.78      0.00
   15   14    2     -6.67      0.00
   16   14    2     18.19      0.00
   17   14    2      1.92      0.00
   18   14    2      8.47      0.00
   19   14    2      3.28      0.00
   20   14    2     -5.26      0.00
   21   14    2     -3.05      0.00
  -21   15    2      3.86      0.00
  -20   15    2    -15.11      0.00
  -19   15    2      0.70      0.00
  -18   15    2     12.83      0.00
  -17   15    2      4.22      0.00
  -16   15    2    -16.03      0.00
  -15   15    2     15.91      0.00
  -14   15    2    -30.59      0.00
  -13   15    2    -18.10      0.00
  -12   15    2     35.34      0.00
  -11   15    2     29.20      0.00
  -10   15    2     35.28      0.00
   -9   15    2      7.00      0.00
   -8   15    2    -19.50      0.00
   -7   15    2     22.31      0.00
   -6   15    2    -10.36      0.00
   -5   15    2     -6.40      0.00
   -4   15    2    -29.00      0.00
   -3   15    2     13.99      0.00
   -2   15    2    -29.98      0.00
   -1   15    2    -72.61      0.00
    0   15    2     53.42      0.00
    1   15    2    -30.97      0.00
    2   15    2    -67.41      0.00
    3   15    2     55.27      0.00
    4   15    2    -39.29      0.00
    5   15    2     15.86      0.00
    6   15    2     30.32      0.00
    7   15    2     -7.29      0.00
    8   15    2    -24.47      0.00
    9   15    2     -6.96      0.00
   10   15    2    -14.50      0.00
   11   15    2    -10.53      0.00
   12   15    2      4.26      0.00
   13   15    2     -8.76      0.00
   14   15    2     -1.61      0.00
   15   15    2      6.03      0.00
   16   15    2      6.77      0.00
   17   15    2      9.16      0.00
   18   15    2    -12.69      0.00
   19   15    2     -7.60      0.00
   20   15    2     17.98      0.00
   21   15    2      5.59      0.00
  -21   16    2      4.39      0.00
  -20   16    2     -2.12      0.00
  -19   16    2     -5.01      0.00
  -18   16    2     10.99      0.00
  -17   16    2     16.14      0.00
  -16   16    2    -11.13      0.00
  -15   16    2    -33.92      0.00
  -14   16    2      7.51      0.00
  -13   16    2     -3.73      0.00
  -12   16    2    -22.11      0.00
  -11   16    2     22.09      0.00
  -10   16    2     21.67      0.00
   -9   16    2      0.37      0.00
   -8   16    2    -25.07      0.00
   -7   16    2     11.74      0.00
   -6   16    2      6.06      0.00
   -5   16    2     -2.46      0.00
   -4   16    2     23.53      0.00
   -3   16    2    -18.98      0.00
   -2   16    2    -22.65      0.00
   -1   16    2     24.73      0.00
    0   16    2    -29.20      0.00
    1   16    2      6.42      0.00
    2   16    2     -0.98      0.00
    3   16    2    -58.73      0.00
    4   16    2     56.03      0.00
    5   16    2     28.94      0.00
    6   16    2      2.89      0.00
    7   16    2     10.59      0.00
    8   16    2    -10.02      0.00
    9   16    2      2.52      0.00
   10   16    2     10.88      0.00
   11   16    2     20.06      0.00
   12   16    2     -2.98      0.00
   13   16    2     -8.60      0.00
   14   16    2     -0.10      0.00
   15   16    2      3.31      0.00
   16   16    2      8.36      0.00
   17   16    2     -2.94      0.00
   18   16    2     11.19      0.00
   19   16    2      0.77      0.00
   20   16    2     -7.87      0.00
   21   16    2      5.89      0.00
  -21   17    2     -0.68      0.00
  -20   17    2     -2.67      0.00
  -19   17    2     -3.10      0.00
  -18   17    2      2.07      0.00
  -17   17    2      4.66      0.00
  -16   17    2     16.28      0.00
  -15   17    2      0.86      0.00
  -14   17    2     17.60      0.00
  -13   17    2     -4.58      0.00
  -12   17    2      0.07      0.00
  -11   17    2    -14.19      0.00
  -10   17    2     20.71      0.00
   -9   17    2     30.68      0.00
   -8   17    2     21.46      0.00
   -7   17    2     26.20      0.00
   -6   17    2     43.70      0.00
   -5   17    2    -26.52      0.00
   -4   17    2    -40.51      0.00
   -3   17    2     -3.96      0.00
   -2   17    2     43.01      0.00
   -1   17    2     42.65      0.00
    0   17    2     -1.14      0.00
    1   17    2     39.87      0.00
    2   17    2     27.46      0.00
    3   17    2      7.17      0.00
    4   17    2    -25.25      0.00
    5   17    2      7.44      0.00
    6   17    2     -6.58      0.00
    7   17    2     -3.57      0.00
    8   17    2     -4.89      0.00
    9   17    2    -11.20      0.00
   10   17    2      1.26      0.00
   11   17    2      7.02      0.00
   12   17    2     -2.87      0.00
   13   17    2     -0.19      0.00
   14   17    2     -3.39      0.00
   15   17    2      4.34      0.00
   16   17    2     -8.95      0.00
   17   17    2      6.22      0.00
   18   17    2     -8.92      0.00
   19   17    2      2.81      0.00
   20   17    2     -7.10      0.00
  -20   18    2      1.15      0.00
  -19   18    2     -0.50      0.00
  -18   18    2     -3.44      0.00
  -17   18    2      8.96      0.00
  -16   18    2      7.21      0.00
  -15   18    2    -31.60      0.00
  -14   18    2      8.67      0.00
  -13   18    2      3.72      0.00
  -12   18    2      2.33      0.00
  -11   18    2      9.81      0.00
  -10   18    2    -16.70      0.00
   -9   18    2      4.51      0.00
   -8   18    2    -27.59      0.00
   -7   18    2    -17.60      0.00
   -6   18    2     15.14      0.00
   -5   18    2      4.79      0.00
   -4   18    2     46.95      0.00
   -3   18    2    -34.35      0.00
   -2   18    2      8.01      0.00
   -1   18    2    -91.48      0.00
    0   18    2    -43.29      0.00
    1   18    2    -23.87      0.00
    2   18    2    -76.38      0.00
    3   18    2     -0.54      0.00
    4   18    2     29.96      0.00
    5   18    2     26.63      0.00
    6   18    2     12.83      0.00
    7   18    2    -48.17      0.00
    8   18    2      0.76      0.00
    9   18    2      3.58      0.00
   10   18    2     -2.80      0.00
   11   18    2      1.56      0.00
   12   18    2      3.37      0.00
   13   18    2     -8.18      0.00
   14   18    2     -0.03      0.00
   15   18    2     -3.97      0.00
   16   18    2     -5.76      0.00
   17   18    2     -2.38      0.00
   18   18    2     -5.42      0.00
   19   18    2     18.18      0.00
   20   18    2      0.12      0.00
  -20   19    2     -8.23      0.00
  -19   19    2      5.34      0.00
  -18   19    2     -1.30      0.00
  -17   19    2      6.17      0.00
  -16   19    2     10.24      0.00
  -15   19    2      5.33      0.00
  -14   19    2    -12.06      0.00
  -13   19    2      9.56      0.00
  -12   19    2    -32.23      0.00
  -11   19    2     15.52      0.00
  -10   19    2    -18.50      0.00
   -9   19    2     12.61      0.00
   -8   19    2    -16.45      0.00
   -7   19    2    -41.41      0.00
   -6   19    2     -5.47      0.00
   -5   19    2    -11.63      0.00
   -4   19    2     -2.29      0.00
   -3   19    2     12.75      0.00
   -2   19    2    -41.17      0.00
   -1   19    2    -15.72      0.00
    0   19    2    -34.19      0.00
    1   19    2     43.19      0.00
    2   19    2      7.29      0.00
    3   19    2    -51.34      0.00
    4   19    2     40.51      0.00
    5   19    2    -23.60      0.00
    6   19    2     -2.68      0.00
    7   19    2     31.66      0.00
    8   19    2    -10.93      0.00
    9   19    2      0.19      0.00
   10   19    2      4.79      0.00
   11   19    2    -15.07      0.00
   12   19    2     -1.49      0.00
   13   19    2      2.18      0.00
   14   19    2     29.60      0.00
   15   19    2     -9.41      0.00
   16   19    2     -9.44      0.00
   17   19    2      5.90      0.00
   18   19    2      1.98      0.00
   19   19    2     -2.24      0.00
   20   19    2      6.22      0.00
  -19   20    2    -10.13      0.00
  -18   20    2     -4.04      0.00
  -17   20    2     -3.02      0.00
  -16   20    2    -15.11      0.00
  -15   20    2      3.28      0.00
  -14   20    2    -10.26      0.00
  -13   20    2     -4.09      0.00
  -12   20    2      3.77      0.00
  -11   20    2      5.21      0.00
  -10   20    2     -6.33      0.00
   -9   20    2      4.19      0.00
   -8   20    2      1.90      0.00
   -7   20    2     21.84      0.00
   -6   20    2     -3.45      0.00
   -5   20    2      7.83      0.00
   -4   20    2    -29.03      0.00
   -3   20    2     65.77      0.00
   -2   20    2     12.52      0.00
   -1   20    2    -54.43      0.00
    0   20    2     -9.58      0.00
    1   20    2    -22.74      0.00
    2   20    2    -36.30      0.00
    3   20    2     42.77      0.00
    4   20    2    -35.27      0.00
    5   20    2     13.57      0.00
    6   20    2     17.80      0.00
    7   20    2     11.12      0.00
    8   20    2     13.71      0.00
    9   20    2    -14.86      0.00
   10   20    2    -13.04      0.00
   11   20    2     10.84      0.00
   12   20    2     -3.34      0.00
   13   20    2    -18.55      0.00
   14   20    2     -1.48      0.00
   15   20    2     -2.32      0.00
   16   20    2    -17.16      0.00
   17   20    2      1.07      0.00
   18   20    2     -8.73      0.00
   19   20    2      4.06      0.00
  -19   21    2      5.40      0.00
  -18   21    2     10.33      0.00
  -17   21    2      0.65      0.00
  -16   21    2    -11.98      0.00
  -15   21    2    -12.86      0.00
  -14   21    2     21.32      0.00
  -13   21    2      8.02      0.00
  -12   21    2     -1.23      0.00
  -11   21    2     33.12      0.00
  -10   21    2     -3.48      0.00
   -9   21    2    -53.84      0.00
   -8   21    2     21.49      0.00
   -7   21    2     -4.98      0.00
   -6   21    2     27.19      0.00
   -5   21    2    -15.49      0.00
   -4   21    2    -35.73      0.00
   -3   21    2     32.99      0.00
   -2   21    2    -29.70      0.00
   -1   21    2    -27.25      0.00
    0   21    2     30.04      0.00
    1   21    2    -67.13      0.00
    2   21    2     33.28      0.00
    3   21    2     -3.79      0.00
    4   21    2    -15.26      0.00
    5   21    2     12.90      0.00
    6   21    2    -23.64      0.00
    7   21    2      1.61      0.00
    8   21    2    -13.57      0.00
    9   21    2     -1.53      0.00
   10   21    2     28.22      0.00
   11   21    2      2.66      0.00
   12   21    2      2.73      0.00
   13   21    2      6.63      0.00
   14   21    2     -8.55      0.00
   15   21    2      8.24      0.00
   16   21    2     -2.32      0.00
   17   21    2     13.51      0.00
   18   21    2      4.22      0.00
   19   21    2      8.97      0.00
  -18   22    2     -0.91      0.00
  -17   22    2      6.04      0.00
  -16   22    2     -0.63      0.00
  -15   22    2    -12.61      0.00
  -14   22    2    -22.41      0.00
  -13   22    2      0.93      0.00
  -12   22    2     22.03      0.00
  -11   22    2     10.97      0.00
  -10   22    2     15.02      0.00
   -9   22    2    -33.92      0.00
   -8   22    2     11.28      0.00
   -7   22    2    -17.60      0.00
   -6   22    2      0.81      0.00
   -5   22    2      4.32      0.00
   -4   22    2    -21.45      0.00
   -3   22    2     24.22      0.00
   -2   22    2    -19.91      0.00
   -1   22    2    -22.06      0.00
    0   22    2      0.96      0.00
    1   22    2    -35.88      0.00
    2   22    2      7.55      0.00
    3   22    2      0.94      0.00
    4   22    2     34.08      0.00
    5   22    2     -1.77      0.00
    6   22    2    -11.87      0.00
    7   22    2    -22.32      0.00
    8   22    2      5.18      0.00
    9   22    2      4.85      0.00
   10   22    2     14.41      0.00
   11   22    2     -4.17      0.00
   12   22    2     -7.80      0.00
   13   22    2      7.85      0.00
   14   22    2     20.04      0.00
   15   22    2    -10.79      0.00
   16   22    2      0.87      0.00
   17   22    2     -0.52      0.00
   18   22    2     -6.85      0.00
  -18   23    2     -2.52      0.00
  -17   23    2      6.51      0.00
  -16   23    2      0.08      0.00
  -15   23    2     -7.58      0.00
  -14   23    2     -1.51      0.00
  -13   23    2    -14.04      0.00
  -12   23    2     15.89      0.00
  -11   23    2     -5.12      0.00
  -10   23    2    -13.73      0.00
   -9   23    2      6.99      0.00
   -8   23    2     18.30      0.00
   -7   23    2     -6.16      0.00
   -6   23    2      3.86      0.00
   -5   23    2     13.25      0.00
   -4   23    2     18.06      0.00
   -3   23    2     35.43      0.00
   -2   23    2     11.24      0.00
   -1   23    2    -17.89      0.00
    0   23    2      2.99      0.00
    1   23    2     10.49      0.00
    2   23    2     16.33      0.00
    3   23    2     24.98      0.00
    4   23    2     -8.74      0.00
    5   23    2     -4.32      0.00
    6   23    2    -19.08      0.00
    7   23    2      0.45      0.00
    8   23    2      3.96      0.00
    9   23    2    -20.05      0.00
   10   23    2    -18.19      0.00
   11   23    2     -0.47      0.00
   12   23    2     16.74      0.00
   13   23    2      4.19      0.00
   14   23    2     15.97      0.00
   15   23    2      0.98      0.00
   16   23    2     -0.97      0.00
   17   23    2      0.20      0.00
   18   23    2     -6.08      0.00
  -17   24    2      3.01      0.00
  -16   24    2      8.65      0.00
  -15   24    2     -0.84      0.00
  -14   24    2     -6.80      0.00
  -13   24    2    -11.84      0.00
  -12   24    2     -2.86      0.00
  -11   24    2     14.73      0.00
  -10   24    2    -11.07      0.00
   -9   24    2     20.61      0.00
   -8   24    2     -1.02      0.00
   -7   24    2    -35.50      0.00
   -6   24    2     -4.62      0.00
   -5   24    2     -7.24      0.00
   -4   24    2     25.72      0.00
   -3   24    2     28.83      0.00
   -2   24    2    -11.93      0.00
   -1   24    2     10.41      0.00
    0   24    2      3.72      0.00
    1   24    2    -16.39      0.00
    2   24    2      6.43      0.00
    3   24    2     -6.61      0.00
    4   24    2    -10.94      0.00
    5   24    2    -10.47      0.00
    6   24    2     -5.73      0.00
    7   24    2      0.87      0.00
    8   24    2    -15.76      0.00
    9   24    2     -0.75      0.00
   10   24    2    -11.95      0.00
   11   24    2    -11.68      0.00
   12   24    2    -15.54      0.00
   13   24    2     -5.24      0.00
   14   24    2      3.85      0.00
   15   24    2     -7.46      0.00
   16   24    2     -6.89      0.00
   17   24    2      3.05      0.00
  -17   25    2      2.55      0.00
  -16   25    2     -1.08      0.00
  -15   25    2     -4.70      0.00
  -14   25    2      8.18      0.00
  -13   25    2     13.78      0.00
  -12   25    2     -0.88      0.00
  -11   25    2      9.21      0.00
  -10   25    2    -11.14      0.00
   -9   25    2     -2.23      0.00
   -8   25    2     -4.18      0.00
   -7   25    2      3.81      0.00
   -6   25    2      7.43      0.00
   -5   25    2     -4.97      0.00
   -4   25    2    -15.83      0.00
   -3   25    2    -10.02      0.00
   -2   25    2    -24.50      0.00
   -1   25    2     16.17      0.00
    0   25    2    -13.39      0.00
    1   25    2     -2.48      0.00
    2   25    2      8.14      0.00
    3   25    2      3.65      0.00
    4   25    2     36.95      0.00
    5   25    2    -11.35      0.00
    6   25    2    -31.67      0.00
    7   25    2     15.49      0.00
    8   25    2     10.27      0.00
    9   25    2    -14.18      0.00
   10   25    2     13.60      0.00
   11   25    2      8.95      0.00
   12   25    2     -6.32      0.00
   13   25    2      8.47      0.00
   14   25    2     -0.07      0.00
   15   25    2     -2.92      0.00
   16   25    2     16.06      0.00
   17   25    2     -8.99      0.00
  -16   26    2     -8.25      0.00
  -15   26    2      1.94      0.00
  -14   26    2     -3.96      0.00
  -13   26    2      4.74      0.00
  -12   26    2      3.07      0.00
  -11   26    2     19.46      0.00
  -10   26    2    -10.97      0.00
   -9   26    2      0.43      0.00
   -8   26    2      3.60      0.00
   -7   26    2     10.27      0.00
   -6   26    2     -6.20      0.00
   -5   26    2    -10.86      0.00
   -4   26    2      7.58      0.00
   -3   26    2     -8.93      0.00
   -2   26    2    -19.09      0.00
   -1   26    2      6.00      0.00
    0   26    2      0.43      0.00
    1   26    2     -6.31      0.00
    2   26    2    -30.90      0.00
    3   26    2     22.24      0.00
    4   26    2      9.42      0.00
    5   26    2      3.05      0.00
    6   26    2     11.42      0.00
    7   26    2    -14.76      0.00
    8   26    2     10.95      0.00
    9   26    2     10.44      0.00
   10   26    2     -5.54      0.00
   11   26    2     22.42      0.00
   12   26    2     -1.16      0.00
   13   26    2      2.22      0.00
   14   26    2     10.37      0.00
   15   26    2     -0.92      0.00
   16   26    2     -2.92      0.00
  -16   27    2     -0.69      0.00
  -15   27    2    -12.84      0.00
  -14   27    2     -8.51      0.00
  -13   27    2     10.63      0.00
  -12   27    2      7.58      0.00
  -11   27    2     -5.67      0.00
  -10   27    2     -4.82      0.00
   -9   27    2    -13.99      0.00
   -8   27    2     -7.05      0.00
   -7   27    2     -2.55      0.00
   -6   27    2     -8.37      0.00
   -5   27    2     -5.55      0.00
   -4   27    2     -1.03      0.00
   -3   27    2    -16.56      0.00
   -2   27    2    -45.10      0.00
   -1   27    2     15.13      0.00
    0   27    2      7.90      0.00
    1   27    2      2.59      0.00
    2   27    2     17.89      0.00
    3   27    2     37.13      0.00
    4   27    2     19.77      0.00
    5   27    2      5.05      0.00
    6   27    2      0.94      0.00
    7   27    2     10.64      0.00
    8   27    2     -5.31      0.00
    9   27    2     11.78      0.00
   10   27    2      9.25      0.00
   11   27    2      6.95      0.00
   12   27    2      4.03      0.00
   13   27    2      7.86      0.00
   14   27    2    -15.74      0.00
   15   27    2     -2.15      0.00
  -15   28    2     -8.39      0.00
  -14   28    2      2.12      0.00
  -13   28    2    -10.50      0.00
  -12   28    2     17.27      0.00
  -11   28    2     -5.67      0.00
  -10   28    2      4.28      0.00
   -9   28    2      6.94      0.00
   -8   28    2     21.42      0.00
   -7   28    2      7.20      0.00
   -6   28    2     -2.11      0.00
   -5   28    2    -21.08      0.00
   -4   28    2    -10.73      0.00
   -3   28    2      2.14      0.00
   -2   28    2     34.99      0.00
   -1   28    2     -8.87      0.00
    0   28    2    -29.95      0.00
    1   28    2     -6.09      0.00
    2   28    2      8.95      0.00
    3   28    2     13.77      0.00
    4   28    2     12.87      0.00
    5   28    2    -10.96      0.00
    6   28    2    -10.94      0.00
    7   28    2     -1.07      0.00
    8   28    2     -3.13      0.00
    9   28    2      9.20      0.00
   10   28    2      4.31      0.00
   11   28    2      6.71      0.00
   12   28    2      7.68      0.00
   13   28    2     -1.81      0.00
   14   28    2     -3.61      0.00
   15   28    2     -3.80      0.00
  -14   29    2     -0.14      0.00
  -13   29    2     -4.81      0.00
  -12   29    2      9.55      0.00
  -11   29    2     -9.25      0.00
  -10   29    2    -17.60      0.00
   -9   29    2      8.32      0.00
   -8   29    2      2.31      0.00
   -7   29    2     -7.70      0.00
   -6   29    2     -4.17      0.00
   -5   29    2      2.20      0.00
   -4   29    2     -2.00      0.00
   -3   29    2    -23.36      0.00
   -2   29    2     28.42      0.00
   -1   29    2    -27.27      0.00
    0   29    2    -21.62      0.00
    1   29    2     15.11      0.00
    2   29    2     -2.52      0.00
    3   29    2      9.44      0.00
    4   29    2      8.98      0.00
    5   29    2    -12.99      0.00
    6   29    2     16.98      0.00
    7   29    2      3.32      0.00
    8   29    2      9.62      0.00
    9   29    2      4.06      0.00
   10   29    2      5.08      0.00
   11   29    2     11.76      0.00
   12   29    2     -1.50      0.00
   13   29    2      4.47      0.00
   14   29    2      8.59      0.00
  -13   30    2     10.13      0.00
  -12   30    2      7.13      0.00
  -11   30    2     15.39      0.00
  -10   30    2      9.26      0.00
   -9   30    2    -14.38      0.00
   -8   30    2    -13.05      0.00
   -7   30    2     15.75      0.00
   -6   30    2     -2.94      0.00
   -5   30    2    -16.92      0.00
   -4   30    2      2.66      0.00
   -3   30    2     -7.28      0.00
   -2   30    2    -14.34      0.00
   -1   30    2     -8.30      0.00
    0   30    2     25.07      0.00
    1   30    2     33.06      0.00
    2   30    2      9.48      0.00
    3   30    2    -14.47      0.00
    4   30    2     -3.61      0.00
    5   30    2     -0.93      0.00
    6   30    2     10.30      0.00
    7   30    2     28.17      0.00
    8   30    2     12.36      0.00
    9   30    2    -22.50      0.00
   10   30    2     -3.38      0.00
   11   30    2     10.05      0.00
   12   30    2     -3.03      0.00
   13   30    2      0.21      0.00
  -12   31    2     10.39      0.00
  -11   31    2     -2.56      0.00
  -10   31    2     -1.05      0.00
   -9   31    2     14.29      0.00
   -8   31    2    -13.09      0.00
   -7   31    2     20.14      0.00
   -6   31    2      3.85      0.00
   -5   31    2     -5.30      0.00
   -4   31    2     16.78      0.00
   -3   31    2    -13.88      0.00
   -2   31    2      5.05      0.00
   -1   31    2    -18.00      0.00
    0   31    2    -12.77      0.00
    1   31    2     21.28      0.00
    2   31    2      6.48      0.00
    3   31    2    -15.25      0.00
    4   31    2      6.71      0.00
    5   31    2     -8.99      0.00
    6   31    2     10.18      0.00
    7   31    2    -12.75      0.00
    8   31    2      6.82      0.00
    9   31    2     -5.23      0.00
   10   31    2    -13.35      0.00
   11   31    2      6.38      0.00
   12   31    2      1.00      0.00
  -11   32    2     -4.70      0.00
  -10   32    2     -1.70      0.00
   -9   32    2     -0.41      0.00
   -8   32    2     -6.62      0.00
   -7   32    2     -2.34      0.00
   -6   32    2    -13.73      0.00
   -5   32    2     -3.41      0.00
   -4   32    2    -13.59      0.00
   -3   32    2      6.29      0.00
   -2   32    2      8.52      0.00
   -1   32    2    -10.87      0.00
    0   32    2    -13.60      0.00
    1   32    2     26.35      0.00
    2   32    2    -25.29      0.00
    3   32    2      4.69      0.00
    4   32    2     18.55      0.00
    5   32    2     -7.32      0.00
    6   32    2      7.72      0.00
    7   32    2     -2.02      0.00
    8   32    2     -6.02      0.00
    9   32    2      0.15      0.00
   10   32    2      3.66      0.00
   11   32    2     -5.68      0.00
  -10   33    2      5.12      0.00
   -9   33    2     -2.72      0.00
   -8   33    2      3.85      0.00
   -7   33    2     -8.15      0.00
   -6   33    2      1.15      0.00
   -5   33    2     10.07      0.00
   -4   33    2     -4.77      0.00
   -3   33    2      3.43      0.00
   -2   33    2    -11.85      0.00
   -1   33    2     11.26      0.00
    0   33    2      2.54      0.00
    1   33    2      9.53      0.00
    2   33    2     -3.52      0.00
    3   33    2     12.41      0.00
    4   33    2    -20.68      0.00
    5   33    2     -0.25      0.00
    6   33    2      2.05      0.00
    7   33    2      1.90      0.00
    8   33    2      3.61      0.00
    9   33    2      3.88      0.00
   10   33    2      0.41      0.00
   -8   34    2      7.93      0.00
   -7   34    2     -4.59      0.00
   -6   34    2     10.71      0.00
   -5   34    2      5.12      0.00
   -4   34    2      6.74      0.00
   -3   34    2     -1.82      0.00
   -2   34    2      6.22      0.00
   -1   34    2      5.83      0.00
    0   34    2     -7.00      0.00
    1   34    2    -15.16      0.00
    2   34    2     13.65      0.00
    3   34    2      2.79      0.00
    4   34    2     -3.08      0.00
    5   34    2     -0.73      0.00
    6   34    2     -9.57      0.00
    7   34    2     -5.70      0.00
    8   34    2     -0.74      0.00
   -6   35    2      1.03      0.00
   -5   35    2      7.03      0.00
   -4   35    2     -2.70      0.00
   -3   35    2      0.03      0.00
   -2   35    2     -2.97      0.00
   -1   35    2     -6.31      0.00
    0   35    2      2.37      0.00
    1   35    2     -9.29      0.00
    2   35    2     -3.85      0.00
    3   35    2     -9.79      0.00
    4   35    2     -7.38      0.00
    5   35    2      2.55      0.00
    6   35    2     -9.50      0.00
   -4   36    2     -9.22      0.00
   -3   36    2     -2.34      0.00
   -2   36    2      1.31      0.00
   -1   36    2      9.33      0.00
    0   36    2      6.15      0.00
    1   36    2     -7.14      0.00
    2   36    2     -2.03      0.00
    3   36    2     -8.18      0.00
  -23    1    3      3.78      0.00
  -22    1    3      8.15      0.00
  -21    1    3      9.32      0.00
  -20    1    3    -10.47      0.00
  -19    1    3      1.61      0.00
  -18    1    3     -3.73      0.00
  -17    1    3     16.06      0.00
  -16    1    3    -12.40      0.00
  -15    1    3    -60.89      0.00
  -14    1    3     12.15      0.00
  -13    1    3    -58.10      0.00
  -12    1    3     16.81      0.00
  -11    1    3    105.16      0.00
  -10    1    3    -11.15      0.00
   -9    1    3     33.94      0.00
   -8    1    3   -127.14      0.00
   -7    1    3     15.94      0.00
   -6    1    3     -3.27      0.00
   -5    1    3    -27.57      0.00
   -4    1    3    148.09      0.00
   -3    1    3     82.22      0.00
   -2    1    3     27.29      0.00
    2    1    3      5.24      0.00
    3    1    3     -1.40      0.00
    4    1    3    -82.04      0.00
    5    1    3    161.42      0.00
    6    1    3    -49.79      0.00
    7    1    3    -52.88      0.00
    8    1    3     -0.23      0.00
    9    1    3    -87.19      0.00
   10    1    3     36.61      0.00
   11    1    3    -23.92      0.00
   12    1    3      3.21      0.00
   13    1    3     28.81      0.00
   14    1    3     -2.03      0.00
   15    1    3     19.99      0.00
   16    1    3      5.34      0.00
   17    1    3      8.67      0.00
   20    1    3     -5.91      0.00
   21    1    3     -7.16      0.00
   22    1    3      2.72      0.00
   23    1    3      3.02      0.00
  -23    2    3     17.02      0.00
  -22    2    3     -0.21      0.00
  -21    2    3     -2.51      0.00
  -20    2    3    -11.74      0.00
  -19    2    3      5.00      0.00
  -18    2    3     -2.35      0.00
  -17    2    3      7.70      0.00
  -16    2    3     -1.77      0.00
  -15    2    3    -16.67      0.00
  -14    2    3     -8.83      0.00
  -13    2    3     25.25      0.00
  -12    2    3     47.72      0.00
  -11    2    3     -2.13      0.00
  -10    2    3    -50.39      0.00
   -9    2    3    -47.00      0.00
   -8    2    3      9.39      0.00
   -7    2    3      2.02      0.00
   -6    2    3     87.11      0.00
   -5    2    3   -105.91      0.00
   -4    2    3   -156.13      0.00
   -3    2    3    130.24      0.00
   -2    2    3   -138.33      0.00
    2    2    3     59.19      0.00
    3    2    3    -18.05      0.00
    4    2    3     36.96      0.00
    5    2    3     67.22      0.00
    6    2    3     10.07      0.00
    7    2    3    -67.53      0.00
    8    2    3    -87.32      0.00
    9    2    3     14.53      0.00
   10    2    3    -17.50      0.00
   11    2    3     47.90      0.00
   12    2    3     42.57      0.00
   13    2    3    -44.75      0.00
   14    2    3     16.05      0.00
   15    2    3     24.06      0.00
   16    2    3     23.15      0.00
   17    2    3      4.30      0.00
   18    2    3      3.40      0.00
   19    2    3    -12.53      0.00
   20    2    3     -2.20      0.00
   21    2    3      6.98      0.00
   22    2    3    -11.20      0.00
   23    2    3      0.90      0.00
  -23    3    3     -8.23      0.00
  -22    3    3     -5.84      0.00
  -21    3    3     -3.71      0.00
  -20    3    3     10.44      0.00
  -19    3    3     13.87      0.00
  -18    3    3    -25.61      0.00
  -17    3    3      4.99      0.00
  -16    3    3    -12.38      0.00
  -15    3    3    -12.47      0.00
  -14    3    3     -9.48      0.00
  -13    3    3    -36.02      0.00
  -12    3    3     39.55      0.00
  -11    3    3    -24.62      0.00
  -10    3    3     -0.89      0.00
   -9    3    3    -53.99      0.00
   -8    3    3    -99.38      0.00
   -7    3    3   -132.02      0.00
   -6    3    3     52.08      0.00
   -5    3    3     78.08      0.00
   -4    3    3      9.05      0.00
   -3    3    3      8.53      0.00
   -2    3    3    -12.47      0.00
    2    3    3    168.01      0.00
    3    3    3    -25.87      0.00
    4    3    3    -88.54      0.00
    5    3    3    -34.51      0.00
    6    3    3     23.87      0.00
    7    3    3     13.43      0.00
    8    3    3     12.90      0.00
    9    3    3     27.70      0.00
   10    3    3    -33.10      0.00
   11    3    3     -0.51      0.00
   12    3    3     45.00      0.00
   13    3    3     25.17      0.00
   14    3    3     -0.11      0.00
   15    3    3      7.57      0.00
   16    3    3     -9.14      0.00
   17    3    3     -8.62      0.00
   18    3    3    -14.87      0.00
   19    3    3     -2.27      0.00
   20    3    3      3.76      0.00
   21    3    3    -11.81      0.00
   22    3    3      1.01      0.00
   23    3    3     -8.69      0.00
  -23    4    3     -0.84      0.00
  -22    4    3      8.71      0.00
  -21    4    3    -17.57      0.00
  -20    4    3     -1.18      0.00
  -19    4    3     15.45      0.00
  -18    4    3     -4.02      0.00
  -17    4    3    -18.58      0.00
  -16    4    3     -5.36      0.00
  -15    4    3     30.49      0.00
  -14    4    3     -7.84      0.00
  -13    4    3    -27.73      0.00
  -12    4    3     49.67      0.00
  -11    4    3    -51.56      0.00
  -10    4    3     -8.52      0.00
   -9    4    3     20.69      0.00
   -8    4    3      1.33      0.00
   -7    4    3     98.07      0.00
   -6    4    3     31.15      0.00
   -5    4    3     30.56      0.00
   -4    4    3     23.15      0.00
   -3    4    3   -198.88      0.00
   -2    4    3     38.22      0.00
   -1    4    3     13.69      0.00
    2    4    3    -65.48      0.00
    3    4    3     14.88      0.00
    4    4    3    -11.31      0.00
    5    4    3    -51.11      0.00
    6    4    3     64.43      0.00
    7    4    3     30.08      0.00
    8    4    3    -42.58      0.00
    9    4    3     28.30      0.00
   10    4    3     -6.70      0.00
   11    4    3     36.22      0.00
   12    4    3    -25.99      0.00
   13    4    3    -37.84      0.00
   14    4    3     18.80      0.00
   15    4    3    -41.70      0.00
   16    4    3    -37.04      0.00
   17    4    3      2.50      0.00
   18    4    3     -9.10      0.00
   19    4    3      6.51      0.00
   20    4    3    -12.64      0.00
   21    4    3     13.31      0.00
   22    4    3     -5.98      0.00
   23    4    3     -7.38      0.00
  -23    5    3      2.96      0.00
  -22    5    3     -0.08      0.00
  -21    5    3     14.83      0.00
  -20    5    3     -5.40      0.00
  -19    5    3      2.65      0.00
  -18    5    3     20.87      0.00
  -17    5    3     -3.36      0.00
  -16    5    3    -19.15      0.00
  -15    5    3     33.92      0.00
  -14    5    3     10.07      0.00
  -13    5    3     30.80      0.00
  -12    5    3      2.88      0.00
  -11    5    3     15.82      0.00
  -10    5    3     54.82      0.00
   -9    5    3      2.07      0.00
   -8    5    3     61.54      0.00
   -7    5    3    -40.97      0.00
   -6    5    3     33.23      0.00
   -5    5    3    -64.46      0.00
   -4    5    3    -13.03      0.00
   -3    5    3    -48.90      0.00
   -2    5    3   -220.46      0.00
   -1    5    3    -44.61      0.00
    0    5    3     51.24      0.00
    1    5    3   -211.72      0.00
    2    5    3     -7.11      0.00
    3    5    3    -96.58      0.00
    4    5    3    179.73      0.00
    5    5    3     36.80      0.00
    6    5    3    -33.10      0.00
    7    5    3    -18.65      0.00
    8    5    3     -8.68      0.00
    9    5    3     11.40      0.00
   10    5    3     -1.69      0.00
   11    5    3    -24.01      0.00
   12    5    3     -2.79      0.00
   13    5    3      1.89      0.00
   14    5    3     11.09      0.00
   15    5    3     28.74      0.00
   16    5    3      3.10      0.00
   17    5    3      4.29      0.00
   18    5    3      5.16      0.00
   19    5    3    -11.20      0.00
   20    5    3     -8.24      0.00
   21    5    3      5.83      0.00
   22    5    3     -1.42      0.00
   23    5    3      5.19      0.00
  -23    6    3     -7.03      0.00
  -22    6    3     -0.59      0.00
  -21    6    3     14.60      0.00
  -20    6    3     13.73      0.00
  -19    6    3     -9.58      0.00
  -18    6    3     16.04      0.00
  -17    6    3     26.46      0.00
  -16    6    3    -33.47      0.00
  -15    6    3      2.70      0.00
  -14    6    3     -3.74      0.00
  -13    6    3     15.43      0.00
  -12    6    3    -18.45      0.00
  -11    6    3    -13.15      0.00
  -10    6    3    -49.75      0.00
   -9    6    3    -48.68      0.00
   -8    6    3    -87.39      0.00
   -7    6    3     90.00      0.00
   -6    6    3     64.78      0.00
   -5    6    3    110.66      0.00
   -4    6    3    -39.29      0.00
   -3    6    3    -69.94      0.00
   -2    6    3    201.57      0.00
   -1    6    3    -46.35      0.00
    0    6    3   -111.03      0.00
    1    6    3    131.49      0.00
    2    6    3    105.09      0.00
    3    6    3    -97.65      0.00
    4    6    3   -109.59      0.00
    5    6    3     92.99      0.00
    6    6    3     -5.33      0.00
    7    6    3    -59.53      0.00
    8    6    3     -7.42      0.00
    9    6    3     12.21      0.00
   10    6    3     18.48      0.00
   11    6    3     12.86      0.00
   12    6    3    -11.95      0.00
   13    6    3    -13.38      0.00
   14    6    3     14.29      0.00
   15    6    3      0.86      0.00
   16    6    3     -6.26      0.00
   17    6    3     -7.81      0.00
   18    6    3     12.44      0.00
   19    6    3      7.31      0.00
   20    6    3     -2.08      0.00
   21    6    3    -16.80      0.00
   22    6    3     -9.72      0.00
   23    6    3     -2.96      0.00
  -23    7    3     10.81      0.00
  -22    7    3     -6.87      0.00
  -21    7    3    -18.07      0.00
  -20    7    3     10.78      0.00
  -19    7    3     -9.94      0.00
  -18    7    3     10.66      0.00
  -17    7    3     -5.60      0.00
  -16    7    3     20.38      0.00
  -15    7    3    -43.96      0.00
  -14    7    3    -72.10      0.00
  -13    7    3     42.36      0.00
  -12    7    3     44.57      0.00
  -11    7    3      9.91      0.00
  -10    7    3     37.93      0.00
   -9    7    3    -55.53      0.00
   -8    7    3     60.28      0.00
   -7    7    3      0.49      0.00
   -6    7    3    -20.75      0.00
   -5    7    3    116.40      0.00
   -4    7    3     48.37      0.00
   -3    7    3      4.05      0.00
   -2    7    3    -52.90      0.00
   -1    7    3     59.50      0.00
    0    7    3     25.00      0.00
    1    7    3     73.06      0.00
    2    7    3   -131.76      0.00
    3    7    3     67.50      0.00
    4    7    3    -29.10      0.00
    5    7    3     24.18      0.00
    6    7    3    104.15      0.00
    7    7    3     -2.40      0.00
    8    7    3    -21.74      0.00
    9    7    3      9.28      0.00
   10    7    3    -46.33      0.00
   11    7    3     39.74      0.00
   12    7    3     40.95      0.00
   13    7    3      9.39      0.00
   14    7    3    -34.69      0.00
   15    7    3    -27.95      0.00
   16    7    3     -6.68      0.00
   17    7    3      4.88      0.00
   18    7    3     11.75      0.00
   19    7    3      4.63      0.00
   20    7    3     -1.10      0.00
   21    7    3     -4.07      0.00
   22    7    3     -9.88      0.00
   23    7    3      4.73      0.00
  -23    8    3    -10.59      0.00
  -22    8    3     -1.72      0.00
  -21    8    3     -7.58      0.00
  -20    8    3    -11.85      0.00
  -19    8    3     10.46      0.00
  -18    8    3     -5.25      0.00
  -17    8    3    -26.19      0.00
  -16    8    3      2.31      0.00
  -15    8    3     32.75      0.00
  -14    8    3      9.30      0.00
  -13    8    3    -23.13      0.00
  -12    8    3      8.54      0.00
  -11    8    3     11.69      0.00
  -10    8    3      0.69      0.00
   -9    8    3    -31.70      0.00
   -8    8    3     38.72      0.00
   -7    8    3     28.73      0.00
   -6    8    3    101.09      0.00
   -5    8    3     37.42      0.00
   -4    8    3     38.37      0.00
   -3    8    3    -47.05      0.00
   -2    8    3     18.66      0.00
   -1    8    3    144.74      0.00
    0    8    3     51.90      0.00
    1    8    3    -92.93      0.00
    2    8    3    -13.20      0.00
    3    8    3   -103.14      0.00
    4    8    3    112.35      0.00
    5    8    3    -23.36      0.00
    6    8    3    -51.48      0.00
    7    8    3    -12.93      0.00
    8    8    3    -10.67      0.00
    9    8    3    -33.02      0.00
   10    8    3     16.87      0.00
   11    8    3    -43.48      0.00
   12    8    3     16.05      0.00
   13    8    3    -17.79      0.00
   14    8    3    -11.31      0.00
   15    8    3      1.89      0.00
   16    8    3    -15.44      0.00
   17    8    3      4.59      0.00
   18    8    3     19.57      0.00
   19    8    3    -24.19      0.00
   20    8    3      1.87      0.00
   21    8    3     -3.37      0.00
   22    8    3     -0.31      0.00
  -22    9    3     -0.40      0.00
  -21    9    3     -0.96      0.00
  -20    9    3     -1.47      0.00
  -19    9    3      7.34      0.00
  -18    9    3     15.01      0.00
  -17    9    3      8.68      0.00
  -16    9    3    -16.08      0.00
  -15    9    3     37.94      0.00
  -14    9    3    -38.31      0.00
  -13    9    3     -0.25      0.00
  -12    9    3      1.39      0.00
  -11    9    3      9.52      0.00
  -10    9    3    -35.87      0.00
   -9    9    3     25.71      0.00
   -8    9    3    -40.31      0.00
   -7    9    3     42.40      0.00
   -6    9    3   -122.18      0.00
   -5    9    3    -10.16      0.00
   -4    9    3     41.34      0.00
   -3    9    3     -6.21      0.00
   -2    9    3     15.15      0.00
   -1    9    3     21.52      0.00
    0    9    3      7.47      0.00
    1    9    3     41.38      0.00
    2    9    3    -93.84      0.00
    3    9    3    -19.39      0.00
    4    9    3    -45.50      0.00
    5    9    3    -52.82      0.00
    6    9    3    -37.35      0.00
    7    9    3    -41.86      0.00
    8    9    3     19.95      0.00
    9    9    3      2.23      0.00
   10    9    3    -17.26      0.00
   11    9    3    -20.42      0.00
   12    9    3    -20.41      0.00
   13    9    3     12.50      0.00
   14    9    3     17.19      0.00
   15    9    3    -22.16      0.00
   16    9    3     19.38      0.00
   17    9    3     -8.81      0.00
   18    9    3    -11.13      0.00
   19    9    3      1.73      0.00
   20    9    3     -2.25      0.00
   21    9    3     -6.78      0.00
   22    9    3      8.07      0.00
  -22   10    3      3.43      0.00
  -21   10    3     -6.80      0.00
  -20   10    3     -1.24      0.00
  -19   10    3      1.90      0.00
  -18   10    3      1.01      0.00
  -17   10    3    -14.94      0.00
  -16   10    3    -38.73      0.00
  -15   10    3     20.88      0.00
  -14   10    3     -1.47      0.00
  -13   10    3     36.55      0.00
  -12   10    3      1.27      0.00
  -11   10    3     -1.31      0.00
  -10   10    3    -29.83      0.00
   -9   10    3    -27.95      0.00
   -8   10    3     -0.66      0.00
   -7   10    3     40.45      0.00
   -6   10    3      0.54      0.00
   -5   10    3     18.00      0.00
   -4   10    3    -29.74      0.00
   -3   10    3    -61.20      0.00
   -2   10    3      9.83      0.00
   -1   10    3    106.43      0.00
    0   10    3    -48.20      0.00
    1   10    3      7.93      0.00
    2   10    3   -100.07      0.00
    3   10    3     87.98      0.00
    4   10    3     29.95      0.00
    5   10    3     91.28      0.00
    6   10    3      0.62      0.00
    7   10    3     57.52      0.00
    8   10    3      9.05      0.00
    9   10    3     -9.01      0.00
   10   10    3      0.50      0.00
   11   10    3     33.45      0.00
   12   10    3     17.44      0.00
   13   10    3     -1.03      0.00
   14   10    3    -41.64      0.00
   15   10    3    -12.99      0.00
   16   10    3    -16.92      0.00
   17   10    3     16.11      0.00
   18   10    3     -6.27      0.00
   19   10    3     12.21      0.00
   20   10    3     -4.87      0.00
   21   10    3      3.07      0.00
   22   10    3     -1.87      0.00
  -22   11    3     -6.66      0.00
  -21   11    3     -1.14      0.00
  -20   11    3     10.01      0.00
  -19   11    3    -10.58      0.00
  -18   11    3      1.58      0.00
  -17   11    3    -21.79      0.00
  -16   11    3     -2.33      0.00
  -15   11    3     -5.19      0.00
  -14   11    3      2.37      0.00
  -13   11    3     -6.34      0.00
  -12   11    3     32.05      0.00
  -11   11    3    -50.31      0.00
  -10   11    3     -4.88      0.00
   -9   11    3      4.75      0.00
   -8   11    3     -3.22      0.00
   -7   11    3     46.57      0.00
   -6   11    3    -17.03      0.00
   -5   11    3      2.89      0.00
   -4   11    3     12.60      0.00
   -3   11    3     19.94      0.00
   -2   11    3    148.06      0.00
   -1   11    3   -145.75      0.00
    0   11    3    107.53      0.00
    1   11    3     -3.37      0.00
    2   11    3    -85.98      0.00
    3   11    3     39.15      0.00
    4   11    3    -32.08      0.00
    5   11    3    -38.87      0.00
    6   11    3     31.59      0.00
    7   11    3    -10.01      0.00
    8   11    3     20.32      0.00
    9   11    3      9.75      0.00
   10   11    3     -0.32      0.00
   11   11    3    -34.47      0.00
   12   11    3    -32.41      0.00
   13   11    3      9.89      0.00
   14   11    3      3.57      0.00
   15   11    3      5.91      0.00
   16   11    3     19.45      0.00
   17   11    3     -5.53      0.00
   18   11    3      4.77      0.00
   19   11    3     -7.34      0.00
   20   11    3     -6.55      0.00
   21   11    3     16.65      0.00
   22   11    3     -3.73      0.00
  -22   12    3     -5.48      0.00
  -21   12    3      2.65      0.00
  -20   12    3      4.12      0.00
  -19   12    3     -2.04      0.00
  -18   12    3      9.91      0.00
  -17   12    3     16.09      0.00
  -16   12    3      6.25      0.00
  -15   12    3    -30.88      0.00
  -14   12    3     -2.03      0.00
  -13   12    3     -1.78      0.00
  -12   12    3     41.79      0.00
  -11   12    3    -20.07      0.00
  -10   12    3    -12.01      0.00
   -9   12    3    -27.82      0.00
   -8   12    3      9.88      0.00
   -7   12    3     15.92      0.00
   -6   12    3     12.20      0.00
   -5   12    3     13.16      0.00
   -4   12    3     57.82      0.00
   -3   12    3     31.98      0.00
   -2   12    3     22.71      0.00
   -1   12    3    -39.88      0.00
    0   12    3     25.78      0.00
    1   12    3      3.88      0.00
    2   12    3    -28.35      0.00
    3   12    3    -41.81      0.00
    4   12    3     -5.74      0.00
    5   12    3    -47.07      0.00
    6   12    3    -31.25      0.00
    7   12    3    -11.31      0.00
    8   12    3      7.58      0.00
    9   12    3    -26.86      0.00
   10   12    3     11.12      0.00
   11   12    3      2.95      0.00
   12   12    3     11.38      0.00
   13   12    3    -21.55      0.00
   14   12    3      3.57      0.00
   15   12    3      0.49      0.00
   16   12    3      2.62      0.00
   17   12    3    -20.00      0.00
   18   12    3     -6.66      0.00
   19   12    3      1.55      0.00
   20   12    3     -0.95      0.00
   21   12    3     -2.54      0.00
   22   12    3      4.49      0.00
  -22   13    3      2.73      0.00
  -21   13    3     -8.97      0.00
  -20   13    3      6.60      0.00
  -19   13    3     14.23      0.00
  -18   13    3    -17.33      0.00
  -17   13    3      2.81      0.00
  -16   13    3      9.23      0.00
  -15   13    3    -27.04      0.00
  -14   13    3     -3.97      0.00
  -13   13    3      3.28      0.00
  -12   13    3     -0.29      0.00
  -11   13    3     -3.16      0.00
  -10   13    3    -22.24      0.00
   -9   13    3    -35.59      0.00
   -8   13    3     17.14      0.00
   -7   13    3     15.17      0.00
   -6   13    3     -4.05      0.00
   -5   13    3     -6.81      0.00
   -4   13    3    -20.28      0.00
   -3   13    3    -58.29      0.00
   -2   13    3    -29.84      0.00
   -1   13    3    -25.81      0.00
    0   13    3     -0.45      0.00
    1   13    3    -52.38      0.00
    2   13    3    103.10      0.00
    3   13    3     33.95      0.00
    4   13    3    -92.69      0.00
    5   13    3     -9.87      0.00
    6   13    3     15.09      0.00
    7   13    3     33.46      0.00
    8   13    3     21.67      0.00
    9   13    3     -3.01      0.00
   10   13    3     -4.80      0.00
   11   13    3     -0.38      0.00
   12   13    3     22.20      0.00
   13   13    3      1.58      0.00
   14   13    3    -10.67      0.00
   15   13    3     17.22      0.00
   16   13    3      2.29      0.00
   17   13    3      4.33      0.00
   18   13    3     -6.41      0.00
   19   13    3     -1.08      0.00
   20   13    3     -3.20      0.00
   21   13    3     10.41      0.00
  -21   14    3     10.39      0.00
  -20   14    3      0.62      0.00
  -19   14    3      9.00      0.00
  -18   14    3    -15.46      0.00
  -17   14    3    -17.23      0.00
  -16   14    3     -4.41      0.00
  -15   14    3    -13.23      0.00
  -14   14    3     -5.45      0.00
  -13   14    3      6.74      0.00
  -12   14    3     -8.89      0.00
  -11   14    3      2.03      0.00
  -10   14    3     -1.13      0.00
   -9   14    3    -23.28      0.00
   -8   14    3     -4.75      0.00
   -7   14    3    -16.38      0.00
   -6   14    3      1.24      0.00
   -5   14    3     26.82      0.00
   -4   14    3     29.23      0.00
   -3   14    3     53.52      0.00
   -2   14    3    -11.19      0.00
   -1   14    3     84.94      0.00
    0   14    3     84.65      0.00
    1   14    3    -63.73      0.00
    2   14    3     64.43      0.00
    3   14    3     -6.88      0.00
    4   14    3    -16.95      0.00
    5   14    3    -35.23      0.00
    6   14    3    -10.13      0.00
    7   14    3      1.91      0.00
    8   14    3     -7.13      0.00
    9   14    3     37.91      0.00
   10   14    3     17.74      0.00
   11   14    3    -10.69      0.00
   12   14    3    -17.44      0.00
   13   14    3     -3.35      0.00
   14   14    3      2.95      0.00
   15   14    3     -6.22      0.00
   16   14    3     15.71      0.00
   17   14    3     -2.60      0.00
   18   14    3      7.07      0.00
   19   14    3      4.83      0.00
   20   14    3     -5.39      0.00
   21   14    3     -5.66      0.00
  -21   15    3     -5.57      0.00
  -20   15    3    -10.76      0.00
  -19   15    3      2.54      0.00
  -18   15    3      0.32      0.00
  -17   15    3     16.80      0.00
  -16   15    3      7.55      0.00
  -15   15    3      5.60      0.00
  -14   15    3     13.59      0.00
  -13   15    3     -4.56      0.00
  -12   15    3     -4.88      0.00
  -11   15    3     19.05      0.00
  -10   15    3     -8.47      0.00
   -9   15    3     33.39      0.00
   -8   15    3     -4.34      0.00
   -7   15    3     11.86      0.00
   -6   15    3      0.05      0.00
   -5   15    3    -20.22      0.00
   -4   15    3     -3.70      0.00
   -3   15    3     -7.83      0.00
   -2   15    3    -63.81      0.00
   -1   15    3     90.33      0.00
    0   15    3    -37.83      0.00
    1   15    3     92.55      0.00
    2   15    3     32.51      0.00
    3   15    3    -38.78      0.00
    4   15    3    -13.45      0.00
    5   15    3      1.92      0.00
    6   15    3    -12.49      0.00
    7   15    3    -14.71      0.00
    8   15    3    -28.46      0.00
    9   15    3     16.33      0.00
   10   15    3      7.05      0.00
   11   15    3     10.72      0.00
   12   15    3      1.37      0.00
   13   15    3    -27.34      0.00
   14   15    3      6.44      0.00
   15   15    3    -18.31      0.00
   16   15    3     -3.45      0.00
   17   15    3     -6.22      0.00
   18   15    3     -4.90      0.00
   19   15    3      0.02      0.00
   20   15    3      3.39      0.00
   21   15    3    -12.13      0.00
  -21   16    3     12.26      0.00
  -20   16    3     16.20      0.00
  -19   16    3     -4.79      0.00
  -18   16    3     -8.42      0.00
  -17   16    3     -5.96      0.00
  -16   16    3      5.99      0.00
  -15   16    3     -5.27      0.00
  -14   16    3      2.62      0.00
  -13   16    3     25.53      0.00
  -12   16    3     -2.91      0.00
  -11   16    3    -18.77      0.00
  -10   16    3     -4.00      0.00
   -9   16    3     10.70      0.00
   -8   16    3    -15.10      0.00
   -7   16    3    -47.47      0.00
   -6   16    3    -41.94      0.00
   -5   16    3     14.35      0.00
   -4   16    3    -37.28      0.00
   -3   16    3     12.41      0.00
   -2   16    3    -47.48      0.00
   -1   16    3     -3.73      0.00
    0   16    3     34.68      0.00
    1   16    3     56.96      0.00
    2   16    3    -27.04      0.00
    3   16    3    -25.32      0.00
    4   16    3     22.41      0.00
    5   16    3     42.81      0.00
    6   16    3    -22.00      0.00
    7   16    3     18.02      0.00
    8   16    3     -7.13      0.00
    9   16    3     10.68      0.00
   10   16    3    -19.66      0.00
   11   16    3      2.75      0.00
   12   16    3     -0.24      0.00
   13   16    3      1.16      0.00
   14   16    3    -13.34      0.00
   15   16    3     14.21      0.00
   16   16    3    -17.66      0.00
   17   16    3     -1.85      0.00
   18   16    3     11.67      0.00
   19   16    3      6.89      0.00
   20   16    3     12.31      0.00
   21   16    3      7.02      0.00
  -20   17    3     -1.30      0.00
  -19   17    3    -11.85      0.00
  -18   17    3     -2.41      0.00
  -17   17    3     -5.47      0.00
  -16   17    3     -6.98      0.00
  -15   17    3      3.23      0.00
  -14   17    3      3.40      0.00
  -13   17    3      5.18      0.00
  -12   17    3    -21.65      0.00
  -11   17    3    -10.74      0.00
  -10   17    3    -13.88      0.00
   -9   17    3      2.39      0.00
   -8   17    3     45.00      0.00
   -7   17    3     -6.68      0.00
   -6   17    3     43.97      0.00
   -5   17    3    -22.78      0.00
   -4   17    3    -13.40      0.00
   -3   17    3     46.22      0.00
   -2   17    3    -27.18      0.00
   -1   17    3     -8.47      0.00
    0   17    3     37.69      0.00
    1   17    3     35.60      0.00
    2   17    3     52.35      0.00
    3   17    3    -47.45      0.00
    4   17    3    -37.17      0.00
    5   17    3      8.02      0.00
    6   17    3     49.01      0.00
    7   17    3    -16.87      0.00
    8   17    3     -7.66      0.00
    9   17    3    -11.49      0.00
   10   17    3    -12.14      0.00
   11   17    3     20.62      0.00
   12   17    3    -15.67      0.00
   13   17    3     15.73      0.00
   14   17    3    -13.61      0.00
   15   17    3     -6.65      0.00
   16   17    3     -1.49      0.00
   17   17    3      4.19      0.00
   18   17    3      3.08      0.00
   19   17    3     -5.57      0.00
   20   17    3      0.11      0.00
  -20   18    3      3.00      0.00
  -19   18    3     -1.93      0.00
  -18   18    3      8.00      0.00
  -17   18    3     -9.64      0.00
  -16   18    3      7.91      0.00
  -15   18    3     -0.60      0.00
  -14   18    3      5.01      0.00
  -13   18    3     35.32      0.00
  -12   18    3     28.87      0.00
  -11   18    3     -0.16      0.00
  -10   18    3    -13.26      0.00
   -9   18    3     -9.77      0.00
   -8   18    3     41.37      0.00
   -7   18    3     29.29      0.00
   -6   18    3     32.06      0.00
   -5   18    3    -27.07      0.00
   -4   18    3     25.72      0.00
   -3   18    3    -23.20      0.00
   -2   18    3     21.14      0.00
   -1   18    3     19.13      0.00
    0   18    3    -15.79      0.00
    1   18    3    -24.73      0.00
    2   18    3     14.03      0.00
    3   18    3    -41.77      0.00
    4   18    3     -8.93      0.00
    5   18    3     35.11      0.00
    6   18    3      3.20      0.00
    7   18    3    -23.40      0.00
    8   18    3     11.08      0.00
    9   18    3    -29.77      0.00
   10   18    3     22.41      0.00
   11   18    3    -17.20      0.00
   12   18    3     21.21      0.00
   13   18    3      7.22      0.00
   14   18    3     -6.04      0.00
   15   18    3      0.60      0.00
   16   18    3     -6.65      0.00
   17   18    3     -4.27      0.00
   18   18    3      7.61      0.00
   19   18    3     -0.10      0.00
   20   18    3      5.17      0.00
  -20   19    3    -10.22      0.00
  -19   19    3     -1.36      0.00
  -18   19    3      5.68      0.00
  -17   19    3     -0.83      0.00
  -16   19    3     -0.89      0.00
  -15   19    3     -1.20      0.00
  -14   19    3    -17.65      0.00
  -13   19    3      5.13      0.00
  -12   19    3     -2.56      0.00
  -11   19    3     10.74      0.00
  -10   19    3     18.73      0.00
   -9   19    3     -8.47      0.00
   -8   19    3     17.54      0.00
   -7   19    3     13.10      0.00
   -6   19    3      5.50      0.00
   -5   19    3     -2.02      0.00
   -4   19    3    -17.72      0.00
   -3   19    3    -57.10      0.00
   -2   19    3    -52.56      0.00
   -1   19    3    -11.44      0.00
    0   19    3    -27.25      0.00
    1   19    3    -65.90      0.00
    2   19    3     38.86      0.00
    3   19    3     20.93      0.00
    4   19    3      9.62      0.00
    5   19    3      9.92      0.00
    6   19    3      8.60      0.00
    7   19    3     17.93      0.00
    8   19    3     10.54      0.00
    9   19    3      1.88      0.00
   10   19    3     -4.05      0.00
   11   19    3    -22.88      0.00
   12   19    3    -13.23      0.00
   13   19    3     -3.86      0.00
   14   19    3      3.27      0.00
   15   19    3     10.02      0.00
   16   19    3    -16.05      0.00
   17   19    3      3.15      0.00
   18   19    3      1.21      0.00
   19   19    3    -10.81      0.00
   20   19    3      1.03      0.00
  -19   20    3      2.61      0.00
  -18   20    3     -1.55      0.00
  -17   20    3     -7.18      0.00
  -16   20    3    -10.94      0.00
  -15   20    3     10.04      0.00
  -14   20    3    -16.29      0.00
  -13   20    3      1.94      0.00
  -12   20    3      4.28      0.00
  -11   20    3     -1.38      0.00
  -10   20    3    -26.58      0.00
   -9   20    3      6.52      0.00
   -8   20    3    -18.48      0.00
   -7   20    3      6.70      0.00
   -6   20    3    -20.82      0.00
   -5   20    3      0.75      0.00
   -4   20    3    -14.11      0.00
   -3   20    3     -1.42      0.00
   -2   20    3      7.93      0.00
   -1   20    3     13.65      0.00
    0   20    3     20.63      0.00
    1   20    3      3.55      0.00
    2   20    3    -17.17      0.00
    3   20    3      8.61      0.00
    4   20    3    -61.07      0.00
    5   20    3     15.25      0.00
    6   20    3      5.17      0.00
    7   20    3     15.60      0.00
    8   20    3     14.19      0.00
    9   20    3    -21.20      0.00
   10   20    3     -2.38      0.00
   11   20    3      4.13      0.00
   12   20    3      2.16      0.00
   13   20    3     18.68      0.00
   14   20    3      6.80      0.00
   15   20    3      5.51      0.00
   16   20    3      0.64      0.00
   17   20    3     13.62      0.00
   18   20    3     12.06      0.00
   19   20    3      5.64      0.00
  -19   21    3     -7.01      0.00
  -18   21    3    -12.30      0.00
  -17   21    3     14.43      0.00
  -16   21    3      0.65      0.00
  -15   21    3     -9.88      0.00
  -14   21    3     17.06      0.00
  -13   21    3      1.03      0.00
  -12   21    3    -13.16      0.00
  -11   21    3     -2.54      0.00
  -10   21    3      7.52      0.00
   -9   21    3     17.17      0.00
   -8   21    3      9.21      0.00
   -7   21    3      4.60      0.00
   -6   21    3    -33.93      0.00
   -5   21    3      8.82      0.00
   -4   21    3      9.75      0.00
   -3   21    3    -39.73      0.00
   -2   21    3     -1.65      0.00
   -1   21    3    -20.11      0.00
    0   21    3    -35.03      0.00
    1   21    3     38.94      0.00
    2   21    3     23.57      0.00
    3   21    3     -1.78      0.00
    4   21    3    -10.31      0.00
    5   21    3     -3.46      0.00
    6   21    3    -35.00      0.00
    7   21    3     -1.95      0.00
    8   21    3     -5.05      0.00
    9   21    3     17.19      0.00
   10   21    3      5.89      0.00
   11   21    3    -14.84      0.00
   12   21    3      6.57      0.00
   13   21    3    -23.54      0.00
   14   21    3      1.25      0.00
   15   21    3     14.17      0.00
   16   21    3      8.77      0.00
   17   21    3     15.29      0.00
   18   21    3      2.19      0.00
   19   21    3      1.45      0.00
  -18   22    3     -1.55      0.00
  -17   22    3      4.67      0.00
  -16   22    3      0.50      0.00
  -15   22    3     -2.80      0.00
  -14   22    3      5.75      0.00
  -13   22    3      1.70      0.00
  -12   22    3      2.60      0.00
  -11   22    3     -7.49      0.00
  -10   22    3     20.68      0.00
   -9   22    3     -9.95      0.00
   -8   22    3     -7.20      0.00
   -7   22    3     -0.92      0.00
   -6   22    3     -9.56      0.00
   -5   22    3      9.11      0.00
   -4   22    3     13.44      0.00
   -3   22    3     24.39      0.00
   -2   22    3    -11.82      0.00
   -1   22    3    -40.03      0.00
    0   22    3     25.87      0.00
    1   22    3      0.64      0.00
    2   22    3      9.20      0.00
    3   22    3     -1.82      0.00
    4   22    3     -2.53      0.00
    5   22    3     13.03      0.00
    6   22    3     14.60      0.00
    7   22    3     -5.37      0.00
    8   22    3     -4.84      0.00
    9   22    3     -5.79      0.00
   10   22    3      5.09      0.00
   11   22    3      4.28      0.00
   12   22    3     -6.47      0.00
   13   22    3     10.54      0.00
   14   22    3    -13.32      0.00
   15   22    3     -0.08      0.00
   16   22    3      1.95      0.00
   17   22    3      0.26      0.00
   18   22    3      7.01      0.00
  -18   23    3      1.84      0.00
  -17   23    3      3.42      0.00
  -16   23    3     17.70      0.00
  -15   23    3     -7.90      0.00
  -14   23    3      2.23      0.00
  -13   23    3      9.72      0.00
  -12   23    3     11.50      0.00
  -11   23    3    -10.32      0.00
  -10   23    3     10.17      0.00
   -9   23    3     -4.15      0.00
   -8   23    3    -12.36      0.00
   -7   23    3     -6.60      0.00
   -6   23    3     -0.57      0.00
   -5   23    3      9.52      0.00
   -4   23    3     -2.37      0.00
   -3   23    3    -13.92      0.00
   -2   23    3    -11.37      0.00
   -1   23    3    -35.74      0.00
    0   23    3     18.51      0.00
    1   23    3     15.17      0.00
    2   23    3    -26.62      0.00
    3   23    3    -10.51      0.00
    4   23    3    -32.21      0.00
    5   23    3    -40.60      0.00
    6   23    3     27.14      0.00
    7   23    3     14.88      0.00
    8   23    3     -6.24      0.00
    9   23    3     -1.85      0.00
   10   23    3    -17.93      0.00
   11   23    3    -17.51      0.00
   12   23    3      5.44      0.00
   13   23    3     10.25      0.00
   14   23    3      8.63      0.00
   15   23    3     -3.63      0.00
   16   23    3      8.87      0.00
   17   23    3      2.63      0.00
   18   23    3      6.01      0.00
  -17   24    3     -4.04      0.00
  -16   24    3      1.62      0.00
  -15   24    3     -0.89      0.00
  -14   24    3     -8.76      0.00
  -13   24    3      2.00      0.00
  -12   24    3      0.29      0.00
  -11   24    3     -1.37      0.00
  -10   24    3     15.58      0.00
   -9   24    3    -23.95      0.00
   -8   24    3     -4.79      0.00
   -7   24    3     -6.74      0.00
   -6   24    3    -18.73      0.00
   -5   24    3     -0.28      0.00
   -4   24    3      1.06      0.00
   -3   24    3    -33.43      0.00
   -2   24    3    -14.43      0.00
   -1   24    3     23.00      0.00
    0   24    3     -5.29      0.00
    1   24    3    -17.64      0.00
    2   24    3     39.80      0.00
    3   24    3      5.09      0.00
    4   24    3      9.07      0.00
    5   24    3     18.53      0.00
    6   24    3     10.58      0.00
    7   24    3     -5.73      0.00
    8   24    3     15.63      0.00
    9   24    3      0.14      0.00
   10   24    3      2.31      0.00
   11   24    3     -6.19      0.00
   12   24    3    -17.66      0.00
   13   24    3     -1.89      0.00
   14   24    3      1.43      0.00
   15   24    3     -6.14      0.00
   16   24    3      8.88      0.00
   17   24    3     -1.84      0.00
  -17   25    3     -2.92      0.00
  -16   25    3     -0.24      0.00
  -15   25    3      5.81      0.00
  -14   25    3     -4.82      0.00
  -13   25    3     -3.00      0.00
  -12   25    3    -16.42      0.00
  -11   25    3     -3.36      0.00
  -10   25    3     -2.33      0.00
   -9   25    3      5.94      0.00
   -8   25    3     16.49      0.00
   -7   25    3     12.86      0.00
   -6   25    3    -14.74      0.00
   -5   25    3     31.53      0.00
   -4   25    3    -24.31      0.00
   -3   25    3     11.75      0.00
   -2   25    3     42.25      0.00
   -1   25    3    -31.59      0.00
    0   25    3    -33.05      0.00
    1   25    3     43.14      0.00
    2   25    3    -15.39      0.00
    3   25    3      1.33      0.00
    4   25    3     15.24      0.00
    5   25    3    -13.46      0.00
    6   25    3     -3.06      0.00
    7   25    3      0.19      0.00
    8   25    3    -10.10      0.00
    9   25    3     -5.66      0.00
   10   25    3     -6.17      0.00
   11   25    3      8.82      0.00
   12   25    3    -13.16      0.00
   13   25    3     -8.03      0.00
   14   25    3    -12.47      0.00
   15   25    3      6.06      0.00
   16   25    3     -3.72      0.00
   17   25    3      4.88      0.00
  -16   26    3      1.53      0.00
  -15   26    3     -6.71      0.00
  -14   26    3      8.97      0.00
  -13   26    3      8.24      0.00
  -12   26    3     -8.96      0.00
  -11   26    3      5.40      0.00
  -10   26    3     -5.95      0.00
   -9   26    3      3.71      0.00
   -8   26    3      2.51      0.00
   -7   26    3    -11.13      0.00
   -6   26    3     -6.62      0.00
   -5   26    3     20.88      0.00
   -4   26    3    -24.17      0.00
   -3   26    3    -12.30      0.00
   -2   26    3     29.18      0.00
   -1   26    3     22.24      0.00
    0   26    3    -27.46      0.00
    1   26    3      5.55      0.00
    2   26    3    -39.14      0.00
    3   26    3      8.69      0.00
    4   26    3     -4.98      0.00
    5   26    3     -1.81      0.00
    6   26    3     -0.62      0.00
    7   26    3      2.48      0.00
    8   26    3     -1.26      0.00
    9   26    3     -7.34      0.00
   10   26    3    -15.42      0.00
   11   26    3     17.93      0.00
   12   26    3      6.54      0.00
   13   26    3      9.22      0.00
   14   26    3      3.81      0.00
   15   26    3     -4.92      0.00
   16   26    3     -0.43      0.00
  -15   27    3     -7.26      0.00
  -14   27    3     -0.46      0.00
  -13   27    3      5.04      0.00
  -12   27    3      0.34      0.00
  -11   27    3     -0.19      0.00
  -10   27    3     -0.93      0.00
   -9   27    3    -17.19      0.00
   -8   27    3     -0.47      0.00
   -7   27    3      9.83      0.00
   -6   27    3     19.54      0.00
   -5   27    3    -15.06      0.00
   -4   27    3      2.41      0.00
   -3   27    3    -18.48      0.00
   -2   27    3    -11.49      0.00
   -1   27    3     21.16      0.00
    0   27    3      1.52      0.00
    1   27    3    -44.61      0.00
    2   27    3     15.96      0.00
    3   27    3     -4.80      0.00
    4   27    3     -7.08      0.00
    5   27    3     27.06      0.00
    6   27    3      1.89      0.00
    7   27    3      4.85      0.00
    8   27    3      9.20      0.00
    9   27    3    -15.66      0.00
   10   27    3     -3.53      0.00
   11   27    3     11.74      0.00
   12   27    3      9.89      0.00
   13   27    3      9.37      0.00
   14   27    3      8.37      0.00
   15   27    3     -9.46      0.00
  -15   28    3     -3.06      0.00
  -14   28    3      9.33      0.00
  -13   28    3    -10.04      0.00
  -12   28    3     -2.18      0.00
  -11   28    3     10.64      0.00
  -10   28    3    -10.77      0.00
   -9   28    3      8.04      0.00
   -8   28    3     -1.63      0.00
   -7   28    3     -0.40      0.00
   -6   28    3      1.49      0.00
   -5   28    3    -29.13      0.00
   -4   28    3      3.68      0.00
   -3   28    3      8.71      0.00
   -2   28    3     16.31      0.00
   -1   28    3     -8.54      0.00
    0   28    3      5.35      0.00
    1   28    3     -1.82      0.00
    2   28    3     -7.42      0.00
    3   28    3    -16.12      0.00
    4   28    3     15.34      0.00
    5   28    3      5.02      0.00
    6   28    3      0.99      0.00
    7   28    3      9.35      0.00
    8   28    3     -1.74      0.00
    9   28    3      2.31      0.00
   10   28    3      3.71      0.00
   11   28    3     23.50      0.00
   12   28    3     11.38      0.00
   13   28    3    -14.46      0.00
   14   28    3      6.38      0.00
  -14   29    3     11.26      0.00
  -13   29    3      6.72      0.00
  -12   29    3      4.44      0.00
  -11   29    3     -0.01      0.00
  -10   29    3      6.92      0.00
   -9   29    3     -7.33      0.00
   -8   29    3      0.95      0.00
   -7   29    3      1.63      0.00
   -6   29    3     -7.91      0.00
   -5   29    3    -21.98      0.00
   -4   29    3      4.84      0.00
   -3   29    3     23.24      0.00
   -2   29    3      7.03      0.00
   -1   29    3     12.35      0.00
    0   29    3      9.77      0.00
    1   29    3     -8.73      0.00
    2   29    3      9.82      0.00
    3   29    3     -7.69      0.00
    4   29    3     10.15      0.00
    5   29    3      1.19      0.00
    6   29    3     -4.81      0.00
    7   29    3      2.64      0.00
    8   29    3      6.23      0.00
    9   29    3     -7.54      0.00
   10   29    3     -9.73      0.00
   11   29    3     -2.51      0.00
   12   29    3      3.22      0.00
   13   29    3     -2.52      0.00
   14   29    3      8.12      0.00
  -13   30    3      3.42      0.00
  -12   30    3      6.70      0.00
  -11   30    3      0.05      0.00
  -10   30    3     -7.62      0.00
   -9   30    3      2.94      0.00
   -8   30    3      4.39      0.00
   -7   30    3     -0.61      0.00
   -6   30    3     -9.36      0.00
   -5   30    3    -14.42      0.00
   -4   30    3      3.00      0.00
   -3   30    3     -5.41      0.00
   -2   30    3    -13.30      0.00
   -1   30    3      1.44      0.00
    0   30    3     23.36      0.00
    1   30    3     -5.31      0.00
    2   30    3      5.76      0.00
    3   30    3    -25.50      0.00
    4   30    3    -11.58      0.00
    5   30    3     -3.72      0.00
    6   30    3      7.70      0.00
    7   30    3     -6.54      0.00
    8   30    3      0.20      0.00
    9   30    3      3.89      0.00
   10   30    3     -7.39      0.00
   11   30    3     -4.09      0.00
   12   30    3     16.76      0.00
   13   30    3    -10.03      0.00
  -12   31    3     -4.74      0.00
  -11   31    3      8.07      0.00
  -10   31    3     -4.75      0.00
   -9   31    3      8.76      0.00
   -8   31    3      1.82      0.00
   -7   31    3    -14.78      0.00
   -6   31    3     -6.41      0.00
   -5   31    3      2.77      0.00
   -4   31    3      4.25      0.00
   -3   31    3     11.32      0.00
   -2   31    3     -7.25      0.00
   -1   31    3    -18.90      0.00
    0   31    3     -6.29      0.00
    1   31    3     35.25      0.00
    2   31    3     17.16      0.00
    3   31    3      0.04      0.00
    4   31    3     -1.44      0.00
    5   31    3      3.70      0.00
    6   31    3     -8.43      0.00
    7   31    3     11.83      0.00
    8   31    3     19.48      0.00
    9   31    3     11.19      0.00
   10   31    3     -4.94      0.00
   11   31    3     -9.26      0.00
   12   31    3      2.97      0.00
  -11   32    3     -4.60      0.00
  -10   32    3     12.90      0.00
   -9   32    3      2.33      0.00
   -8   32    3     -2.04      0.00
   -7   32    3     -7.51      0.00
   -6   32    3    -19.02      0.00
   -5   32    3      7.76      0.00
   -4   32    3     -1.03      0.00
   -3   32    3     17.25      0.00
   -2   32    3    -10.05      0.00
   -1   32    3     -3.30      0.00
    0   32    3      0.13      0.00
    1   32    3     18.13      0.00
    2   32    3      2.30      0.00
    3   32    3      6.57      0.00
    4   32    3     -5.41      0.00
    5   32    3      0.13      0.00
    6   32    3      2.59      0.00
    7   32    3      7.36      0.00
    8   32    3     -0.91      0.00
    9   32    3      0.25      0.00
   10   32    3     -5.22      0.00
   11   32    3     -4.85      0.00
   -9   33    3      1.83      0.00
   -8   33    3     -4.39      0.00
   -7   33    3      3.04      0.00
   -6   33    3      4.25      0.00
   -5   33    3     -0.11      0.00
   -4   33    3    -13.33      0.00
   -3   33    3      2.08      0.00
   -2   33    3    -10.29      0.00
   -1   33    3      5.27      0.00
    0   33    3      0.12      0.00
    1   33    3     -6.14      0.00
    2   33    3    -10.26      0.00
    3   33    3      4.87      0.00
    4   33    3      0.93      0.00
    5   33    3      7.56      0.00
    6   33    3      4.55      0.00
    7   33    3      0.28      0.00
    8   33    3     -6.08      0.00
    9   33    3     -0.37      0.00
   -8   34    3     13.98      0.00
   -7   34    3     -3.99      0.00
   -6   34    3      0.64      0.00
   -5   34    3     -0.32      0.00
   -4   34    3     -9.89      0.00
   -3   34    3    -15.59      0.00
   -2   34    3     -0.45      0.00
   -1   34    3      6.83      0.00
    0   34    3      6.30      0.00
    1   34    3     -5.10      0.00
    2   34    3     -0.71      0.00
    3   34    3      5.49      0.00
    4   34    3      3.38      0.00
    5   34    3     18.18      0.00
    6   34    3      6.97      0.00
    7   34    3     -5.65      0.00
    8   34    3      3.32      0.00
   -6   35    3     10.99      0.00
   -5   35    3      6.49      0.00
   -4   35    3      6.36      0.00
   -3   35    3     -0.69      0.00
   -2   35    3     17.93      0.00
   -1   35    3      2.53      0.00
    0   35    3      5.50      0.00
    1   35    3     -4.10      0.00
    2   35    3      4.62      0.00
    3   35    3     -5.85      0.00
    4   35    3     13.17      0.00
    5   35    3     -2.81      0.00
    6   35    3     -8.94      0.00
   -3   36    3     -5.75      0.00
   -2   36    3      1.68      0.00
   -1   36    3      2.77      0.00
    0   36    3      1.32      0.00
    1   36    3     -8.83      0.00
    2   36    3     -2.79      0.00
    3   36    3      1.07      0.00
  -23    0    4     -9.65      0.00
  -22    0    4     15.70      0.00
  -21    0    4    -15.48      0.00
  -20    0    4     -8.57      0.00
  -19    0    4     -3.63      0.00
  -18    0    4     20.63      0.00
  -17    0    4    -22.11      0.00
  -16    0    4     -9.31      0.00
  -15    0    4     82.63      0.00
  -14    0    4    -11.97      0.00
  -13    0    4     63.74      0.00
  -12    0    4    -14.98      0.00
  -11    0    4    -12.38      0.00
  -10    0    4    -20.54      0.00
   -9    0    4    -57.30      0.00
   -8    0    4      9.52      0.00
   -7    0    4      6.79      0.00
   -6    0    4    -24.01      0.00
   -5    0    4    -75.87      0.00
   -4    0    4   -134.90      0.00
   -3    0    4   -101.22      0.00
   -2    0    4    129.14      0.00
   -1    0    4   -132.95      0.00
    0    0    4     55.92      0.00
    1    0    4    783.29      0.00
    2    0    4    -22.93      0.00
    3    0    4    -62.33      0.00
    4    0    4     77.53      0.00
    5    0    4    -50.83      0.00
    6    0    4    -15.32      0.00
    7    0    4     10.29      0.00
    8    0    4     31.60      0.00
    9    0    4     11.48      0.00
   10    0    4    -52.36      0.00
   11    0    4     21.53      0.00
   12    0    4      1.21      0.00
   13    0    4     49.72      0.00
   14    0    4     32.72      0.00
   15    0    4     15.90      0.00
   16    0    4    -63.74      0.00
   17    0    4    -16.02      0.00
   18    0    4      9.72      0.00
   21    0    4      3.13      0.00
   22    0    4     -0.73      0.00
   23    0    4     -6.15      0.00
  -23    1    4    -12.20      0.00
  -22    1    4     -4.54      0.00
  -21    1    4     23.68      0.00
  -20    1    4      7.70      0.00
  -19    1    4    -18.96      0.00
  -18    1    4     30.79      0.00
  -17    1    4     11.88      0.00
  -16    1    4      9.04      0.00
  -15    1    4    -43.48      0.00
  -14    1    4     22.80      0.00
  -13    1    4     -2.76      0.00
  -12    1    4     -4.30      0.00
  -11    1    4      2.16      0.00
  -10    1    4      4.08      0.00
   -9    1    4    -79.59      0.00
   -8    1    4    -61.25      0.00
   -7    1    4     -5.25      0.00
   -6    1    4     54.84      0.00
   -5    1    4     28.19      0.00
   -4    1    4     36.61      0.00
   -3    1    4   -230.62      0.00
   -2    1    4      4.62      0.00
   -1    1    4   -206.52      0.00
    0    1    4    144.61      0.00
    1    1    4    199.63      0.00
    2    1    4    -19.26      0.00
    3    1    4   -148.05      0.00
    4    1    4     76.41      0.00
    5    1    4     78.51      0.00
    6    1    4     90.98      0.00
    7    1    4    -44.14      0.00
    8    1    4     52.83      0.00
    9    1    4    -21.83      0.00
   10    1    4     29.40      0.00
   11    1    4    -46.69      0.00
   12    1    4     20.13      0.00
   13    1    4    -48.31      0.00
   14    1    4     24.14      0.00
   15    1    4    -10.80      0.00
   16    1    4    -14.69      0.00
   17    1    4     -4.15      0.00
   18    1    4     13.58      0.00
   19    1    4      5.09      0.00
   21    1    4     -0.38      0.00
   22    1    4      8.08      0.00
   23    1    4     -5.53      0.00
  -23    2    4      4.85      0.00
  -22    2    4    -17.90      0.00
  -21    2    4     -2.03      0.00
  -20    2    4     12.71      0.00
  -19    2    4     -8.16      0.00
  -18    2    4     -4.41      0.00
  -17    2    4    -17.77      0.00
  -16    2    4     33.58      0.00
  -15    2    4    -11.08      0.00
  -14    2    4    -10.01      0.00
  -13    2    4     18.21      0.00
  -12    2    4    -30.79      0.00
  -11    2    4     -8.45      0.00
  -10    2    4      3.84      0.00
   -9    2    4    -20.47      0.00
   -8    2    4     43.76      0.00
   -7    2    4     -5.09      0.00
   -6    2    4     11.20      0.00
   -5    2    4     -0.96      0.00
   -4    2    4    -30.58      0.00
   -3    2    4    189.27      0.00
   -2    2    4     28.74      0.00
   -1    2    4     81.46      0.00
    0    2    4    -56.76      0.00
    1    2    4   -131.32      0.00
    2    2    4     43.32      0.00
    3    2    4    -20.70      0.00
    4    2    4    -51.91      0.00
    5    2    4     66.79      0.00
    6    2    4     15.60      0.00
    7    2    4    -86.49      0.00
    8    2    4     47.45      0.00
    9    2    4     39.60      0.00
   10    2    4     37.05      0.00
   11    2    4     -2.19      0.00
   12    2    4    -55.19      0.00
   13    2    4      8.11      0.00
   14    2    4     17.15      0.00
   15    2    4    -18.23      0.00
   16    2    4      9.57      0.00
   17    2    4    -30.41      0.00
   18    2    4     -7.42      0.00
   19    2    4    -21.27      0.00
   21    2    4     -1.92      0.00
   22    2    4      4.25      0.00
   23    2    4      5.62      0.00
  -23    3    4     -2.48      0.00
  -22    3    4      5.77      0.00
  -21    3    4     13.63      0.00
  -20    3    4    -11.62      0.00
  -19    3    4     16.23      0.00
  -18    3    4     -2.28      0.00
  -17    3    4    -18.96      0.00
  -16    3    4     31.80      0.00
  -15    3    4      4.21      0.00
  -14    3    4      0.26      0.00
  -13    3    4    -17.75      0.00
  -12    3    4    -21.92      0.00
  -11    3    4      0.94      0.00
  -10    3    4    -15.91      0.00
   -9    3    4     25.24      0.00
   -8    3    4      1.10      0.00
   -7    3    4    -27.15      0.00
   -6    3    4    -68.31      0.00
   -5    3    4     11.72      0.00
   -4    3    4     27.88      0.00
   -3    3    4     55.02      0.00
   -2    3    4    160.58      0.00
   -1    3    4    -17.58      0.00
    0    3    4    234.51      0.00
    1    3    4     51.18      0.00
    2    3    4   -192.79      0.00
    3    3    4      9.53      0.00
    4    3    4      5.57      0.00
    5    3    4     99.64      0.00
    6    3    4    -61.73      0.00
    7    3    4    -27.41      0.00
    8    3    4    -64.61      0.00
    9    3    4    -10.09      0.00
   10    3    4    -38.69      0.00
   11    3    4    -23.22      0.00
   12    3    4     -7.72      0.00
   13    3    4     28.68      0.00
   14    3    4    -24.50      0.00
   15    3    4     -3.66      0.00
   16    3    4    -17.63      0.00
   17    3    4     12.26      0.00
   18    3    4      3.86      0.00
   19    3    4      8.17      0.00
   21    3    4     -8.59      0.00
   22    3    4      5.35      0.00
   23    3    4      3.10      0.00
  -23    4    4     -1.24      0.00
  -22    4    4     -0.99      0.00
  -21    4    4      8.34      0.00
  -20    4    4     -4.91      0.00
  -19    4    4     12.96      0.00
  -18    4    4      9.68      0.00
  -17    4    4    -28.86      0.00
  -16    4    4    -22.76      0.00
  -15    4    4     -1.27      0.00
  -14    4    4     31.50      0.00
  -13    4    4      1.57      0.00
  -12    4    4     -0.24      0.00
  -11    4    4     29.75      0.00
  -10    4    4    -79.98      0.00
   -9    4    4    -36.54      0.00
   -8    4    4     78.66      0.00
   -7    4    4    115.66      0.00
   -6    4    4    115.59      0.00
   -5    4    4    -31.32      0.00
   -4    4    4    -98.65      0.00
   -3    4    4    -25.26      0.00
   -2    4    4     92.55      0.00
   -1    4    4    -52.95      0.00
    0    4    4    146.86      0.00
    1    4    4   -346.06      0.00
    2    4    4   -146.92      0.00
    3    4    4    -72.31      0.00
    4    4    4    -63.60      0.00
    5    4    4     41.97      0.00
    6    4    4      6.81      0.00
    7    4    4    -27.74      0.00
    8    4    4    -17.53      0.00
    9    4    4      7.16      0.00
   10    4    4     37.28      0.00
   11    4    4     35.39      0.00
   12    4    4    -15.33      0.00
   13    4    4     14.94      0.00
   14    4    4     27.15      0.00
   15    4    4    -14.73      0.00
   16    4    4     35.76      0.00
   17    4    4     -2.73      0.00
   18    4    4     -4.72      0.00
   19    4    4      3.83      0.00
   20    4    4     -0.26      0.00
   21    4    4     -3.99      0.00
   22    4    4      0.98      0.00
   23    4    4     12.69      0.00
  -23    5    4     -6.48      0.00
  -22    5    4     -5.56      0.00
  -21    5    4      2.50      0.00
  -20    5    4     -0.91      0.00
  -19    5    4      4.90      0.00
  -18    5    4    -10.90      0.00
  -17    5    4     -6.92      0.00
  -16    5    4    -23.24      0.00
  -15    5    4    -17.19      0.00
  -14    5    4     -5.21      0.00
  -13    5    4     -3.75      0.00
  -12    5    4    -22.95      0.00
  -11    5    4    -42.59      0.00
  -10    5    4     -2.94      0.00
   -9    5    4     54.33      0.00
   -8    5    4     31.86      0.00
   -7    5    4     36.36      0.00
   -6    5    4    -35.62      0.00
   -5    5    4    -20.72      0.00
   -4    5    4     21.51      0.00
   -3    5    4    123.32      0.00
   -2    5    4     12.44      0.00
   -1    5    4     30.26      0.00
    0    5    4   -134.86      0.00
    1    5    4     57.04      0.00
    2    5    4    -13.24      0.00
    3    5    4   -115.90      0.00
    4    5    4    -28.99      0.00
    5    5    4     38.99      0.00
    6    5    4    -41.82      0.00
    7    5    4     25.14      0.00
    8    5    4     34.31      0.00
    9    5    4     17.63      0.00
   10    5    4     20.06      0.00
   11    5    4    -14.47      0.00
   12    5    4      6.07      0.00
   13    5    4      5.68      0.00
   14    5    4     -8.01      0.00
   15    5    4     34.82      0.00
   16    5    4     -1.21      0.00
   17    5    4    -15.49      0.00
   18    5    4     -3.50      0.00
   19    5    4    -26.88      0.00
   20    5    4     -3.59      0.00
   21    5    4     -1.36      0.00
   22    5    4     -1.04      0.00
   23    5    4      4.71      0.00
  -23    6    4     -5.33      0.00
  -22    6    4     12.59      0.00
  -21    6    4     -6.31      0.00
  -20    6    4     -5.22      0.00
  -19    6    4    -11.94      0.00
  -18    6    4    -15.96      0.00
  -17    6    4     20.79      0.00
  -16    6    4      8.24      0.00
  -15    6    4      2.12      0.00
  -14    6    4     16.55      0.00
  -13    6    4     19.69      0.00
  -12    6    4     51.78      0.00
  -11    6    4     -2.79      0.00
  -10    6    4    -18.31      0.00
   -9    6    4    -16.07      0.00
   -8    6    4    -64.74      0.00
   -7    6    4    -23.27      0.00
   -6    6    4    -36.04      0.00
   -5    6    4    -36.48      0.00
   -4    6    4    -10.47      0.00
   -3    6    4    -34.44      0.00
   -2    6    4   -153.27      0.00
   -1    6    4      7.35      0.00
    0    6    4    123.60      0.00
    1    6    4    109.69      0.00
    2    6    4     14.67      0.00
    3    6    4     80.96      0.00
    4    6    4     54.10      0.00
    5    6    4    -67.69      0.00
    6    6    4    -44.57      0.00
    7    6    4     21.61      0.00
    8    6    4    -39.51      0.00
    9    6    4     22.34      0.00
   10    6    4    -28.69      0.00
   11    6    4     -1.87      0.00
   12    6    4     18.15      0.00
   13    6    4     -8.78      0.00
   14    6    4    -19.62      0.00
   15    6    4    -12.93      0.00
   16    6    4    -17.79      0.00
   17    6    4     16.09      0.00
   18    6    4     11.63      0.00
   19    6    4     18.36      0.00
   20    6    4     -7.72      0.00
   21    6    4      1.44      0.00
   22    6    4      6.19      0.00
  -23    7    4      1.90      0.00
  -22    7    4     -7.04      0.00
  -21    7    4     -0.22      0.00
  -20    7    4     26.77      0.00
  -19    7    4     -4.03      0.00
  -18    7    4      5.97      0.00
  -17    7    4     13.59      0.00
  -16    7    4     25.00      0.00
  -15    7    4     19.03      0.00
  -14    7    4      1.97      0.00
  -13    7    4    -27.71      0.00
  -12    7    4     -0.53      0.00
  -11    7    4     -4.53      0.00
  -10    7    4    -13.67      0.00
   -9    7    4     24.42      0.00
   -8    7    4     62.73      0.00
   -7    7    4      4.79      0.00
   -6    7    4     -4.42      0.00
   -5    7    4   -142.49      0.00
   -4    7    4    -15.91      0.00
   -3    7    4    141.09      0.00
   -2    7    4    129.48      0.00
   -1    7    4      2.03      0.00
    0    7    4    -85.64      0.00
    1    7    4     21.69      0.00
    2    7    4     67.99      0.00
    3    7    4    -12.26      0.00
    4    7    4     -5.15      0.00
    5    7    4    -54.94      0.00
    6    7    4     59.34      0.00
    7    7    4    -66.98      0.00
    8    7    4     45.74      0.00
    9    7    4      2.42      0.00
   10    7    4     -9.45      0.00
   11    7    4      5.97      0.00
   12    7    4    -32.74      0.00
   13    7    4     -1.34      0.00
   14    7    4      8.53      0.00
   15    7    4    -26.92      0.00
   16    7    4      2.72      0.00
   17    7    4     -7.53      0.00
   18    7    4      4.46      0.00
   19    7    4      4.39      0.00
   20    7    4      0.29      0.00
   21    7    4      0.41      0.00
   22    7    4     -7.44      0.00
  -22    8    4      8.55      0.00
  -21    8    4      2.20      0.00
  -20    8    4     10.55      0.00
  -19    8    4     -1.79      0.00
  -18    8    4    -28.68      0.00
  -17    8    4      7.32      0.00
  -16    8    4     -1.61      0.00
  -15    8    4      8.75      0.00
  -14    8    4     23.31      0.00
  -13    8    4     -3.80      0.00
  -12    8    4     -6.42      0.00
  -11    8    4    -48.88      0.00
  -10    8    4    -28.69      0.00
   -9    8    4      5.33      0.00
   -8    8    4    -37.13      0.00
   -7    8    4     -2.74      0.00
   -6    8    4     -4.56      0.00
   -5    8    4     19.22      0.00
   -4    8    4    -11.23      0.00
   -3    8    4    -34.83      0.00
   -2    8    4    -37.15      0.00
   -1    8    4    114.34      0.00
    0    8    4     -8.73      0.00
    1    8    4     22.12      0.00
    2    8    4     84.23      0.00
    3    8    4      3.24      0.00
    4    8    4    -22.72      0.00
    5    8    4    -17.22      0.00
    6    8    4     51.83      0.00
    7    8    4      6.14      0.00
    8    8    4    -19.24      0.00
    9    8    4     36.91      0.00
   10    8    4     10.52      0.00
   11    8    4    -20.90      0.00
   12    8    4     37.70      0.00
   13    8    4    -24.69      0.00
   14    8    4     -7.38      0.00
   15    8    4     17.30      0.00
   16    8    4     -7.49      0.00
   17    8    4    -23.42      0.00
   18    8    4      7.23      0.00
   19    8    4      2.80      0.00
   20    8    4      9.30      0.00
   21    8    4      3.55      0.00
   22    8    4     -2.03      0.00
  -22    9    4     10.52      0.00
  -21    9    4      1.30      0.00
  -20    9    4      1.56      0.00
  -19    9    4     18.63      0.00
  -18    9    4     -2.08      0.00
  -17    9    4      4.47      0.00
  -16    9    4     12.51      0.00
  -15    9    4     -5.61      0.00
  -14    9    4    -15.42      0.00
  -13    9    4    -28.46      0.00
  -12    9    4      6.57      0.00
  -11    9    4     53.09      0.00
  -10    9    4    -36.94      0.00
   -9    9    4     17.12      0.00
   -8    9    4     20.06      0.00
   -7    9    4     15.79      0.00
   -6    9    4     13.16      0.00
   -5    9    4    -21.33      0.00
   -4    9    4    -35.36      0.00
   -3    9    4     46.28      0.00
   -2    9    4    -71.09      0.00
   -1    9    4     45.99      0.00
    0    9    4     91.15      0.00
    1    9    4     -1.57      0.00
    2    9    4     28.42      0.00
    3    9    4     40.17      0.00
    4    9    4     -1.95      0.00
    5    9    4     -2.32      0.00
    6    9    4     21.08      0.00
    7    9    4    -21.50      0.00
    8    9    4     -4.61      0.00
    9    9    4     19.40      0.00
   10    9    4    -59.55      0.00
   11    9    4     -5.99      0.00
   12    9    4     -5.72      0.00
   13    9    4     -3.73      0.00
   14    9    4    -29.79      0.00
   15    9    4     -9.68      0.00
   16    9    4     -0.37      0.00
   17    9    4     10.19      0.00
   18    9    4     -3.53      0.00
   19    9    4      0.94      0.00
   20    9    4      2.89      0.00
   21    9    4      1.78      0.00
   22    9    4      3.73      0.00
  -22   10    4      0.10      0.00
  -21   10    4     11.77      0.00
  -20   10    4    -14.55      0.00
  -19   10    4     13.02      0.00
  -18   10    4      6.43      0.00
  -17   10    4      2.32      0.00
  -16   10    4    -12.91      0.00
  -15   10    4    -28.44      0.00
  -14   10    4     18.90      0.00
  -13   10    4     -8.92      0.00
  -12   10    4    -15.71      0.00
  -11   10    4    -15.12      0.00
  -10   10    4    -53.40      0.00
   -9   10    4      9.16      0.00
   -8   10    4     33.26      0.00
   -7   10    4     -1.54      0.00
   -6   10    4     34.81      0.00
   -5   10    4     65.26      0.00
   -4   10    4     97.80      0.00
   -3   10    4     10.67      0.00
   -2   10    4    -55.00      0.00
   -1   10    4    -67.36      0.00
    0   10    4    -33.92      0.00
    1   10    4    -76.98      0.00
    2   10    4   -165.97      0.00
    3   10    4     22.48      0.00
    4   10    4    -35.45      0.00
    5   10    4    -18.07      0.00
    6   10    4    -24.02      0.00
    7   10    4     29.80      0.00
    8   10    4    -12.85      0.00
    9   10    4    -24.68      0.00
   10   10    4      9.46      0.00
   11   10    4    -22.26      0.00
   12   10    4     49.95      0.00
   13   10    4     19.00      0.00
   14   10    4    -31.53      0.00
   15   10    4    -14.40      0.00
   16   10    4    -21.10      0.00
   17   10    4      6.08      0.00
   18   10    4     -8.47      0.00
   19   10    4      6.67      0.00
   20   10    4     -1.96      0.00
   21   10    4      3.57      0.00
   22   10    4      3.98      0.00
  -22   11    4     -3.52      0.00
  -21   11    4     10.86      0.00
  -20   11    4     -3.92      0.00
  -19   11    4    -15.65      0.00
  -18   11    4      5.74      0.00
  -17   11    4      5.27      0.00
  -16   11    4      0.80      0.00
  -15   11    4      0.64      0.00
  -14   11    4     32.02      0.00
  -13   11    4    -36.58      0.00
  -12   11    4    -47.11      0.00
  -11   11    4     -8.60      0.00
  -10   11    4    -17.62      0.00
   -9   11    4     -7.39      0.00
   -8   11    4     11.52      0.00
   -7   11    4    -13.07      0.00
   -6   11    4     56.56      0.00
   -5   11    4    -73.04      0.00
   -4   11    4     31.10      0.00
   -3   11    4    -81.72      0.00
   -2   11    4    -43.70      0.00
   -1   11    4    121.00      0.00
    0   11    4     -6.75      0.00
    1   11    4    -14.68      0.00
    2   11    4     -9.43      0.00
    3   11    4   -128.23      0.00
    4   11    4     15.00      0.00
    5   11    4    127.31      0.00
    6   11    4    -37.51      0.00
    7   11    4     -2.80      0.00
    8   11    4     -1.38      0.00
    9   11    4    -28.99      0.00
   10   11    4     24.94      0.00
   11   11    4     -4.44      0.00
   12   11    4     -6.95      0.00
   13   11    4     30.03      0.00
   14   11    4      2.80      0.00
   15   11    4     -0.79      0.00
   16   11    4      3.79      0.00
   17   11    4     12.02      0.00
   18   11    4      6.23      0.00
   19   11    4      4.74      0.00
   20   11    4     -3.50      0.00
   21   11    4     -7.71      0.00
   22   11    4      2.72      0.00
  -22   12    4     -2.87      0.00
  -21   12    4      2.65      0.00
  -20   12    4      8.83      0.00
  -19   12    4     -2.12      0.00
  -18   12    4    -12.83      0.00
  -17   12    4     14.88      0.00
  -16   12    4     -4.23      0.00
  -15   12    4    -24.48      0.00
  -14   12    4      5.98      0.00
  -13   12    4     14.29      0.00
  -12   12    4     -9.32      0.00
  -11   12    4    -34.73      0.00
  -10   12    4    -19.37      0.00
   -9   12    4     54.22      0.00
   -8   12    4     13.85      0.00
   -7   12    4    -21.60      0.00
   -6   12    4     24.44      0.00
   -5   12    4    -64.10      0.00
   -4   12    4     88.92      0.00
   -3   12    4    -70.68      0.00
   -2   12    4     22.11      0.00
   -1   12    4     80.19      0.00
    0   12    4      4.44      0.00
    1   12    4     11.87      0.00
    2   12    4    -52.09      0.00
    3   12    4      3.92      0.00
    4   12    4    128.23      0.00
    5   12    4    -44.41      0.00
    6   12    4     46.39      0.00
    7   12    4     11.80      0.00
    8   12    4      3.27      0.00
    9   12    4    -10.36      0.00
   10   12    4    -18.96      0.00
   11   12    4     -5.29      0.00
   12   12    4     -5.92      0.00
   13   12    4    -19.66      0.00
   14   12    4    -14.32      0.00
   15   12    4     17.55      0.00
   16   12    4      0.94      0.00
   17   12    4      6.15      0.00
   18   12    4    -13.31      0.00
   19   12    4     11.51      0.00
   20   12    4      4.31      0.00
   21   12    4     -7.43      0.00
  -21   13    4     -9.83      0.00
  -20   13    4     10.84      0.00
  -19   13    4     -3.95      0.00
  -18   13    4      9.38      0.00
  -17   13    4      5.56      0.00
  -16   13    4     -9.89      0.00
  -15   13    4      3.14      0.00
  -14   13    4     12.22      0.00
  -13   13    4     -1.23      0.00
  -12   13    4      7.34      0.00
  -11   13    4    -33.62      0.00
  -10   13    4      4.84      0.00
   -9   13    4     29.97      0.00
   -8   13    4      4.27      0.00
   -7   13    4     38.47      0.00
   -6   13    4    -21.63      0.00
   -5   13    4     -8.93      0.00
   -4   13    4    -16.99      0.00
   -3   13    4     42.74      0.00
   -2   13    4     66.19      0.00
   -1   13    4      5.64      0.00
    0   13    4     35.60      0.00
    1   13    4    -91.00      0.00
    2   13    4    -16.57      0.00
    3   13    4    -11.84      0.00
    4   13    4    -23.65      0.00
    5   13    4     22.32      0.00
    6   13    4    -10.84      0.00
    7   13    4    -20.61      0.00
    8   13    4     -1.84      0.00
    9   13    4     -6.58      0.00
   10   13    4     13.78      0.00
   11   13    4     -3.44      0.00
   12   13    4     -9.93      0.00
   13   13    4    -11.50      0.00
   14   13    4     -0.26      0.00
   15   13    4     -5.22      0.00
   16   13    4     14.66      0.00
   17   13    4    -11.26      0.00
   18   13    4      0.80      0.00
   19   13    4      2.52      0.00
   20   13    4     -9.13      0.00
   21   13    4      4.36      0.00
  -21   14    4     -0.91      0.00
  -20   14    4     -2.27      0.00
  -19   14    4     -7.93      0.00
  -18   14    4      1.86      0.00
  -17   14    4     -4.53      0.00
  -16   14    4      1.47      0.00
  -15   14    4     -6.91      0.00
  -14   14    4      3.93      0.00
  -13   14    4     20.69      0.00
  -12   14    4     14.65      0.00
  -11   14    4     -3.48      0.00
  -10   14    4      7.71      0.00
   -9   14    4    -11.66      0.00
   -8   14    4      4.18      0.00
   -7   14    4     36.48      0.00
   -6   14    4    -33.75      0.00
   -5   14    4    -23.66      0.00
   -4   14    4     21.93      0.00
   -3   14    4     14.61      0.00
   -2   14    4    -23.18      0.00
   -1   14    4     30.47      0.00
    0   14    4     25.18      0.00
    1   14    4      7.98      0.00
    2   14    4    -85.35      0.00
    3   14    4    -60.79      0.00
    4   14    4    -16.97      0.00
    5   14    4    -41.53      0.00
    6   14    4     14.61      0.00
    7   14    4     -4.29      0.00
    8   14    4     -1.27      0.00
    9   14    4     10.78      0.00
   10   14    4     -9.11      0.00
   11   14    4     18.58      0.00
   12   14    4    -20.53      0.00
   13   14    4     -3.41      0.00
   14   14    4      6.48      0.00
   15   14    4     -5.64      0.00
   16   14    4      8.83      0.00
   17   14    4    -11.49      0.00
   18   14    4      7.60      0.00
   19   14    4      8.75      0.00
   20   14    4      3.27      0.00
   21   14    4     -1.21      0.00
  -21   15    4     -4.72      0.00
  -20   15    4     -7.16      0.00
  -19   15    4      0.27      0.00
  -18   15    4      2.96      0.00
  -17   15    4      7.71      0.00
  -16   15    4     -4.55      0.00
  -15   15    4     12.29      0.00
  -14   15    4     -7.34      0.00
  -13   15    4    -10.93      0.00
  -12   15    4    -30.41      0.00
  -11   15    4    -23.29      0.00
  -10   15    4    -19.75      0.00
   -9   15    4     50.33      0.00
   -8   15    4     -7.68      0.00
   -7   15    4     12.81      0.00
   -6   15    4    -38.40      0.00
   -5   15    4     -7.21      0.00
   -4   15    4      7.73      0.00
   -3   15    4     52.09      0.00
   -2   15    4     41.89      0.00
   -1   15    4     50.27      0.00
    0   15    4    -23.14      0.00
    1   15    4    -21.64      0.00
    2   15    4    -39.19      0.00
    3   15    4     46.23      0.00
    4   15    4      9.62      0.00
    5   15    4    -11.63      0.00
    6   15    4     -6.62      0.00
    7   15    4     12.96      0.00
    8   15    4      2.39      0.00
    9   15    4     24.20      0.00
   10   15    4     -4.47      0.00
   11   15    4    -12.50      0.00
   12   15    4      7.71      0.00
   13   15    4    -13.01      0.00
   14   15    4     -1.69      0.00
   15   15    4     31.62      0.00
   16   15    4      2.73      0.00
   17   15    4      2.65      0.00
   18   15    4      1.94      0.00
   19   15    4      3.18      0.00
   20   15    4     -0.01      0.00
   21   15    4     -2.15      0.00
  -21   16    4      3.70      0.00
  -20   16    4     -2.62      0.00
  -19   16    4     -0.67      0.00
  -18   16    4      7.90      0.00
  -17   16    4     -8.81      0.00
  -16   16    4    -12.53      0.00
  -15   16    4      3.04      0.00
  -14   16    4    -26.28      0.00
  -13   16    4      3.79      0.00
  -12   16    4     11.05      0.00
  -11   16    4    -15.80      0.00
  -10   16    4     21.04      0.00
   -9   16    4     17.71      0.00
   -8   16    4     -2.04      0.00
   -7   16    4     25.23      0.00
   -6   16    4    -29.23      0.00
   -5   16    4     45.72      0.00
   -4   16    4     22.81      0.00
   -3   16    4     50.20      0.00
   -2   16    4    -57.24      0.00
   -1   16    4     29.13      0.00
    0   16    4     95.72      0.00
    1   16    4    -53.19      0.00
    2   16    4    -20.52      0.00
    3   16    4    -12.06      0.00
    4   16    4    -34.93      0.00
    5   16    4     39.38      0.00
    6   16    4    -23.23      0.00
    7   16    4     -7.26      0.00
    8   16    4      2.91      0.00
    9   16    4     -1.06      0.00
   10   16    4      9.21      0.00
   11   16    4     14.37      0.00
   12   16    4    -21.76      0.00
   13   16    4     -0.46      0.00
   14   16    4      2.17      0.00
   15   16    4    -28.38      0.00
   16   16    4    -17.01      0.00
   17   16    4    -18.71      0.00
   18   16    4     -7.17      0.00
   19   16    4     -6.71      0.00
   20   16    4      4.38      0.00
  -20   17    4     -4.74      0.00
  -19   17    4     -7.13      0.00
  -18   17    4     -0.33      0.00
  -17   17    4      2.94      0.00
  -16   17    4     -2.19      0.00
  -15   17    4     -0.48      0.00
  -14   17    4     10.13      0.00
  -13   17    4      1.91      0.00
  -12   17    4      9.35      0.00
  -11   17    4    -42.15      0.00
  -10   17    4     10.63      0.00
   -9   17    4     -5.04      0.00
   -8   17    4     -5.44      0.00
   -7   17    4      3.65      0.00
   -6   17    4     15.81      0.00
   -5   17    4      0.06      0.00
   -4   17    4      9.46      0.00
   -3   17    4    -33.10      0.00
   -2   17    4     -0.92      0.00
   -1   17    4    -38.38      0.00
    0   17    4      8.72      0.00
    1   17    4     15.69      0.00
    2   17    4     15.00      0.00
    3   17    4    -18.21      0.00
    4   17    4    -18.16      0.00
    5   17    4    -24.03      0.00
    6   17    4     35.33      0.00
    7   17    4     -8.34      0.00
    8   17    4    -11.91      0.00
    9   17    4      6.70      0.00
   10   17    4    -16.54      0.00
   11   17    4      1.86      0.00
   12   17    4      4.11      0.00
   13   17    4      2.26      0.00
   14   17    4      8.57      0.00
   15   17    4      7.71      0.00
   16   17    4    -12.29      0.00
   17   17    4     11.60      0.00
   18   17    4      0.12      0.00
   19   17    4      1.49      0.00
   20   17    4     -0.51      0.00
  -20   18    4     -0.24      0.00
  -19   18    4     -2.42      0.00
  -18   18    4     -4.57      0.00
  -17   18    4    -11.73      0.00
  -16   18    4      3.13      0.00
  -15   18    4      0.19      0.00
  -14   18    4     -6.21      0.00
  -13   18    4     -7.90      0.00
  -12   18    4    -15.37      0.00
  -11   18    4    -42.87      0.00
  -10   18    4     -1.47      0.00
   -9   18    4     -5.23      0.00
   -8   18    4      1.15      0.00
   -7   18    4    -33.48      0.00
   -6   18    4    -44.27      0.00
   -5   18    4     -6.03      0.00
   -4   18    4    -12.09      0.00
   -3   18    4    -10.04      0.00
   -2   18    4    109.81      0.00
   -1   18    4    -33.74      0.00
    0   18    4    -42.67      0.00
    1   18    4     16.18      0.00
    2   18    4      0.96      0.00
    3   18    4    -13.58      0.00
    4   18    4     38.39      0.00
    5   18    4      8.67      0.00
    6   18    4    -21.78      0.00
    7   18    4     -2.96      0.00
    8   18    4     -4.27      0.00
    9   18    4     15.78      0.00
   10   18    4      5.10      0.00
   11   18    4     -2.58      0.00
   12   18    4     17.19      0.00
   13   18    4    -12.51      0.00
   14   18    4     -4.30      0.00
   15   18    4     19.15      0.00
   16   18    4      4.62      0.00
   17   18    4     -9.69      0.00
   18   18    4      6.76      0.00
   19   18    4      6.69      0.00
   20   18    4     -3.91      0.00
  -20   19    4     -5.57      0.00
  -19   19    4      0.11      0.00
  -18   19    4     -6.02      0.00
  -17   19    4      6.07      0.00
  -16   19    4     -6.27      0.00
  -15   19    4     15.61      0.00
  -14   19    4     -8.43      0.00
  -13   19    4     -3.43      0.00
  -12   19    4     -2.51      0.00
  -11   19    4     -1.84      0.00
  -10   19    4     21.74      0.00
   -9   19    4    -12.12      0.00
   -8   19    4      7.04      0.00
   -7   19    4      3.82      0.00
   -6   19    4     13.23      0.00
   -5   19    4     59.55      0.00
   -4   19    4     10.14      0.00
   -3   19    4    -17.98      0.00
   -2   19    4     21.94      0.00
   -1   19    4     -3.39      0.00
    0   19    4     25.59      0.00
    1   19    4     36.03      0.00
    2   19    4    -61.33      0.00
    3   19    4      5.59      0.00
    4   19    4     23.32      0.00
    5   19    4    -11.03      0.00
    6   19    4     20.36      0.00
    7   19    4    -21.54      0.00
    8   19    4      6.16      0.00
    9   19    4      5.50      0.00
   10   19    4     12.58      0.00
   11   19    4    -10.24      0.00
   12   19    4     -6.77      0.00
   13   19    4      8.17      0.00
   14   19    4     -2.06      0.00
   15   19    4    -14.98      0.00
   16   19    4     12.47      0.00
   17   19    4    -15.73      0.00
   18   19    4      7.45      0.00
   19   19    4     -6.37      0.00
  -19   20    4      2.86      0.00
  -18   20    4      6.51      0.00
  -17   20    4     -2.19      0.00
  -16   20    4    -12.25      0.00
  -15   20    4      4.86      0.00
  -14   20    4     10.72      0.00
  -13   20    4      8.15      0.00
  -12   20    4     14.23      0.00
  -11   20    4     19.83      0.00
  -10   20    4     -4.56      0.00
   -9   20    4      4.22      0.00
   -8   20    4      4.68      0.00
   -7   20    4     13.05      0.00
   -6   20    4     -3.33      0.00
   -5   20    4     -0.31      0.00
   -4   20    4     -9.44      0.00
   -3   20    4      0.35      0.00
   -2   20    4      5.25      0.00
   -1   20    4     11.15      0.00
    0   20    4     21.70      0.00
    1   20    4    -19.91      0.00
    2   20    4    -38.70      0.00
    3   20    4     -8.88      0.00
    4   20    4    -23.39      0.00
    5   20    4     -1.77      0.00
    6   20    4      8.76      0.00
    7   20    4     -0.56      0.00
    8   20    4    -13.45      0.00
    9   20    4     -8.54      0.00
   10   20    4     14.43      0.00
   11   20    4    -20.89      0.00
   12   20    4     19.73      0.00
   13   20    4     13.90      0.00
   14   20    4     -9.21      0.00
   15   20    4      2.87      0.00
   16   20    4     -2.90      0.00
   17   20    4     10.12      0.00
   18   20    4     -1.35      0.00
   19   20    4      1.49      0.00
  -19   21    4      3.89      0.00
  -18   21    4     -1.23      0.00
  -17   21    4      3.84      0.00
  -16   21    4     12.81      0.00
  -15   21    4      0.84      0.00
  -14   21    4      5.06      0.00
  -13   21    4     -7.75      0.00
  -12   21    4    -19.24      0.00
  -11   21    4     15.74      0.00
  -10   21    4     12.36      0.00
   -9   21    4     -2.19      0.00
   -8   21    4     -7.23      0.00
   -7   21    4    -13.15      0.00
   -6   21    4    -24.19      0.00
   -5   21    4     16.06      0.00
   -4   21    4      2.64      0.00
   -3   21    4    -18.64      0.00
   -2   21    4     20.62      0.00
   -1   21    4     11.43      0.00
    0   21    4    -55.58      0.00
    1   21    4      3.44      0.00
    2   21    4     10.42      0.00
    3   21    4     16.32      0.00
    4   21    4     -2.75      0.00
    5   21    4      5.64      0.00
    6   21    4     -4.50      0.00
    7   21    4    -12.01      0.00
    8   21    4     -8.35      0.00
    9   21    4     -8.58      0.00
   10   21    4     11.89      0.00
   11   21    4     24.57      0.00
   12   21    4     -3.80      0.00
   13   21    4     10.91      0.00
   14   21    4     -0.19      0.00
   15   21    4      2.94      0.00
   16   21    4     -0.75      0.00
   17   21    4     -1.60      0.00
   18   21    4      7.39      0.00
  -18   22    4      3.76      0.00
  -17   22    4     -0.54      0.00
  -16   22    4      0.52      0.00
  -15   22    4      5.52      0.00
  -14   22    4     -9.90      0.00
  -13   22    4     -5.66      0.00
  -12   22    4      4.28      0.00
  -11   22    4      3.29      0.00
  -10   22    4     27.64      0.00
   -9   22    4      0.95      0.00
   -8   22    4     13.71      0.00
   -7   22    4    -10.31      0.00
   -6   22    4     -9.33      0.00
   -5   22    4      3.53      0.00
   -4   22    4      5.43      0.00
   -3   22    4    -24.62      0.00
   -2   22    4     -0.17      0.00
   -1   22    4     14.62      0.00
    0   22    4    -26.63      0.00
    1   22    4     16.40      0.00
    2   22    4    -32.53      0.00
    3   22    4    -21.00      0.00
    4   22    4      6.07      0.00
    5   22    4     -1.30      0.00
    6   22    4     22.17      0.00
    7   22    4     -8.19      0.00
    8   22    4     -5.49      0.00
    9   22    4    -16.30      0.00
   10   22    4     -3.58      0.00
   11   22    4      1.56      0.00
   12   22    4      0.49      0.00
   13   22    4     10.01      0.00
   14   22    4     21.71      0.00
   15   22    4      4.96      0.00
   16   22    4      1.43      0.00
   17   22    4     -5.67      0.00
   18   22    4     -1.92      0.00
  -18   23    4     -1.25      0.00
  -17   23    4    -11.93      0.00
  -16   23    4      5.69      0.00
  -15   23    4      3.03      0.00
  -14   23    4     -7.76      0.00
  -13   23    4      6.74      0.00
  -12   23    4      3.06      0.00
  -11   23    4    -17.46      0.00
  -10   23    4    -18.18      0.00
   -9   23    4     -0.38      0.00
   -8   23    4      2.00      0.00
   -7   23    4     13.01      0.00
   -6   23    4      4.57      0.00
   -5   23    4      0.36      0.00
   -4   23    4    -21.36      0.00
   -3   23    4     16.38      0.00
   -2   23    4     -1.01      0.00
   -1   23    4    -24.75      0.00
    0   23    4     -7.10      0.00
    1   23    4    -13.17      0.00
    2   23    4     46.67      0.00
    3   23    4     43.28      0.00
    4   23    4     -9.07      0.00
    5   23    4     -8.27      0.00
    6   23    4      3.39      0.00
    7   23    4     -1.44      0.00
    8   23    4    -13.52      0.00
    9   23    4      6.69      0.00
   10   23    4     -5.59      0.00
   11   23    4      0.79      0.00
   12   23    4     -1.41      0.00
   13   23    4    -15.03      0.00
   14   23    4      1.43      0.00
   15   23    4     -6.18      0.00
   16   23    4      5.80      0.00
   17   23    4      9.41      0.00
  -17   24    4     -2.38      0.00
  -16   24    4      4.87      0.00
  -15   24    4    -13.47      0.00
  -14   24    4     -0.72      0.00
  -13   24    4      9.89      0.00
  -12   24    4      9.66      0.00
  -11   24    4     16.04      0.00
  -10   24    4     -5.26      0.00
   -9   24    4     -8.32      0.00
   -8   24    4    -12.92      0.00
   -7   24    4    -10.81      0.00
   -6   24    4     10.74      0.00
   -5   24    4    -14.64      0.00
   -4   24    4     -7.43      0.00
   -3   24    4     24.72      0.00
   -2   24    4      8.46      0.00
   -1   24    4      9.75      0.00
    0   24    4     -9.29      0.00
    1   24    4      4.56      0.00
    2   24    4     16.09      0.00
    3   24    4     -1.37      0.00
    4   24    4     -5.86      0.00
    5   24    4     36.69      0.00
    6   24    4    -16.55      0.00
    7   24    4    -14.53      0.00
    8   24    4     -9.78      0.00
    9   24    4     -3.88      0.00
   10   24    4    -15.62      0.00
   11   24    4      5.63      0.00
   12   24    4     -5.38      0.00
   13   24    4     -2.45      0.00
   14   24    4     -2.84      0.00
   15   24    4      3.68      0.00
   16   24    4      6.29      0.00
   17   24    4      0.15      0.00
  -16   25    4      5.33      0.00
  -15   25    4     15.55      0.00
  -14   25    4     -0.66      0.00
  -13   25    4     -3.41      0.00
  -12   25    4     -2.01      0.00
  -11   25    4     -8.21      0.00
  -10   25    4     32.48      0.00
   -9   25    4     11.31      0.00
   -8   25    4      0.87      0.00
   -7   25    4    -15.79      0.00
   -6   25    4      2.42      0.00
   -5   25    4    -12.33      0.00
   -4   25    4     -0.47      0.00
   -3   25    4     -7.28      0.00
   -2   25    4    -25.57      0.00
   -1   25    4    -33.14      0.00
    0   25    4     19.32      0.00
    1   25    4    -22.03      0.00
    2   25    4     20.82      0.00
    3   25    4     24.84      0.00
    4   25    4      0.62      0.00
    5   25    4    -13.91      0.00
    6   25    4      3.08      0.00
    7   25    4     31.49      0.00
    8   25    4     15.52      0.00
    9   25    4      2.89      0.00
   10   25    4      2.20      0.00
   11   25    4     13.39      0.00
   12   25    4     -5.88      0.00
   13   25    4     -2.86      0.00
   14   25    4      5.22      0.00
   15   25    4     -6.54      0.00
   16   25    4      7.57      0.00
  -16   26    4     -4.31      0.00
  -15   26    4     -3.79      0.00
  -14   26    4     -4.83      0.00
  -13   26    4      9.99      0.00
  -12   26    4    -19.56      0.00
  -11   26    4      7.45      0.00
  -10   26    4     -3.14      0.00
   -9   26    4     -0.82      0.00
   -8   26    4    -16.75      0.00
   -7   26    4     13.51      0.00
   -6   26    4     -3.53      0.00
   -5   26    4     -6.11      0.00
   -4   26    4     10.50      0.00
   -3   26    4     -5.26      0.00
   -2   26    4    -22.56      0.00
   -1   26    4      5.78      0.00
    0   26    4     19.13      0.00
    1   26    4     -5.23      0.00
    2   26    4     33.12      0.00
    3   26    4     23.21      0.00
    4   26    4      5.32      0.00
    5   26    4     -2.08      0.00
    6   26    4     19.97      0.00
    7   26    4      8.11      0.00
    8   26    4     10.02      0.00
    9   26    4      1.14      0.00
   10   26    4    -13.58      0.00
   11   26    4      4.20      0.00
   12   26    4      5.86      0.00
   13   26    4     -5.64      0.00
   14   26    4      1.39      0.00
   15   26    4      5.83      0.00
   16   26    4      1.52      0.00
  -15   27    4     -4.73      0.00
  -14   27    4      2.17      0.00
  -13   27    4     -0.74      0.00
  -12   27    4     -2.61      0.00
  -11   27    4     13.32      0.00
  -10   27    4    -13.57      0.00
   -9   27    4     -5.02      0.00
   -8   27    4     -6.14      0.00
   -7   27    4      6.99      0.00
   -6   27    4      8.86      0.00
   -5   27    4     -1.33      0.00
   -4   27    4      7.69      0.00
   -3   27    4     -6.00      0.00
   -2   27    4    -18.18      0.00
   -1   27    4      7.47      0.00
    0   27    4    -24.12      0.00
    1   27    4     -8.00      0.00
    2   27    4     -6.44      0.00
    3   27    4     -1.73      0.00
    4   27    4    -11.85      0.00
    5   27    4      6.90      0.00
    6   27    4    -14.51      0.00
    7   27    4     -4.01      0.00
    8   27    4     12.26      0.00
    9   27    4      5.73      0.00
   10   27    4     -2.88      0.00
   11   27    4     -2.65      0.00
   12   27    4     -3.07      0.00
   13   27    4     -5.39      0.00
   14   27    4     -3.34      0.00
   15   27    4     -7.31      0.00
  -14   28    4      6.44      0.00
  -13   28    4    -11.44      0.00
  -12   28    4      2.93      0.00
  -11   28    4     -7.59      0.00
  -10   28    4     13.13      0.00
   -9   28    4      9.28      0.00
   -8   28    4     -0.24      0.00
   -7   28    4     -8.58      0.00
   -6   28    4     12.38      0.00
   -5   28    4     -4.94      0.00
   -4   28    4    -12.05      0.00
   -3   28    4    -12.45      0.00
   -2   28    4      5.54      0.00
   -1   28    4     -8.64      0.00
    0   28    4    -12.99      0.00
    1   28    4      6.76      0.00
    2   28    4     10.01      0.00
    3   28    4    -32.72      0.00
    4   28    4      7.02      0.00
    5   28    4     -2.76      0.00
    6   28    4      3.43      0.00
    7   28    4      5.51      0.00
    8   28    4    -11.19      0.00
    9   28    4     -1.74      0.00
   10   28    4     22.17      0.00
   11   28    4      3.35      0.00
   12   28    4      6.76      0.00
   13   28    4      6.29      0.00
   14   28    4     -4.38      0.00
  -14   29    4      0.92      0.00
  -13   29    4     -3.85      0.00
  -12   29    4     -5.91      0.00
  -11   29    4     -2.25      0.00
  -10   29    4    -12.43      0.00
   -9   29    4     -2.49      0.00
   -8   29    4     -1.75      0.00
   -7   29    4    -12.16      0.00
   -6   29    4     17.04      0.00
   -5   29    4     13.23      0.00
   -4   29    4      6.31      0.00
   -3   29    4      8.04      0.00
   -2   29    4     -5.31      0.00
   -1   29    4     -7.64      0.00
    0   29    4      5.72      0.00
    1   29    4      4.98      0.00
    2   29    4     -3.94      0.00
    3   29    4     -2.99      0.00
    4   29    4     11.32      0.00
    5   29    4      3.57      0.00
    6   29    4     12.71      0.00
    7   29    4     -5.86      0.00
    8   29    4     -9.40      0.00
    9   29    4    -10.81      0.00
   10   29    4     17.24      0.00
   11   29    4      8.14      0.00
   12   29    4      3.06      0.00
   13   29    4     -1.29      0.00
  -13   30    4      4.63      0.00
  -12   30    4      8.61      0.00
  -11   30    4      7.85      0.00
  -10   30    4      8.57      0.00
   -9   30    4     -4.39      0.00
   -8   30    4     -2.69      0.00
   -7   30    4     11.78      0.00
   -6   30    4      3.04      0.00
   -5   30    4    -12.40      0.00
   -4   30    4    -11.12      0.00
   -3   30    4     19.35      0.00
   -2   30    4      6.11      0.00
   -1   30    4     -0.01      0.00
    0   30    4      4.20      0.00
    1   30    4     -2.49      0.00
    2   30    4     -7.67      0.00
    3   30    4      5.25      0.00
    4   30    4    -23.09      0.00
    5   30    4      5.47      0.00
    6   30    4     -0.65      0.00
    7   30    4    -15.69      0.00
    8   30    4     -3.99      0.00
    9   30    4      0.33      0.00
   10   30    4      4.36      0.00
   11   30    4      8.19      0.00
   12   30    4     -8.11      0.00
  -12   31    4    -11.54      0.00
  -11   31    4      2.35      0.00
  -10   31    4     -4.67      0.00
   -9   31    4      1.24      0.00
   -8   31    4     -8.34      0.00
   -7   31    4      7.40      0.00
   -6   31    4     -6.06      0.00
   -5   31    4    -17.87      0.00
   -4   31    4      3.71      0.00
   -3   31    4     -0.23      0.00
   -2   31    4     -8.99      0.00
   -1   31    4      0.35      0.00
    0   31    4    -14.24      0.00
    1   31    4    -17.15      0.00
    2   31    4     -3.35      0.00
    3   31    4     11.48      0.00
    4   31    4      4.86      0.00
    5   31    4      4.15      0.00
    6   31    4    -13.14      0.00
    7   31    4    -16.72      0.00
    8   31    4      0.68      0.00
    9   31    4      9.66      0.00
   10   31    4     -3.04      0.00
   11   31    4      0.04      0.00
  -10   32    4      1.85      0.00
   -9   32    4     -5.93      0.00
   -8   32    4    -10.39      0.00
   -7   32    4     -2.06      0.00
   -6   32    4     -6.41      0.00
   -5   32    4      5.91      0.00
   -4   32    4      1.28      0.00
   -3   32    4      8.61      0.00
   -2   32    4     17.24      0.00
   -1   32    4      5.27      0.00
    0   32    4     -5.66      0.00
    1   32    4      8.78      0.00
    2   32    4    -10.13      0.00
    3   32    4     10.53      0.00
    4   32    4     -4.51      0.00
    5   32    4     -4.20      0.00
    6   32    4      5.86      0.00
    7   32    4     -3.32      0.00
    8   32    4      4.63      0.00
    9   32    4      0.51      0.00
   10   32    4      5.68      0.00
   -9   33    4     -8.75      0.00
   -8   33    4      7.53      0.00
   -7   33    4      7.83      0.00
   -6   33    4     -9.08      0.00
   -5   33    4     -9.78      0.00
   -4   33    4      0.48      0.00
   -3   33    4    -10.40      0.00
   -2   33    4      5.93      0.00
   -1   33    4     18.52      0.00
    0   33    4      4.63      0.00
    1   33    4      0.79      0.00
    2   33    4    -10.12      0.00
    3   33    4     16.70      0.00
    4   33    4      2.56      0.00
    5   33    4     -2.48      0.00
    6   33    4     10.98      0.00
    7   33    4     -8.83      0.00
    8   33    4     -0.92      0.00
    9   33    4     19.99      0.00
   -7   34    4      0.45      0.00
   -6   34    4     13.08      0.00
   -5   34    4      2.54      0.00
   -4   34    4     -3.54      0.00
   -3   34    4     -7.71      0.00
   -2   34    4     -5.57      0.00
   -1   34    4     -5.04      0.00
    0   34    4      3.78      0.00
    1   34    4     -7.95      0.00
    2   34    4      1.11      0.00
    3   34    4      7.84      0.00
    4   34    4      0.00      0.00
    5   34    4    -14.14      0.00
    6   34    4     -0.65      0.00
    7   34    4      2.69      0.00
   -5   35    4      5.75      0.00
   -4   35    4    -13.57      0.00
   -3   35    4      2.82      0.00
   -2   35    4      4.40      0.00
   -1   35    4    -15.98      0.00
    0   35    4     12.21      0.00
    1   35    4     11.42      0.00
    2   35    4      1.65      0.00
    3   35    4     -4.29      0.00
    4   35    4      9.05      0.00
    5   35    4     -7.86      0.00
   -1   36    4     10.76      0.00
    0   36    4      8.40      0.00
    1   36    4    -10.51      0.00
  -23    1    5      0.19      0.00
  -22    1    5      9.98      0.00
  -21    1    5      7.76      0.00
  -20    1    5     -7.27      0.00
  -19    1    5     13.53      0.00
  -18    1    5     -2.20      0.00
  -17    1    5     11.32      0.00
  -16    1    5    -13.61      0.00
  -15    1    5      5.12      0.00
  -14    1    5    -19.17      0.00
  -13    1    5      2.76      0.00
  -12    1    5     81.37      0.00
  -11    1    5    -44.85      0.00
  -10    1    5     40.88      0.00
   -9    1    5    -18.09      0.00
   -8    1    5     17.21      0.00
   -7    1    5      5.91      0.00
   -6    1    5   -106.41      0.00
   -5    1    5     57.21      0.00
   -4    1    5     13.11      0.00
   -3    1    5    144.67      0.00
   -2    1    5     33.14      0.00
   -1    1    5   -149.92      0.00
    0    1    5    117.64      0.00
    1    1    5    -55.87      0.00
    2    1    5   -113.34      0.00
    3    1    5     31.23      0.00
    4    1    5    105.86      0.00
    5    1    5     27.74      0.00
    6    1    5    -95.54      0.00
    7    1    5    -20.50      0.00
    8    1    5     20.08      0.00
    9    1    5     28.71      0.00
   10    1    5     51.16      0.00
   11    1    5      1.14      0.00
   12    1    5    -35.71      0.00
   13    1    5     17.32      0.00
   14    1    5     15.99      0.00
   15    1    5     17.16      0.00
   16    1    5      5.26      0.00
   17    1    5     -4.23      0.00
   18    1    5     -2.72      0.00
   19    1    5      5.20      0.00
   22    1    5      0.35      0.00
   23    1    5     -4.95      0.00
  -23    2    5      5.21      0.00
  -22    2    5      6.03      0.00
  -21    2    5     -0.26      0.00
  -20    2    5      0.43      0.00
  -19    2    5     15.27      0.00
  -18    2    5     -9.27      0.00
  -17    2    5     22.46      0.00
  -16    2    5    -19.85      0.00
  -15    2    5     -6.37      0.00
  -14    2    5     -3.62      0.00
  -13    2    5      2.47      0.00
  -12    2    5    -18.75      0.00
  -11    2    5    -15.62      0.00
  -10    2    5    -14.47      0.00
   -9    2    5    -34.28      0.00
   -8    2    5     -7.68      0.00
   -7    2    5   -117.42      0.00
   -6    2    5     25.94      0.00
   -5    2    5     44.21      0.00
   -4    2    5     46.19      0.00
   -3    2    5    -19.81      0.00
   -2    2    5     78.12      0.00
   -1    2    5   -152.03      0.00
    0    2    5    -14.00      0.00
    1    2    5     59.91      0.00
    2    2    5     48.31      0.00
    3    2    5    112.94      0.00
    4    2    5     73.03      0.00
    5    2    5    -61.49      0.00
    6    2    5    -36.68      0.00
    7    2    5     -6.71      0.00
    8    2    5    103.77      0.00
    9    2    5     16.68      0.00
   10    2    5    -21.51      0.00
   11    2    5      4.58      0.00
   12    2    5     -5.21      0.00
   13    2    5     -4.57      0.00
   14    2    5     29.90      0.00
   15    2    5    -38.75      0.00
   16    2    5     -1.06      0.00
   17    2    5    -26.21      0.00
   18    2    5    -17.04      0.00
   19    2    5      5.32      0.00
   20    2    5    -28.50      0.00
   22    2    5    -10.20      0.00
   23    2    5      7.39      0.00
  -23    3    5      2.75      0.00
  -22    3    5     -0.61      0.00
  -21    3    5    -15.23      0.00
  -20    3    5      5.47      0.00
  -19    3    5     -0.43      0.00
  -18    3    5    -13.68      0.00
  -17    3    5     20.05      0.00
  -16    3    5     13.58      0.00
  -15    3    5    -32.59      0.00
  -14    3    5    -40.01      0.00
  -13    3    5    -24.33      0.00
  -12    3    5     15.47      0.00
  -11    3    5     42.76      0.00
  -10    3    5    -16.69      0.00
   -9    3    5    -40.07      0.00
   -8    3    5    -17.67      0.00
   -7    3    5    -51.47      0.00
   -6    3    5    -12.76      0.00
   -5    3    5    106.15      0.00
   -4    3    5      6.92      0.00
   -3    3    5    -94.51      0.00
   -2    3    5     -8.52      0.00
   -1    3    5     23.58      0.00
    0    3    5    -27.14      0.00
    1    3    5     32.86      0.00
    2    3    5   -127.00      0.00
    3    3    5     40.96      0.00
    4    3    5     52.23      0.00
    5    3    5    -19.27      0.00
    6    3    5     -5.32      0.00
    7    3    5     10.10      0.00
    8    3    5      5.60      0.00
    9    3    5    -23.24      0.00
   10    3    5    -34.96      0.00
   11    3    5     -6.75      0.00
   12    3    5     12.67      0.00
   13    3    5    -33.40      0.00
   14    3    5     10.41      0.00
   15    3    5    -27.19      0.00
   16    3    5    -17.58      0.00
   17    3    5     19.05      0.00
   18    3    5     19.89      0.00
   19    3    5      7.59      0.00
   20    3    5      7.29      0.00
   21    3    5     10.67      0.00
   22    3    5     -0.18      0.00
  -23    4    5      7.07      0.00
  -22    4    5      3.47      0.00
  -21    4    5    -16.58      0.00
  -20    4    5      6.01      0.00
  -19    4    5     11.25      0.00
  -18    4    5     12.11      0.00
  -17    4    5    -20.56      0.00
  -16    4    5    -17.12      0.00
  -15    4    5     27.10      0.00
  -14    4    5     33.58      0.00
  -13    4    5      4.36      0.00
  -12    4    5     31.40      0.00
  -11    4    5    -15.90      0.00
  -10    4    5      3.54      0.00
   -9    4    5     -1.45      0.00
   -8    4    5      9.14      0.00
   -7    4    5     38.10      0.00
   -6    4    5     47.95      0.00
   -5    4    5    -70.63      0.00
   -4    4    5     43.07      0.00
   -3    4    5   -119.94      0.00
   -2    4    5   -119.88      0.00
   -1    4    5    149.39      0.00
    0    4    5     -6.62      0.00
    1    4    5    -41.61      0.00
    2    4    5     15.08      0.00
    3    4    5     30.33      0.00
    4    4    5     38.68      0.00
    5    4    5    -32.09      0.00
    6    4    5     -0.24      0.00
    7    4    5    -25.14      0.00
    8    4    5    -23.53      0.00
    9    4    5     34.59      0.00
   10    4    5    -20.12      0.00
   11    4    5     17.71      0.00
   12    4    5     -0.03      0.00
   13    4    5    -19.21      0.00
   14    4    5      2.54      0.00
   15    4    5     -6.99      0.00
   16    4    5     -6.86      0.00
   17    4    5     -1.15      0.00
   18    4    5     -1.22      0.00
   19    4    5      7.85      0.00
   20    4    5     -7.84      0.00
   21    4    5      1.52      0.00
   22    4    5     -0.56      0.00
  -23    5    5      2.51      0.00
  -22    5    5      1.67      0.00
  -21    5    5      1.23      0.00
  -20    5    5    -14.74      0.00
  -19    5    5     11.79      0.00
  -18    5    5     36.79      0.00
  -17    5    5     11.45      0.00
  -16    5    5     -5.99      0.00
  -15    5    5     -5.99      0.00
  -14    5    5     -9.31      0.00
  -13    5    5     -3.07      0.00
  -12    5    5    -49.79      0.00
  -11    5    5     32.27      0.00
  -10    5    5    -20.05      0.00
   -9    5    5     59.62      0.00
   -8    5    5    -16.98      0.00
   -7    5    5    -37.48      0.00
   -6    5    5     43.49      0.00
   -5    5    5      3.25      0.00
   -4    5    5     41.47      0.00
   -3    5    5    -18.45      0.00
   -2    5    5    -44.15      0.00
   -1    5    5    -81.72      0.00
    0    5    5     60.94      0.00
    1    5    5    -18.19      0.00
    2    5    5     14.85      0.00
    3    5    5    -16.08      0.00
    4    5    5     58.66      0.00
    5    5    5    -34.45      0.00
    6    5    5    -16.34      0.00
    7    5    5      2.68      0.00
    8    5    5     13.76      0.00
    9    5    5     20.20      0.00
   10    5    5    -21.05      0.00
   11    5    5    -15.63      0.00
   12    5    5     46.74      0.00
   13    5    5     17.34      0.00
   14    5    5     29.52      0.00
   15    5    5      5.43      0.00
   16    5    5     -5.46      0.00
   17    5    5     27.28      0.00
   18    5    5     -7.33      0.00
   19    5    5      8.95      0.00
   20    5    5      4.79      0.00
   21    5    5      2.39      0.00
   22    5    5     -2.17      0.00
  -23    6    5      1.48      0.00
  -22    6    5      9.06      0.00
  -21    6    5      6.72      0.00
  -20    6    5     -4.81      0.00
  -19    6    5    -19.66      0.00
  -18    6    5     -7.41      0.00
  -17    6    5      9.60      0.00
  -16    6    5    -19.30      0.00
  -15    6    5     -2.88      0.00
  -14    6    5    -21.94      0.00
  -13    6    5     30.51      0.00
  -12    6    5    -54.86      0.00
  -11    6    5     38.03      0.00
  -10    6    5      9.98      0.00
   -9    6    5     33.22      0.00
   -8    6    5     36.18      0.00
   -7    6    5     29.27      0.00
   -6    6    5     -1.15      0.00
   -5    6    5     55.28      0.00
   -4    6    5    -47.41      0.00
   -3    6    5    140.86      0.00
   -2    6    5     70.87      0.00
   -1    6    5    159.51      0.00
    0    6    5    -70.09      0.00
    1    6    5     12.14      0.00
    2    6    5    -89.61      0.00
    3    6    5    -49.08      0.00
    4    6    5      4.32      0.00
    5    6    5     -7.76      0.00
    6    6    5     -3.31      0.00
    7    6    5     33.51      0.00
    8    6    5    -12.41      0.00
    9    6    5    -12.72      0.00
   10    6    5     -2.64      0.00
   11    6    5     -9.53      0.00
   12    6    5      7.67      0.00
   13    6    5     -2.11      0.00
   14    6    5     -1.77      0.00
   15    6    5      9.73      0.00
   16    6    5     -3.40      0.00
   17    6    5      0.27      0.00
   18    6    5    -13.27      0.00
   19    6    5    -18.81      0.00
   20    6    5     10.61      0.00
   21    6    5     -4.91      0.00
   22    6    5     -2.36      0.00
  -22    7    5    -20.41      0.00
  -21    7    5      4.28      0.00
  -20    7    5      1.05      0.00
  -19    7    5     -5.24      0.00
  -18    7    5     13.54      0.00
  -17    7    5    -28.71      0.00
  -16    7    5     10.76      0.00
  -15    7    5      6.29      0.00
  -14    7    5      5.62      0.00
  -13    7    5     16.41      0.00
  -12    7    5     20.76      0.00
  -11    7    5    -44.34      0.00
  -10    7    5     29.93      0.00
   -9    7    5     25.05      0.00
   -8    7    5     12.35      0.00
   -7    7    5     35.91      0.00
   -6    7    5    -49.11      0.00
   -5    7    5    -35.59      0.00
   -4    7    5     36.30      0.00
   -3    7    5      9.49      0.00
   -2    7    5     56.29      0.00
   -1    7    5     56.34      0.00
    0    7    5   -126.41      0.00
    1    7    5     11.19      0.00
    2    7    5     22.08      0.00
    3    7    5    -33.82      0.00
    4    7    5    -71.37      0.00
    5    7    5     20.30      0.00
    6    7    5      1.96      0.00
    7    7    5      4.64      0.00
    8    7    5     -7.36      0.00
    9    7    5     -0.46      0.00
   10    7    5    -26.70      0.00
   11    7    5    -15.63      0.00
   12    7    5    -11.01      0.00
   13    7    5     -1.82      0.00
   14    7    5    -15.66      0.00
   15    7    5     11.01      0.00
   16    7    5      0.30      0.00
   17    7    5     10.33      0.00
   18    7    5     -0.54      0.00
   19    7    5    -11.31      0.00
   20    7    5    -18.64      0.00
   21    7    5     -3.75      0.00
   22    7    5      2.46      0.00
  -22    8    5     -8.40      0.00
  -21    8    5      4.76      0.00
  -20    8    5      6.83      0.00
  -19    8    5      9.30      0.00
  -18    8    5     -0.79      0.00
  -17    8    5    -28.10      0.00
  -16    8    5      7.52      0.00
  -15    8    5    -20.27      0.00
  -14    8    5     20.05      0.00
  -13    8    5     15.29      0.00
  -12    8    5      6.02      0.00
  -11    8    5    -30.97      0.00
  -10    8    5      8.93      0.00
   -9    8    5    -35.04      0.00
   -8    8    5     24.67      0.00
   -7    8    5    -30.29      0.00
   -6    8    5      1.47      0.00
   -5    8    5     50.10      0.00
   -4    8    5    -16.79      0.00
   -3    8    5    -28.12      0.00
   -2    8    5    -21.68      0.00
   -1    8    5     60.42      0.00
    0    8    5     56.16      0.00
    1    8    5   -139.45      0.00
    2    8    5     52.35      0.00
    3    8    5   -140.21      0.00
    4    8    5    -45.84      0.00
    5    8    5    -66.51      0.00
    6    8    5    -18.63      0.00
    7    8    5     41.67      0.00
    8    8    5    -14.44      0.00
    9    8    5     15.40      0.00
   10    8    5     10.87      0.00
   11    8    5    -25.61      0.00
   12    8    5     28.32      0.00
   13    8    5     -7.98      0.00
   14    8    5     -5.48      0.00
   15    8    5     27.25      0.00
   16    8    5     11.67      0.00
   17    8    5     -8.46      0.00
   18    8    5      4.36      0.00
   19    8    5     -1.98      0.00
   20    8    5      4.81      0.00
   21    8    5     -0.78      0.00
   22    8    5     -0.79      0.00
  -22    9    5      0.08      0.00
  -21    9    5      2.88      0.00
  -20    9    5      0.29      0.00
  -19    9    5     -3.37      0.00
  -18    9    5     23.94      0.00
  -17    9    5      1.39      0.00
  -16    9    5    -10.52      0.00
  -15    9    5      9.99      0.00
  -14    9    5    -37.94      0.00
  -13    9    5    -16.35      0.00
  -12    9    5    -24.45      0.00
  -11    9    5     24.78      0.00
  -10    9    5     32.16      0.00
   -9    9    5     -7.15      0.00
   -8    9    5    -41.69      0.00
   -7    9    5    -41.94      0.00
   -6    9    5     12.89      0.00
   -5    9    5    -67.99      0.00
   -4    9    5     28.13      0.00
   -3    9    5     56.77      0.00
   -2    9    5    -85.71      0.00
   -1    9    5    -45.71      0.00
    0    9    5     13.86      0.00
    1    9    5     37.64      0.00
    2    9    5     38.53      0.00
    3    9    5     53.34      0.00
    4    9    5     41.25      0.00
    5    9    5     -0.45      0.00
    6    9    5     26.59      0.00
    7    9    5     10.40      0.00
    8    9    5     24.81      0.00
    9    9    5    -20.72      0.00
   10    9    5     26.50      0.00
   11    9    5    -23.28      0.00
   12    9    5    -11.55      0.00
   13    9    5      6.45      0.00
   14    9    5    -23.58      0.00
   15    9    5    -24.00      0.00
   16    9    5     17.98      0.00
   17    9    5      3.60      0.00
   18    9    5      5.54      0.00
   19    9    5    -10.10      0.00
   20    9    5     13.14      0.00
   21    9    5    -10.39      0.00
   22    9    5      4.86      0.00
  -22   10    5     -4.94      0.00
  -21   10    5      1.39      0.00
  -20   10    5      3.10      0.00
  -19   10    5      4.58      0.00
  -18   10    5     -6.66      0.00
  -17   10    5      7.59      0.00
  -16   10    5    -33.12      0.00
  -15   10    5     -1.00      0.00
  -14   10    5      3.11      0.00
  -13   10    5     17.12      0.00
  -12   10    5      2.73      0.00
  -11   10    5     -5.30      0.00
  -10   10    5      3.13      0.00
   -9   10    5    -22.76      0.00
   -8   10    5    -28.22      0.00
   -7   10    5    -40.68      0.00
   -6   10    5     12.20      0.00
   -5   10    5     58.31      0.00
   -4   10    5    -23.04      0.00
   -3   10    5     69.71      0.00
   -2   10    5     37.07      0.00
   -1   10    5    -39.63      0.00
    0   10    5     51.13      0.00
    1   10    5    -49.63      0.00
    2   10    5    105.32      0.00
    3   10    5    175.23      0.00
    4   10    5    -60.70      0.00
    5   10    5      2.48      0.00
    6   10    5    -20.85      0.00
    7   10    5     -5.33      0.00
    8   10    5     -3.01      0.00
    9   10    5     18.35      0.00
   10   10    5    -19.75      0.00
   11   10    5     14.42      0.00
   12   10    5    -21.79      0.00
   13   10    5      1.37      0.00
   14   10    5     36.33      0.00
   15   10    5      3.30      0.00
   16   10    5     12.54      0.00
   17   10    5     11.90      0.00
   18   10    5    -11.17      0.00
   19   10    5     -2.37      0.00
   20   10    5     -2.96      0.00
   21   10    5      1.70      0.00
   22   10    5     -9.51      0.00
  -22   11    5      7.49      0.00
  -21   11    5     -0.30      0.00
  -20   11    5      3.96      0.00
  -19   11    5     -3.37      0.00
  -18   11    5      4.00      0.00
  -17   11    5     -0.05      0.00
  -16   11    5     -3.01      0.00
  -15   11    5    -22.54      0.00
  -14   11    5      7.95      0.00
  -13   11    5    -22.52      0.00
  -12   11    5    -37.01      0.00
  -11   11    5      6.07      0.00
  -10   11    5     38.90      0.00
   -9   11    5    -14.53      0.00
   -8   11    5     39.40      0.00
   -7   11    5     22.17      0.00
   -6   11    5     29.18      0.00
   -5   11    5      5.87      0.00
   -4   11    5      5.06      0.00
   -3   11    5      7.37      0.00
   -2   11    5    -32.62      0.00
   -1   11    5     53.69      0.00
    0   11    5    -86.50      0.00
    1   11    5    -43.27      0.00
    2   11    5     15.26      0.00
    3   11    5    -77.19      0.00
    4   11    5    -11.49      0.00
    5   11    5    -19.50      0.00
    6   11    5     -8.09      0.00
    7   11    5     -0.04      0.00
    8   11    5    -22.02      0.00
    9   11    5     33.55      0.00
   10   11    5    -29.61      0.00
   11   11    5      3.94      0.00
   12   11    5    -12.08      0.00
   13   11    5      6.28      0.00
   14   11    5    -38.45      0.00
   15   11    5     -7.68      0.00
   16   11    5     -2.56      0.00
   17   11    5    -13.92      0.00
   18   11    5     13.70      0.00
   19   11    5     13.30      0.00
   20   11    5    -10.37      0.00
   21   11    5     -2.27      0.00
  -21   12    5      4.18      0.00
  -20   12    5      9.24      0.00
  -19   12    5     10.58      0.00
  -18   12    5    -16.00      0.00
  -17   12    5      1.32      0.00
  -16   12    5      3.66      0.00
  -15   12    5    -12.53      0.00
  -14   12    5    -11.96      0.00
  -13   12    5     -3.55      0.00
  -12   12    5      4.99      0.00
  -11   12    5    -27.86      0.00
  -10   12    5      3.12      0.00
   -9   12    5    -15.02      0.00
   -8   12    5    -39.34      0.00
   -7   12    5    -43.77      0.00
   -6   12    5     36.86      0.00
   -5   12    5    -20.57      0.00
   -4   12    5    -37.57      0.00
   -3   12    5     19.44      0.00
   -2   12    5     33.83      0.00
   -1   12    5    -81.03      0.00
    0   12    5     27.66      0.00
    1   12    5     -7.16      0.00
    2   12    5    -27.50      0.00
    3   12    5     46.01      0.00
    4   12    5    -38.47      0.00
    5   12    5    -14.96      0.00
    6   12    5     26.65      0.00
    7   12    5    -18.41      0.00
    8   12    5      7.91      0.00
    9   12    5    -29.66      0.00
   10   12    5     22.75      0.00
   11   12    5     12.15      0.00
   12   12    5     18.41      0.00
   13   12    5     -0.13      0.00
   14   12    5     12.61      0.00
   15   12    5     -0.53      0.00
   16   12    5     -2.31      0.00
   17   12    5     -2.08      0.00
   18   12    5      3.04      0.00
   19   12    5      7.01      0.00
   20   12    5      8.63      0.00
   21   12    5     -7.45      0.00
  -21   13    5    -10.19      0.00
  -20   13    5     -0.40      0.00
  -19   13    5     12.61      0.00
  -18   13    5    -25.83      0.00
  -17   13    5     -4.48      0.00
  -16   13    5     -4.37      0.00
  -15   13    5     -5.95      0.00
  -14   13    5     -6.97      0.00
  -13   13    5     -0.08      0.00
  -12   13    5     -9.10      0.00
  -11   13    5      8.73      0.00
  -10   13    5      0.20      0.00
   -9   13    5      0.72      0.00
   -8   13    5      1.86      0.00
   -7   13    5     -6.57      0.00
   -6   13    5      6.13      0.00
   -5   13    5     62.21      0.00
   -4   13    5    -29.48      0.00
   -3   13    5    -10.93      0.00
   -2   13    5     -3.31      0.00
   -1   13    5    -33.44      0.00
    0   13    5     60.05      0.00
    1   13    5      9.05      0.00
    2   13    5    -27.32      0.00
    3   13    5     -3.37      0.00
    4   13    5     38.68      0.00
    5   13    5      9.41      0.00
    6   13    5      0.57      0.00
    7   13    5     46.98      0.00
    8   13    5     12.57      0.00
    9   13    5    -17.20      0.00
   10   13    5    -16.70      0.00
   11   13    5     -9.47      0.00
   12   13    5     -6.12      0.00
   13   13    5      4.57      0.00
   14   13    5     13.96      0.00
   15   13    5     -5.15      0.00
   16   13    5     -0.46      0.00
   17   13    5     -7.11      0.00
   18   13    5     -3.13      0.00
   19   13    5     -5.02      0.00
   20   13    5      0.83      0.00
   21   13    5      4.57      0.00
  -21   14    5      6.66      0.00
  -20   14    5      7.48      0.00
  -19   14    5     10.68      0.00
  -18   14    5     -0.81      0.00
  -17   14    5    -19.68      0.00
  -16   14    5      6.26      0.00
  -15   14    5      5.30      0.00
  -14   14    5     15.07      0.00
  -13   14    5      0.41      0.00
  -12   14    5    -51.44      0.00
  -11   14    5     21.14      0.00
  -10   14    5     22.19      0.00
   -9   14    5    -20.01      0.00
   -8   14    5    -11.85      0.00
   -7   14    5     28.47      0.00
   -6   14    5     13.88      0.00
   -5   14    5     63.78      0.00
   -4   14    5     48.47      0.00
   -3   14    5    -18.07      0.00
   -2   14    5     12.73      0.00
   -1   14    5     37.39      0.00
    0   14    5    -44.60      0.00
    1   14    5      9.80      0.00
    2   14    5    -28.05      0.00
    3   14    5    -42.68      0.00
    4   14    5    -30.26      0.00
    5   14    5     43.37      0.00
    6   14    5      4.22      0.00
    7   14    5    -20.89      0.00
    8   14    5      6.58      0.00
    9   14    5     -7.85      0.00
   10   14    5     10.11      0.00
   11   14    5      8.58      0.00
   12   14    5     -9.92      0.00
   13   14    5      5.01      0.00
   14   14    5     -1.80      0.00
   15   14    5    -15.93      0.00
   16   14    5     -7.06      0.00
   17   14    5      3.38      0.00
   18   14    5     -2.24      0.00
   19   14    5     -8.27      0.00
   20   14    5     -6.28      0.00
   21   14    5     -6.43      0.00
  -21   15    5      6.92      0.00
  -20   15    5     -5.69      0.00
  -19   15    5      6.19      0.00
  -18   15    5     -7.63      0.00
  -17   15    5      0.32      0.00
  -16   15    5     17.78      0.00
  -15   15    5      7.22      0.00
  -14   15    5     31.50      0.00
  -13   15    5     -3.69      0.00
  -12   15    5    -48.22      0.00
  -11   15    5      7.20      0.00
  -10   15    5      5.14      0.00
   -9   15    5     46.13      0.00
   -8   15    5      2.21      0.00
   -7   15    5    -33.49      0.00
   -6   15    5     31.23      0.00
   -5   15    5    -39.19      0.00
   -4   15    5    -25.91      0.00
   -3   15    5     -1.91      0.00
   -2   15    5      7.27      0.00
   -1   15    5    -42.10      0.00
    0   15    5     -7.03      0.00
    1   15    5     54.39      0.00
    2   15    5      7.49      0.00
    3   15    5      6.96      0.00
    4   15    5     12.44      0.00
    5   15    5    -22.93      0.00
    6   15    5     28.02      0.00
    7   15    5      9.26      0.00
    8   15    5    -21.94      0.00
    9   15    5      1.32      0.00
   10   15    5     15.64      0.00
   11   15    5    -34.91      0.00
   12   15    5    -20.49      0.00
   13   15    5    -20.59      0.00
   14   15    5      2.68      0.00
   15   15    5     -4.80      0.00
   16   15    5     -8.30      0.00
   17   15    5      4.59      0.00
   18   15    5      6.67      0.00
   19   15    5      9.32      0.00
   20   15    5      9.81      0.00
  -20   16    5      6.89      0.00
  -19   16    5      8.60      0.00
  -18   16    5     15.78      0.00
  -17   16    5    -11.03      0.00
  -16   16    5    -13.58      0.00
  -15   16    5    -20.25      0.00
  -14   16    5    -12.22      0.00
  -13   16    5     19.84      0.00
  -12   16    5    -26.47      0.00
  -11   16    5     40.12      0.00
  -10   16    5    -18.79      0.00
   -9   16    5    -11.62      0.00
   -8   16    5      6.30      0.00
   -7   16    5    -21.36      0.00
   -6   16    5      3.57      0.00
   -5   16    5     38.93      0.00
   -4   16    5      6.16      0.00
   -3   16    5     -0.86      0.00
   -2   16    5    -27.24      0.00
   -1   16    5      6.70      0.00
    0   16    5     21.48      0.00
    1   16    5     13.54      0.00
    2   16    5    -41.14      0.00
    3   16    5     39.32      0.00
    4   16    5     15.93      0.00
    5   16    5      0.12      0.00
    6   16    5    -10.70      0.00
    7   16    5    -24.01      0.00
    8   16    5     -2.56      0.00
    9   16    5    -12.28      0.00
   10   16    5      1.64      0.00
   11   16    5     15.79      0.00
   12   16    5    -33.13      0.00
   13   16    5     35.04      0.00
   14   16    5     -5.41      0.00
   15   16    5     -8.61      0.00
   16   16    5      3.64      0.00
   17   16    5     -4.32      0.00
   18   16    5      3.64      0.00
   19   16    5      5.46      0.00
   20   16    5     -3.40      0.00
  -20   17    5    -10.61      0.00
  -19   17    5     -9.78      0.00
  -18   17    5      4.99      0.00
  -17   17    5      1.35      0.00
  -16   17    5      9.31      0.00
  -15   17    5     -4.80      0.00
  -14   17    5    -11.75      0.00
  -13   17    5     -5.11      0.00
  -12   17    5     -5.58      0.00
  -11   17    5     21.13      0.00
  -10   17    5    -36.43      0.00
   -9   17    5     13.87      0.00
   -8   17    5     42.08      0.00
   -7   17    5      4.75      0.00
   -6   17    5     40.47      0.00
   -5   17    5    -13.54      0.00
   -4   17    5    -20.11      0.00
   -3   17    5     35.34      0.00
   -2   17    5    -18.03      0.00
   -1   17    5     23.23      0.00
    0   17    5     -2.02      0.00
    1   17    5    -28.08      0.00
    2   17    5    -37.57      0.00
    3   17    5    -47.43      0.00
    4   17    5    -36.07      0.00
    5   17    5     49.02      0.00
    6   17    5    -10.51      0.00
    7   17    5      7.26      0.00
    8   17    5      6.65      0.00
    9   17    5     29.32      0.00
   10   17    5     -7.07      0.00
   11   17    5      4.76      0.00
   12   17    5      1.19      0.00
   13   17    5      5.69      0.00
   14   17    5      4.69      0.00
   15   17    5     -6.44      0.00
   16   17    5    -12.10      0.00
   17   17    5      2.41      0.00
   18   17    5     -6.20      0.00
   19   17    5      4.34      0.00
   20   17    5     -1.53      0.00
  -20   18    5      5.72      0.00
  -19   18    5    -11.59      0.00
  -18   18    5     -7.70      0.00
  -17   18    5      6.73      0.00
  -16   18    5      7.56      0.00
  -15   18    5     -1.18      0.00
  -14   18    5      1.36      0.00
  -13   18    5    -29.80      0.00
  -12   18    5     25.03      0.00
  -11   18    5     15.85      0.00
  -10   18    5     11.73      0.00
   -9   18    5      1.58      0.00
   -8   18    5     11.75      0.00
   -7   18    5    -28.38      0.00
   -6   18    5     11.03      0.00
   -5   18    5    -48.66      0.00
   -4   18    5     37.46      0.00
   -3   18    5    -28.52      0.00
   -2   18    5    -28.55      0.00
   -1   18    5     -0.57      0.00
    0   18    5     12.43      0.00
    1   18    5      4.12      0.00
    2   18    5     29.34      0.00
    3   18    5    -75.92      0.00
    4   18    5     25.20      0.00
    5   18    5     -2.37      0.00
    6   18    5     24.94      0.00
    7   18    5     -1.82      0.00
    8   18    5      6.88      0.00
    9   18    5     -3.58      0.00
   10   18    5      1.06      0.00
   11   18    5     -1.69      0.00
   12   18    5      1.43      0.00
   13   18    5    -17.60      0.00
   14   18    5    -13.12      0.00
   15   18    5    -14.98      0.00
   16   18    5     -4.41      0.00
   17   18    5     -5.03      0.00
   18   18    5      4.75      0.00
   19   18    5      6.77      0.00
  -19   19    5    -12.98      0.00
  -18   19    5      0.56      0.00
  -17   19    5      3.38      0.00
  -16   19    5    -14.58      0.00
  -15   19    5      2.81      0.00
  -14   19    5    -12.99      0.00
  -13   19    5    -32.81      0.00
  -12   19    5     17.61      0.00
  -11   19    5     -6.39      0.00
  -10   19    5     26.30      0.00
   -9   19    5     -8.53      0.00
   -8   19    5    -36.52      0.00
   -7   19    5     14.40      0.00
   -6   19    5     19.81      0.00
   -5   19    5      3.86      0.00
   -4   19    5      4.44      0.00
   -3   19    5    -12.18      0.00
   -2   19    5     36.18      0.00
   -1   19    5    -12.11      0.00
    0   19    5     -1.14      0.00
    1   19    5    -43.32      0.00
    2   19    5    -17.52      0.00
    3   19    5     -4.01      0.00
    4   19    5     27.88      0.00
    5   19    5     -8.30      0.00
    6   19    5     27.10      0.00
    7   19    5     16.39      0.00
    8   19    5     -1.39      0.00
    9   19    5      2.03      0.00
   10   19    5      9.94      0.00
   11   19    5     -8.29      0.00
   12   19    5     22.69      0.00
   13   19    5     -2.81      0.00
   14   19    5      8.72      0.00
   15   19    5    -11.48      0.00
   16   19    5     11.42      0.00
   17   19    5      4.50      0.00
   18   19    5     -8.71      0.00
   19   19    5      2.12      0.00
  -19   20    5      5.17      0.00
  -18   20    5     -8.10      0.00
  -17   20    5      3.48      0.00
  -16   20    5     -6.61      0.00
  -15   20    5     -9.95      0.00
  -14   20    5      9.48      0.00
  -13   20    5    -10.63      0.00
  -12   20    5     17.11      0.00
  -11   20    5    -19.19      0.00
  -10   20    5    -39.51      0.00
   -9   20    5     -2.32      0.00
   -8   20    5    -21.88      0.00
   -7   20    5     57.10      0.00
   -6   20    5     -9.07      0.00
   -5   20    5    -18.65      0.00
   -4   20    5    -10.26      0.00
   -3   20    5     17.18      0.00
   -2   20    5     10.16      0.00
   -1   20    5     46.52      0.00
    0   20    5      0.84      0.00
    1   20    5    -12.88      0.00
    2   20    5    -19.11      0.00
    3   20    5    -17.53      0.00
    4   20    5     -5.85      0.00
    5   20    5     -9.75      0.00
    6   20    5    -17.49      0.00
    7   20    5     23.58      0.00
    8   20    5    -11.37      0.00
    9   20    5     36.20      0.00
   10   20    5    -10.35      0.00
   11   20    5    -14.29      0.00
   12   20    5     18.03      0.00
   13   20    5     -4.62      0.00
   14   20    5      1.19      0.00
   15   20    5     -2.73      0.00
   16   20    5     -3.18      0.00
   17   20    5      5.50      0.00
   18   20    5     -1.85      0.00
   19   20    5     -0.94      0.00
  -18   21    5     -8.04      0.00
  -17   21    5     13.85      0.00
  -16   21    5     -3.62      0.00
  -15   21    5     -1.75      0.00
  -14   21    5     -1.62      0.00
  -13   21    5     -9.25      0.00
  -12   21    5      1.07      0.00
  -11   21    5      0.45      0.00
  -10   21    5     -2.99      0.00
   -9   21    5     12.49      0.00
   -8   21    5    -19.87      0.00
   -7   21    5     34.38      0.00
   -6   21    5     10.68      0.00
   -5   21    5     21.64      0.00
   -4   21    5     -3.59      0.00
   -3   21    5     -5.18      0.00
   -2   21    5     16.89      0.00
   -1   21    5     27.86      0.00
    0   21    5    -62.84      0.00
    1   21    5      2.41      0.00
    2   21    5      2.44      0.00
    3   21    5    -17.22      0.00
    4   21    5     -5.61      0.00
    5   21    5     -1.45      0.00
    6   21    5    -21.63      0.00
    7   21    5     -8.55      0.00
    8   21    5      0.60      0.00
    9   21    5    -19.29      0.00
   10   21    5      3.82      0.00
   11   21    5     -3.09      0.00
   12   21    5    -14.60      0.00
   13   21    5     12.93      0.00
   14   21    5    -16.27      0.00
   15   21    5     20.77      0.00
   16   21    5      4.96      0.00
   17   21    5     -2.16      0.00
   18   21    5     -0.61      0.00
  -18   22    5      7.42      0.00
  -17   22    5     12.98      0.00
  -16   22    5      9.11      0.00
  -15   22    5      0.48      0.00
  -14   22    5     -5.70      0.00
  -13   22    5    -11.80      0.00
  -12   22    5      0.27      0.00
  -11   22    5      3.96      0.00
  -10   22    5    -11.14      0.00
   -9   22    5      4.48      0.00
   -8   22    5     -3.04      0.00
   -7   22    5     20.40      0.00
   -6   22    5     -2.65      0.00
   -5   22    5    -19.14      0.00
   -4   22    5      9.26      0.00
   -3   22    5      0.47      0.00
   -2   22    5     -8.95      0.00
   -1   22    5     -1.65      0.00
    0   22    5     -5.40      0.00
    1   22    5     14.24      0.00
    2   22    5    -35.67      0.00
    3   22    5     -1.26      0.00
    4   22    5     -7.44      0.00
    5   22    5    -19.02      0.00
    6   22    5    -15.79      0.00
    7   22    5     21.44      0.00
    8   22    5     -1.58      0.00
    9   22    5      1.32      0.00
   10   22    5     -2.11      0.00
   11   22    5     -6.89      0.00
   12   22    5     13.89      0.00
   13   22    5      0.17      0.00
   14   22    5      0.78      0.00
   15   22    5     19.09      0.00
   16   22    5     17.17      0.00
   17   22    5     -3.86      0.00
   18   22    5     -6.68      0.00
  -17   23    5     -4.28      0.00
  -16   23    5      0.20      0.00
  -15   23    5      2.58      0.00
  -14   23    5     -3.22      0.00
  -13   23    5      3.98      0.00
  -12   23    5      6.42      0.00
  -11   23    5    -12.58      0.00
  -10   23    5    -16.30      0.00
   -9   23    5    -13.84      0.00
   -8   23    5     25.96      0.00
   -7   23    5    -10.69      0.00
   -6   23    5      5.48      0.00
   -5   23    5     -8.26      0.00
   -4   23    5     15.05      0.00
   -3   23    5    -11.69      0.00
   -2   23    5    -35.77      0.00
   -1   23    5     39.90      0.00
    0   23    5     23.30      0.00
    1   23    5    -26.05      0.00
    2   23    5     35.28      0.00
    3   23    5     16.38      0.00
    4   23    5    -18.97      0.00
    5   23    5      4.32      0.00
    6   23    5    -30.11      0.00
    7   23    5     -4.80      0.00
    8   23    5     10.96      0.00
    9   23    5     -4.62      0.00
   10   23    5     12.75      0.00
   11   23    5      4.39      0.00
   12   23    5    -10.95      0.00
   13   23    5      6.77      0.00
   14   23    5     -8.63      0.00
   15   23    5      5.04      0.00
   16   23    5     -3.81      0.00
   17   23    5     -3.09      0.00
  -17   24    5     -3.68      0.00
  -16   24    5    -11.19      0.00
  -15   24    5     -0.02      0.00
  -14   24    5     -6.65      0.00
  -13   24    5     -3.31      0.00
  -12   24    5     19.54      0.00
  -11   24    5     12.69      0.00
  -10   24    5     -3.07      0.00
   -9   24    5      2.38      0.00
   -8   24    5     -1.96      0.00
   -7   24    5     -0.76      0.00
   -6   24    5      7.00      0.00
   -5   24    5    -20.38      0.00
   -4   24    5     31.11      0.00
   -3   24    5    -28.28      0.00
   -2   24    5     -0.53      0.00
   -1   24    5     -5.04      0.00
    0   24    5     16.39      0.00
    1   24    5     53.78      0.00
    2   24    5     -2.88      0.00
    3   24    5     -0.41      0.00
    4   24    5     34.18      0.00
    5   24    5      1.74      0.00
    6   24    5      9.78      0.00
    7   24    5    -12.20      0.00
    8   24    5      0.95      0.00
    9   24    5    -29.13      0.00
   10   24    5    -10.49      0.00
   11   24    5      1.56      0.00
   12   24    5      7.12      0.00
   13   24    5     -6.74      0.00
   14   24    5     -7.22      0.00
   15   24    5      3.99      0.00
   16   24    5    -11.69      0.00
   17   24    5      1.86      0.00
  -16   25    5     -9.18      0.00
  -15   25    5      1.37      0.00
  -14   25    5     -5.10      0.00
  -13   25    5      1.54      0.00
  -12   25    5     19.73      0.00
  -11   25    5     -3.38      0.00
  -10   25    5      8.58      0.00
   -9   25    5     -7.60      0.00
   -8   25    5     -3.29      0.00
   -7   25    5     12.60      0.00
   -6   25    5    -19.89      0.00
   -5   25    5     10.34      0.00
   -4   25    5     31.55      0.00
   -3   25    5    -24.29      0.00
   -2   25    5     20.45      0.00
   -1   25    5     -2.43      0.00
    0   25    5    -11.22      0.00
    1   25    5     16.94      0.00
    2   25    5     -2.69      0.00
    3   25    5    -33.25      0.00
    4   25    5     11.18      0.00
    5   25    5      8.60      0.00
    6   25    5     -6.80      0.00
    7   25    5     -9.31      0.00
    8   25    5    -14.26      0.00
    9   25    5    -20.32      0.00
   10   25    5      3.50      0.00
   11   25    5      8.63      0.00
   12   25    5      0.41      0.00
   13   25    5     -3.75      0.00
   14   25    5      3.88      0.00
   15   25    5      1.02      0.00
   16   25    5      3.71      0.00
  -16   26    5     -4.69      0.00
  -15   26    5     -2.16      0.00
  -14   26    5    -12.03      0.00
  -13   26    5      5.09      0.00
  -12   26    5     11.21      0.00
  -11   26    5      1.86      0.00
  -10   26    5     12.31      0.00
   -9   26    5     -9.24      0.00
   -8   26    5     -6.85      0.00
   -7   26    5     -5.49      0.00
   -6   26    5     -2.10      0.00
   -5   26    5     -7.64      0.00
   -4   26    5    -32.85      0.00
   -3   26    5     10.34      0.00
   -2   26    5     -0.76      0.00
   -1   26    5    -34.12      0.00
    0   26    5      2.70      0.00
    1   26    5     11.01      0.00
    2   26    5     -4.99      0.00
    3   26    5      7.75      0.00
    4   26    5      4.26      0.00
    5   26    5      1.06      0.00
    6   26    5     43.38      0.00
    7   26    5     -1.84      0.00
    8   26    5     -8.41      0.00
    9   26    5      7.35      0.00
   10   26    5     -3.82      0.00
   11   26    5      1.04      0.00
   12   26    5      7.45      0.00
   13   26    5      7.68      0.00
   14   26    5      5.38      0.00
   15   26    5      8.51      0.00
  -15   27    5      3.84      0.00
  -14   27    5     -3.31      0.00
  -13   27    5     -5.37      0.00
  -12   27    5     -0.19      0.00
  -11   27    5     11.10      0.00
  -10   27    5    -15.15      0.00
   -9   27    5     21.15      0.00
   -8   27    5      6.80      0.00
   -7   27    5      4.76      0.00
   -6   27    5    -26.34      0.00
   -5   27    5     -1.37      0.00
   -4   27    5     -3.55      0.00
   -3   27    5     12.03      0.00
   -2   27    5     11.50      0.00
   -1   27    5     -1.07      0.00
    0   27    5      8.03      0.00
    1   27    5    -18.78      0.00
    2   27    5      9.13      0.00
    3   27    5     36.98      0.00
    4   27    5      2.17      0.00
    5   27    5     12.10      0.00
    6   27    5     -0.90      0.00
    7   27    5      1.71      0.00
    8   27    5     18.78      0.00
    9   27    5     16.20      0.00
   10   27    5      1.64      0.00
   11   27    5      1.82      0.00
   12   27    5     -6.72      0.00
   13   27    5     -4.69      0.00
   14   27    5     15.03      0.00
   15   27    5    -12.24      0.00
  -14   28    5      0.50      0.00
  -13   28    5      4.55      0.00
  -12   28    5     -6.81      0.00
  -11   28    5      5.63      0.00
  -10   28    5     10.20      0.00
   -9   28    5     -4.15      0.00
   -8   28    5     10.22      0.00
   -7   28    5      0.38      0.00
   -6   28    5    -11.19      0.00
   -5   28    5     -2.48      0.00
   -4   28    5     -6.18      0.00
   -3   28    5     20.71      0.00
   -2   28    5      1.88      0.00
   -1   28    5      8.19      0.00
    0   28    5     -6.09      0.00
    1   28    5    -25.40      0.00
    2   28    5     19.12      0.00
    3   28    5     15.53      0.00
    4   28    5    -13.01      0.00
    5   28    5      8.49      0.00
    6   28    5      5.63      0.00
    7   28    5     15.31      0.00
    8   28    5     -8.14      0.00
    9   28    5     -0.30      0.00
   10   28    5     -6.99      0.00
   11   28    5     -6.53      0.00
   12   28    5      2.44      0.00
   13   28    5     -4.05      0.00
   14   28    5     10.35      0.00
  -13   29    5      5.92      0.00
  -12   29    5     -2.63      0.00
  -11   29    5      7.44      0.00
  -10   29    5      2.81      0.00
   -9   29    5    -10.28      0.00
   -8   29    5     -3.49      0.00
   -7   29    5     -2.75      0.00
   -6   29    5     10.26      0.00
   -5   29    5     -2.07      0.00
   -4   29    5     -5.40      0.00
   -3   29    5      9.74      0.00
   -2   29    5    -11.60      0.00
   -1   29    5     -5.42      0.00
    0   29    5     11.25      0.00
    1   29    5    -10.57      0.00
    2   29    5     -5.62      0.00
    3   29    5    -10.47      0.00
    4   29    5    -14.03      0.00
    5   29    5    -12.41      0.00
    6   29    5      7.91      0.00
    7   29    5     15.81      0.00
    8   29    5     -3.71      0.00
    9   29    5     -8.68      0.00
   10   29    5     -8.64      0.00
   11   29    5      3.40      0.00
   12   29    5      4.91      0.00
   13   29    5     -1.44      0.00
  -12   30    5      3.42      0.00
  -11   30    5     -0.14      0.00
  -10   30    5      1.38      0.00
   -9   30    5      4.27      0.00
   -8   30    5      9.14      0.00
   -7   30    5     -7.38      0.00
   -6   30    5    -11.99      0.00
   -5   30    5     -5.67      0.00
   -4   30    5    -19.22      0.00
   -3   30    5     -1.56      0.00
   -2   30    5     17.13      0.00
   -1   30    5      7.88      0.00
    0   30    5    -18.12      0.00
    1   30    5      6.28      0.00
    2   30    5     18.97      0.00
    3   30    5    -10.81      0.00
    4   30    5      4.19      0.00
    5   30    5      2.89      0.00
    6   30    5     -5.18      0.00
    7   30    5     12.26      0.00
    8   30    5      3.42      0.00
    9   30    5     -2.21      0.00
   10   30    5     11.06      0.00
   11   30    5    -13.75      0.00
   12   30    5     -7.57      0.00
  -11   31    5     -5.41      0.00
  -10   31    5      4.06      0.00
   -9   31    5     -5.10      0.00
   -8   31    5     13.34      0.00
   -7   31    5     -8.75      0.00
   -6   31    5      7.25      0.00
   -5   31    5     -0.18      0.00
   -4   31    5      9.25      0.00
   -3   31    5     18.09      0.00
   -2   31    5      6.80      0.00
   -1   31    5     -6.08      0.00
    0   31    5     -8.26      0.00
    1   31    5     12.87      0.00
    2   31    5    -16.82      0.00
    3   31    5     -4.19      0.00
    4   31    5     15.73      0.00
    5   31    5     -6.28      0.00
    6   31    5      4.38      0.00
    7   31    5      5.40      0.00
    8   31    5     -1.80      0.00
    9   31    5     -2.71      0.00
   10   31    5     -6.47      0.00
   11   31    5      0.42      0.00
  -10   32    5      0.18      0.00
   -9   32    5     -1.16      0.00
   -8   32    5      1.61      0.00
   -7   32    5      6.64      0.00
   -6   32    5     -0.24      0.00
   -5   32    5      1.14      0.00
   -4   32    5    -17.84      0.00
   -3   32    5    -11.31      0.00
   -2   32    5     -6.35      0.00
   -1   32    5     14.93      0.00
    0   32    5     11.69      0.00
    1   32    5     -2.31      0.00
    2   32    5    -13.06      0.00
    3   32    5     -7.24      0.00
    4   32    5     -1.31      0.00
    5   32    5    -10.91      0.00
    6   32    5     -0.15      0.00
    7   32    5      3.77      0.00
    8   32    5      1.01      0.00
    9   32    5     -2.60      0.00
   10   32    5     -0.06      0.00
   -8   33    5    -10.13      0.00
   -7   33    5      6.02      0.00
   -6   33    5      0.72      0.00
   -5   33    5      6.18      0.00
   -4   33    5     -0.22      0.00
   -3   33    5      0.57      0.00
   -2   33    5     -3.81      0.00
   -1   33    5     -4.91      0.00
    0   33    5    -15.42      0.00
    1   33    5     -0.23      0.00
    2   33    5      6.43      0.00
    3   33    5     18.28      0.00
    4   33    5      4.99      0.00
    5   33    5     -3.19      0.00
    6   33    5      1.69      0.00
    7   33    5      4.82      0.00
    8   33    5      4.40      0.00
   -7   34    5    -10.15      0.00
   -6   34    5     -5.85      0.00
   -5   34    5     11.14      0.00
   -4   34    5     15.37      0.00
   -3   34    5     -3.93      0.00
   -2   34    5      9.51      0.00
   -1   34    5     -3.51      0.00
    0   34    5      4.53      0.00
    1   34    5     -9.86      0.00
    2   34    5      1.71      0.00
    3   34    5      8.94      0.00
    4   34    5     -7.65      0.00
    5   34    5     -2.05      0.00
    6   34    5     -2.76      0.00
   -4   35    5     -0.68      0.00
   -3   35    5     -2.51      0.00
   -2   35    5     10.79      0.00
   -1   35    5     -6.44      0.00
    0   35    5      5.22      0.00
    1   35    5    -11.17      0.00
    2   35    5     -5.56      0.00
    3   35    5     -3.22      0.00
    4   35    5      3.59      0.00
  -23    0    6      0.66      0.00
  -22    0    6     -2.02      0.00
  -21    0    6      6.08      0.00
  -20    0    6    -14.25      0.00
  -19    0    6      6.61      0.00
  -18    0    6     29.65      0.00
  -17    0    6     11.14      0.00
  -16    0    6    -13.36      0.00
  -15    0    6    -17.38      0.00
  -14    0    6     -0.97      0.00
  -13    0    6    -26.91      0.00
  -12    0    6     17.04      0.00
  -11    0    6     89.64      0.00
  -10    0    6     37.69      0.00
   -9    0    6     17.21      0.00
   -8    0    6   -178.95      0.00
   -7    0    6     14.18      0.00
   -6    0    6     81.16      0.00
   -5    0    6    -24.71      0.00
   -4    0    6    179.29      0.00
   -3    0    6    -45.50      0.00
   -2    0    6     79.70      0.00
   -1    0    6    -33.85      0.00
    0    0    6   -158.11      0.00
    1    0    6    161.96      0.00
    3    0    6     29.73      0.00
    4    0    6     61.88      0.00
    5    0    6     29.18      0.00
    6    0    6   -113.92      0.00
    7    0    6     14.81      0.00
    8    0    6     -7.29      0.00
    9    0    6    -36.03      0.00
   10    0    6      9.68      0.00
   11    0    6     25.03      0.00
   12    0    6    -33.92      0.00
   13    0    6     72.17      0.00
   14    0    6     -5.95      0.00
   15    0    6     31.39      0.00
   16    0    6     14.94      0.00
   17    0    6      4.06      0.00
   18    0    6      2.91      0.00
   19    0    6      8.85      0.00
   20    0    6    -32.02      0.00
   22    0    6      7.15      0.00
  -23    1    6     -2.11      0.00
  -22    1    6     -8.33      0.00
  -21    1    6     14.39      0.00
  -20    1    6     -1.41      0.00
  -19    1    6    -15.46      0.00
  -18    1    6      2.38      0.00
  -17    1    6     -6.28      0.00
  -16    1    6     12.76      0.00
  -15    1    6     -4.72      0.00
  -14    1    6      7.86      0.00
  -13    1    6     -8.09      0.00
  -12    1    6     13.00      0.00
  -11    1    6    -55.87      0.00
  -10    1    6     10.71      0.00
   -9    1    6     74.38      0.00
   -8    1    6     11.82      0.00
   -7    1    6      3.90      0.00
   -6    1    6    -12.67      0.00
   -5    1    6    -29.70      0.00
   -4    1    6    -64.70      0.00
   -3    1    6     -5.88      0.00
   -2    1    6      8.53      0.00
   -1    1    6    -35.61      0.00
    0    1    6   -202.74      0.00
    1    1    6   -193.03      0.00
    2    1    6     -9.68      0.00
    3    1    6   -116.22      0.00
    4    1    6    187.30      0.00
    5    1    6    147.81      0.00
    6    1    6      4.06      0.00
    7    1    6    -28.79      0.00
    8    1    6    -49.77      0.00
    9    1    6    -10.60      0.00
   10    1    6     32.80      0.00
   11    1    6      6.72      0.00
   12    1    6      5.17      0.00
   13    1    6    -51.27      0.00
   14    1    6    -34.69      0.00
   15    1    6    -14.11      0.00
   16    1    6    -10.66      0.00
   17    1    6      5.12      0.00
   18    1    6     -4.57      0.00
   19    1    6     -5.87      0.00
   20    1    6      4.82      0.00
   22    1    6     -8.95      0.00
  -23    2    6      1.00      0.00
  -22    2    6    -10.08      0.00
  -21    2    6     -7.91      0.00
  -20    2    6      3.78      0.00
  -19    2    6     -1.85      0.00
  -18    2    6    -24.35      0.00
  -17    2    6    -24.58      0.00
  -16    2    6     20.73      0.00
  -15    2    6      0.28      0.00
  -14    2    6     23.04      0.00
  -13    2    6    -18.84      0.00
  -12    2    6     13.69      0.00
  -11    2    6    -23.19      0.00
  -10    2    6    -39.60      0.00
   -9    2    6      4.24      0.00
   -8    2    6     30.64      0.00
   -7    2    6     -4.80      0.00
   -6    2    6     21.47      0.00
   -5    2    6     20.67      0.00
   -4    2    6     24.91      0.00
   -3    2    6   -156.92      0.00
   -2    2    6      9.78      0.00
   -1    2    6     25.26      0.00
    0    2    6    -53.11      0.00
    1    2    6     71.56      0.00
    2    2    6     18.29      0.00
    3    2    6   -161.01      0.00
    4    2    6    -26.30      0.00
    5    2    6    -40.89      0.00
    6    2    6     56.20      0.00
    7    2    6      2.27      0.00
    8    2    6     54.05      0.00
    9    2    6    -33.34      0.00
   10    2    6    -42.14      0.00
   11    2    6     -7.41      0.00
   12    2    6     24.44      0.00
   13    2    6     20.63      0.00
   14    2    6     55.30      0.00
   15    2    6     -0.57      0.00
   16    2    6    -24.67      0.00
   17    2    6    -17.60      0.00
   18    2    6      4.34      0.00
   19    2    6     -6.55      0.00
   20    2    6     11.63      0.00
   22    2    6     -2.21      0.00
  -22    3    6      5.43      0.00
  -21    3    6      5.85      0.00
  -20    3    6    -17.92      0.00
  -19    3    6     23.02      0.00
  -18    3    6      0.85      0.00
  -17    3    6    -20.53      0.00
  -16    3    6     -3.60      0.00
  -15    3    6     14.98      0.00
  -14    3    6    -20.25      0.00
  -13    3    6     -9.70      0.00
  -12    3    6     53.49      0.00
  -11    3    6     27.08      0.00
  -10    3    6      7.77      0.00
   -9    3    6   -108.19      0.00
   -8    3    6    -18.03      0.00
   -7    3    6     85.81      0.00
   -6    3    6    -39.75      0.00
   -5    3    6     -7.23      0.00
   -4    3    6     25.61      0.00
   -3    3    6    -57.18      0.00
   -2    3    6    -79.61      0.00
   -1    3    6     19.99      0.00
    0    3    6    219.13      0.00
    1    3    6    -85.19      0.00
    2    3    6    -67.81      0.00
    3    3    6      9.66      0.00
    4    3    6     59.49      0.00
    5    3    6      0.67      0.00
    6    3    6    -42.06      0.00
    7    3    6     33.90      0.00
    8    3    6    -22.51      0.00
    9    3    6     24.30      0.00
   10    3    6    -23.08      0.00
   11    3    6     19.56      0.00
   12    3    6     18.33      0.00
   13    3    6    -10.24      0.00
   14    3    6     -6.64      0.00
   15    3    6    -21.82      0.00
   16    3    6     15.33      0.00
   17    3    6     13.64      0.00
   18    3    6    -13.62      0.00
   19    3    6      5.02      0.00
   20    3    6     -8.06      0.00
   21    3    6      8.12      0.00
   22    3    6      4.66      0.00
  -22    4    6      8.01      0.00
  -21    4    6     -5.46      0.00
  -20    4    6     -4.87      0.00
  -19    4    6    -16.40      0.00
  -18    4    6      2.68      0.00
  -17    4    6     -5.96      0.00
  -16    4    6    -22.54      0.00
  -15    4    6     13.58      0.00
  -14    4    6    -13.81      0.00
  -13    4    6     22.42      0.00
  -12    4    6      5.03      0.00
  -11    4    6     43.37      0.00
  -10    4    6     10.71      0.00
   -9    4    6     22.32      0.00
   -8    4    6    -43.02      0.00
   -7    4    6     18.22      0.00
   -6    4    6     23.81      0.00
   -5    4    6     14.95      0.00
   -4    4    6    -13.97      0.00
   -3    4    6      1.47      0.00
   -2    4    6   -103.14      0.00
   -1    4    6   -131.99      0.00
    0    4    6    -41.07      0.00
    1    4    6     80.47      0.00
    2    4    6    -29.39      0.00
    3    4    6     95.19      0.00
    4    4    6     12.45      0.00
    5    4    6    -26.11      0.00
    6    4    6     23.89      0.00
    7    4    6     19.97      0.00
    8    4    6     16.04      0.00
    9    4    6     57.04      0.00
   10    4    6      5.83      0.00
   11    4    6     15.85      0.00
   12    4    6     26.59      0.00
   13    4    6      0.83      0.00
   14    4    6     14.40      0.00
   15    4    6     -7.52      0.00
   16    4    6    -12.30      0.00
   17    4    6      0.03      0.00
   18    4    6    -15.14      0.00
   19    4    6    -22.33      0.00
   20    4    6     -6.17      0.00
   21    4    6     -6.33      0.00
   22    4    6      1.08      0.00
  -22    5    6      5.31      0.00
  -21    5    6      0.97      0.00
  -20    5    6      9.91      0.00
  -19    5    6     -5.27      0.00
  -18    5    6     -2.39      0.00
  -17    5    6     19.36      0.00
  -16    5    6     19.90      0.00
  -15    5    6     21.96      0.00
  -14    5    6     -3.80      0.00
  -13    5    6    -25.79      0.00
  -12    5    6     -2.33      0.00
  -11    5    6     10.03      0.00
  -10    5    6      6.91      0.00
   -9    5    6     -2.13      0.00
   -8    5    6    -31.96      0.00
   -7    5    6     -7.14      0.00
   -6    5    6    -33.68      0.00
   -5    5    6     38.26      0.00
   -4    5    6     -4.79      0.00
   -3    5    6     36.98      0.00
   -2    5    6     83.59      0.00
   -1    5    6    115.96      0.00
    0    5    6     45.78      0.00
    1    5    6    -25.93      0.00
    2    5    6    -29.48      0.00
    3    5    6      3.02      0.00
    4    5    6    -53.91      0.00
    5    5    6    -33.32      0.00
    6    5    6     21.73      0.00
    7    5    6     47.97      0.00
    8    5    6     32.98      0.00
    9    5    6    -82.98      0.00
   10    5    6     -9.70      0.00
   11    5    6     12.90      0.00
   12    5    6      6.58      0.00
   13    5    6      9.27      0.00
   14    5    6    -27.06      0.00
   15    5    6    -26.73      0.00
   16    5    6     -5.96      0.00
   17    5    6    -14.25      0.00
   18    5    6     -0.71      0.00
   19    5    6     10.99      0.00
   20    5    6     -3.15      0.00
   21    5    6      2.10      0.00
   22    5    6      3.11      0.00
  -22    6    6      6.44      0.00
  -21    6    6      3.32      0.00
  -20    6    6     16.26      0.00
  -19    6    6     -4.26      0.00
  -18    6    6      7.29      0.00
  -17    6    6      3.30      0.00
  -16    6    6    -12.74      0.00
  -15    6    6     23.22      0.00
  -14    6    6     -8.02      0.00
  -13    6    6     41.49      0.00
  -12    6    6     17.03      0.00
  -11    6    6      9.68      0.00
  -10    6    6      1.85      0.00
   -9    6    6    -74.87      0.00
   -8    6    6      8.81      0.00
   -7    6    6     29.21      0.00
   -6    6    6     -3.67      0.00
   -5    6    6     22.59      0.00
   -4    6    6    -89.88      0.00
   -3    6    6     70.62      0.00
   -2    6    6    -41.54      0.00
   -1    6    6    -63.93      0.00
    0    6    6    109.41      0.00
    1    6    6     69.97      0.00
    2    6    6    -29.66      0.00
    3    6    6     18.17      0.00
    4    6    6     -8.73      0.00
    5    6    6     55.74      0.00
    6    6    6    -31.14      0.00
    7    6    6    -19.55      0.00
    8    6    6    -24.86      0.00
    9    6    6    -14.55      0.00
   10    6    6     -1.99      0.00
   11    6    6     -9.40      0.00
   12    6    6    -21.14      0.00
   13    6    6     -5.44      0.00
   14    6    6    -35.88      0.00
   15    6    6      2.73      0.00
   16    6    6    -12.48      0.00
   17    6    6     10.52      0.00
   18    6    6     11.02      0.00
   19    6    6      0.23      0.00
   20    6    6     -0.31      0.00
   21    6    6      0.91      0.00
   22    6    6      0.16      0.00
  -22    7    6     -4.77      0.00
  -21    7    6     -5.79      0.00
  -20    7    6      0.87      0.00
  -19    7    6      7.00      0.00
  -18    7    6      5.58      0.00
  -17    7    6     -5.49      0.00
  -16    7    6      7.97      0.00
  -15    7    6    -20.62      0.00
  -14    7    6     24.92      0.00
  -13    7    6     10.45      0.00
  -12    7    6     -7.03      0.00
  -11    7    6    -17.77      0.00
  -10    7    6    -37.04      0.00
   -9    7    6    -12.49      0.00
   -8    7    6     -1.54      0.00
   -7    7    6     24.32      0.00
   -6    7    6     21.63      0.00
   -5    7    6     12.43      0.00
   -4    7    6     14.76      0.00
   -3    7    6      6.35      0.00
   -2    7    6     34.98      0.00
   -1    7    6    -15.46      0.00
    0    7    6    -32.05      0.00
    1    7    6    -32.77      0.00
    2    7    6    -30.46      0.00
    3    7    6     88.36      0.00
    4    7    6    -46.70      0.00
    5    7    6      5.18      0.00
    6    7    6      9.09      0.00
    7    7    6      4.42      0.00
    8    7    6      4.48      0.00
    9    7    6    -17.48      0.00
   10    7    6      9.71      0.00
   11    7    6     15.18      0.00
   12    7    6      3.66      0.00
   13    7    6     16.08      0.00
   14    7    6     -0.52      0.00
   15    7    6     28.01      0.00
   16    7    6    -17.51      0.00
   17    7    6    -26.62      0.00
   18    7    6    -16.12      0.00
   19    7    6    -10.95      0.00
   20    7    6     20.03      0.00
   21    7    6      7.84      0.00
   22    7    6     -5.46      0.00
  -22    8    6      0.84      0.00
  -21    8    6      8.20      0.00
  -20    8    6      4.68      0.00
  -19    8    6      4.82      0.00
  -18    8    6    -10.28      0.00
  -17    8    6     -6.83      0.00
  -16    8    6     -3.93      0.00
  -15    8    6     -9.60      0.00
  -14    8    6      6.72      0.00
  -13    8    6     -8.48      0.00
  -12    8    6     25.56      0.00
  -11    8    6      8.13      0.00
  -10    8    6     19.19      0.00
   -9    8    6    -51.56      0.00
   -8    8    6     19.76      0.00
   -7    8    6    -26.61      0.00
   -6    8    6     33.66      0.00
   -5    8    6     19.09      0.00
   -4    8    6      5.62      0.00
   -3    8    6    -50.34      0.00
   -2    8    6     51.33      0.00
   -1    8    6    -13.87      0.00
    0    8    6    -41.57      0.00
    1    8    6      5.56      0.00
    2    8    6    172.31      0.00
    3    8    6   -112.72      0.00
    4    8    6     58.03      0.00
    5    8    6    -10.01      0.00
    6    8    6    -12.64      0.00
    7    8    6      1.23      0.00
    8    8    6    -14.28      0.00
    9    8    6    -26.88      0.00
   10    8    6     -6.44      0.00
   11    8    6    -15.57      0.00
   12    8    6     26.32      0.00
   13    8    6     -0.91      0.00
   14    8    6     -6.53      0.00
   15    8    6    -18.36      0.00
   16    8    6      1.75      0.00
   17    8    6     -2.84      0.00
   18    8    6      4.67      0.00
   19    8    6     -9.34      0.00
   20    8    6      8.35      0.00
   21    8    6     -2.34      0.00
   22    8    6      6.81      0.00
  -22    9    6     -6.66      0.00
  -21    9    6    -14.49      0.00
  -20    9    6      0.89      0.00
  -19    9    6     12.42      0.00
  -18    9    6      7.27      0.00
  -17    9    6     -9.40      0.00
  -16    9    6      7.97      0.00
  -15    9    6     -3.72      0.00
  -14    9    6    -19.61      0.00
  -13    9    6    -13.29      0.00
  -12    9    6    -13.41      0.00
  -11    9    6     25.81      0.00
  -10    9    6      7.11      0.00
   -9    9    6      8.59      0.00
   -8    9    6     12.89      0.00
   -7    9    6     64.78      0.00
   -6    9    6    -29.19      0.00
   -5    9    6      8.82      0.00
   -4    9    6     -9.07      0.00
   -3    9    6    -42.19      0.00
   -2    9    6     36.90      0.00
   -1    9    6   -114.32      0.00
    0    9    6    148.55      0.00
    1    9    6    -25.64      0.00
    2    9    6   -183.38      0.00
    3    9    6     45.99      0.00
    4    9    6     38.76      0.00
    5    9    6      6.64      0.00
    6    9    6    -11.64      0.00
    7    9    6    -14.09      0.00
    8    9    6     -1.38      0.00
    9    9    6    -10.42      0.00
   10    9    6     17.09      0.00
   11    9    6      8.94      0.00
   12    9    6     25.08      0.00
   13    9    6    -14.85      0.00
   14    9    6      1.02      0.00
   15    9    6     19.08      0.00
   16    9    6    -11.19      0.00
   17    9    6     -1.33      0.00
   18    9    6     11.91      0.00
   19    9    6     -4.78      0.00
   20    9    6     -3.53      0.00
   21    9    6      0.02      0.00
  -22   10    6     -4.49      0.00
  -21   10    6     -3.35      0.00
  -20   10    6    -25.64      0.00
  -19   10    6      0.12      0.00
  -18   10    6     -0.75      0.00
  -17   10    6    -12.47      0.00
  -16   10    6    -11.87      0.00
  -15   10    6     -8.41      0.00
  -14   10    6     31.46      0.00
  -13   10    6      4.86      0.00
  -12   10    6     -8.66      0.00
  -11   10    6    -11.73      0.00
  -10   10    6    -18.21      0.00
   -9   10    6     -1.42      0.00
   -8   10    6    -16.95      0.00
   -7   10    6     24.02      0.00
   -6   10    6    -15.54      0.00
   -5   10    6      0.84      0.00
   -4   10    6     -9.83      0.00
   -3   10    6    -19.37      0.00
   -2   10    6    -63.99      0.00
   -1   10    6     53.60      0.00
    0   10    6     -7.48      0.00
    1   10    6    -48.41      0.00
    2   10    6    -28.04      0.00
    3   10    6     -9.52      0.00
    4   10    6    -42.71      0.00
    5   10    6     51.37      0.00
    6   10    6    -33.81      0.00
    7   10    6      4.69      0.00
    8   10    6    -15.00      0.00
    9   10    6     13.95      0.00
   10   10    6     -1.15      0.00
   11   10    6    -14.72      0.00
   12   10    6      2.63      0.00
   13   10    6     18.58      0.00
   14   10    6     -0.44      0.00
   15   10    6     -3.20      0.00
   16   10    6      1.84      0.00
   17   10    6     -5.08      0.00
   18   10    6     -1.08      0.00
   19   10    6     11.64      0.00
   20   10    6     -3.00      0.00
   21   10    6      9.80      0.00
  -21   11    6      7.06      0.00
  -20   11    6     15.75      0.00
  -19   11    6    -12.22      0.00
  -18   11    6      9.09      0.00
  -17   11    6      9.35      0.00
  -16   11    6      3.30      0.00
  -15   11    6      6.60      0.00
  -14   11    6     -3.41      0.00
  -13   11    6      9.83      0.00
  -12   11    6      3.57      0.00
  -11   11    6    -35.89      0.00
  -10   11    6    -20.31      0.00
   -9   11    6    -20.00      0.00
   -8   11    6    -13.01      0.00
   -7   11    6    -10.45      0.00
   -6   11    6     36.43      0.00
   -5   11    6    -12.08      0.00
   -4   11    6     16.46      0.00
   -3   11    6     19.60      0.00
   -2   11    6      0.59      0.00
   -1   11    6    -14.40      0.00
    0   11    6      6.22      0.00
    1   11    6     65.74      0.00
    2   11    6    -18.98      0.00
    3   11    6    -31.46      0.00
    4   11    6      8.33      0.00
    5   11    6     13.47      0.00
    6   11    6     11.44      0.00
    7   11    6    -26.60      0.00
    8   11    6     -2.57      0.00
    9   11    6     -1.43      0.00
   10   11    6     14.68      0.00
   11   11    6     15.83      0.00
   12   11    6    -16.90      0.00
   13   11    6     22.07      0.00
   14   11    6     -0.53      0.00
   15   11    6      0.50      0.00
   16   11    6      5.66      0.00
   17   11    6     14.33      0.00
   18   11    6      4.96      0.00
   19   11    6      0.63      0.00
   20   11    6     -2.07      0.00
   21   11    6     -8.81      0.00
  -21   12    6      4.17      0.00
  -20   12    6     -4.33      0.00
  -19   12    6     -8.61      0.00
  -18   12    6     -1.00      0.00
  -17   12    6     -2.15      0.00
  -16   12    6      2.78      0.00
  -15   12    6    -15.37      0.00
  -14   12    6    -20.63      0.00
  -13   12    6      5.76      0.00
  -12   12    6      9.53      0.00
  -11   12    6     24.92      0.00
  -10   12    6      5.92      0.00
   -9   12    6      4.04      0.00
   -8   12    6      9.66      0.00
   -7   12    6    -17.51      0.00
   -6   12    6    -41.99      0.00
   -5   12    6     46.52      0.00
   -4   12    6    -10.96      0.00
   -3   12    6      5.49      0.00
   -2   12    6     -5.73      0.00
   -1   12    6     -0.68      0.00
    0   12    6     97.84      0.00
    1   12    6    -41.28      0.00
    2   12    6    -53.76      0.00
    3   12    6     44.59      0.00
    4   12    6     23.46      0.00
    5   12    6    -11.85      0.00
    6   12    6    -43.66      0.00
    7   12    6     18.90      0.00
    8   12    6     25.02      0.00
    9   12    6    -11.07      0.00
   10   12    6     -3.81      0.00
   11   12    6    -28.28      0.00
   12   12    6    -43.46      0.00
   13   12    6     -4.63      0.00
   14   12    6      5.96      0.00
   15   12    6      0.06      0.00
   16   12    6     17.96      0.00
   17   12    6     18.79      0.00
   18   12    6      4.57      0.00
   19   12    6     -3.05      0.00
   20   12    6     -0.18      0.00
   21   12    6      3.70      0.00
  -21   13    6      7.55      0.00
  -20   13    6     -5.99      0.00
  -19   13    6      4.80      0.00
  -18   13    6    -10.66      0.00
  -17   13    6     -6.26      0.00
  -16   13    6      8.61      0.00
  -15   13    6     11.79      0.00
  -14   13    6     -4.63      0.00
  -13   13    6    -24.16      0.00
  -12   13    6     11.74      0.00
  -11   13    6     -7.89      0.00
  -10   13    6      6.30      0.00
   -9   13    6     -3.76      0.00
   -8   13    6    -18.53      0.00
   -7   13    6     19.27      0.00
   -6   13    6      9.93      0.00
   -5   13    6    -11.29      0.00
   -4   13    6    -30.95      0.00
   -3   13    6     26.15      0.00
   -2   13    6      4.86      0.00
   -1   13    6    -29.32      0.00
    0   13    6    -10.61      0.00
    1   13    6    -24.93      0.00
    2   13    6     -3.04      0.00
    3   13    6     20.69      0.00
    4   13    6    -19.30      0.00
    5   13    6    -55.30      0.00
    6   13    6     29.41      0.00
    7   13    6    -16.77      0.00
    8   13    6     -1.19      0.00
    9   13    6     34.91      0.00
   10   13    6      8.20      0.00
   11   13    6     -4.82      0.00
   12   13    6     -7.00      0.00
   13   13    6     -4.26      0.00
   14   13    6     13.64      0.00
   15   13    6    -17.98      0.00
   16   13    6    -11.16      0.00
   17   13    6     -7.05      0.00
   18   13    6      5.06      0.00
   19   13    6      4.93      0.00
   20   13    6     -3.91      0.00
   21   13    6      0.71      0.00
  -21   14    6      2.00      0.00
  -20   14    6      3.28      0.00
  -19   14    6     -0.48      0.00
  -18   14    6      2.49      0.00
  -17   14    6     -8.46      0.00
  -16   14    6    -10.39      0.00
  -15   14    6      2.86      0.00
  -14   14    6      0.41      0.00
  -13   14    6     -8.97      0.00
  -12   14    6      6.45      0.00
  -11   14    6    -20.17      0.00
  -10   14    6    -30.36      0.00
   -9   14    6     10.71      0.00
   -8   14    6     22.49      0.00
   -7   14    6     11.59      0.00
   -6   14    6    -17.36      0.00
   -5   14    6      3.07      0.00
   -4   14    6     17.41      0.00
   -3   14    6     -1.66      0.00
   -2   14    6     43.79      0.00
   -1   14    6     71.22      0.00
    0   14    6      9.97      0.00
    1   14    6    -17.12      0.00
    2   14    6     11.12      0.00
    3   14    6    -32.67      0.00
    4   14    6     -0.60      0.00
    5   14    6     20.41      0.00
    6   14    6    -23.26      0.00
    7   14    6      0.16      0.00
    8   14    6      5.82      0.00
    9   14    6    -32.21      0.00
   10   14    6      9.82      0.00
   11   14    6     -7.77      0.00
   12   14    6     11.57      0.00
   13   14    6      9.45      0.00
   14   14    6     13.48      0.00
   15   14    6      5.62      0.00
   16   14    6      6.77      0.00
   17   14    6      4.01      0.00
   18   14    6      0.10      0.00
   19   14    6      3.00      0.00
   20   14    6     -0.91      0.00
  -20   15    6      1.37      0.00
  -19   15    6     -5.42      0.00
  -18   15    6    -11.95      0.00
  -17   15    6     10.65      0.00
  -16   15    6    -14.27      0.00
  -15   15    6     -9.82      0.00
  -14   15    6     -7.03      0.00
  -13   15    6    -18.59      0.00
  -12   15    6    -26.52      0.00
  -11   15    6     -4.23      0.00
  -10   15    6      0.32      0.00
   -9   15    6     20.57      0.00
   -8   15    6     20.76      0.00
   -7   15    6     17.70      0.00
   -6   15    6     11.11      0.00
   -5   15    6     19.68      0.00
   -4   15    6    -14.02      0.00
   -3   15    6    -19.48      0.00
   -2   15    6     -6.56      0.00
   -1   15    6     14.68      0.00
    0   15    6    -33.23      0.00
    1   15    6     69.26      0.00
    2   15    6    -26.17      0.00
    3   15    6    -35.77      0.00
    4   15    6     17.23      0.00
    5   15    6    -29.58      0.00
    6   15    6     12.95      0.00
    7   15    6     36.02      0.00
    8   15    6    -37.96      0.00
    9   15    6      1.28      0.00
   10   15    6    -18.54      0.00
   11   15    6     -3.36      0.00
   12   15    6      0.24      0.00
   13   15    6    -26.36      0.00
   14   15    6     11.36      0.00
   15   15    6     -7.78      0.00
   16   15    6    -19.98      0.00
   17   15    6      1.77      0.00
   18   15    6     -4.44      0.00
   19   15    6     -6.12      0.00
   20   15    6     -2.75      0.00
  -20   16    6      2.13      0.00
  -19   16    6     -2.71      0.00
  -18   16    6     -9.48      0.00
  -17   16    6     10.73      0.00
  -16   16    6     -4.62      0.00
  -15   16    6     -2.62      0.00
  -14   16    6     -8.01      0.00
  -13   16    6     15.37      0.00
  -12   16    6     20.72      0.00
  -11   16    6     14.49      0.00
  -10   16    6     10.98      0.00
   -9   16    6    -11.28      0.00
   -8   16    6     14.68      0.00
   -7   16    6    -11.73      0.00
   -6   16    6    -32.44      0.00
   -5   16    6    -10.54      0.00
   -4   16    6     22.60      0.00
   -3   16    6     18.27      0.00
   -2   16    6    -21.60      0.00
   -1   16    6    -22.95      0.00
    0   16    6     -6.71      0.00
    1   16    6    -37.03      0.00
    2   16    6     54.37      0.00
    3   16    6     43.47      0.00
    4   16    6    -39.30      0.00
    5   16    6    -13.29      0.00
    6   16    6     10.75      0.00
    7   16    6     -9.01      0.00
    8   16    6      5.63      0.00
    9   16    6     -0.30      0.00
   10   16    6     -5.33      0.00
   11   16    6     -3.46      0.00
   12   16    6      1.38      0.00
   13   16    6     -0.65      0.00
   14   16    6      6.43      0.00
   15   16    6      3.67      0.00
   16   16    6    -17.61      0.00
   17   16    6      6.24      0.00
   18   16    6     -2.62      0.00
   19   16    6     -0.89      0.00
   20   16    6      4.23      0.00
  -20   17    6      5.45      0.00
  -19   17    6      0.70      0.00
  -18   17    6     -8.65      0.00
  -17   17    6     -9.73      0.00
  -16   17    6     -3.90      0.00
  -15   17    6      0.17      0.00
  -14   17    6      7.04      0.00
  -13   17    6     15.30      0.00
  -12   17    6     -5.22      0.00
  -11   17    6    -38.55      0.00
  -10   17    6     -6.14      0.00
   -9   17    6    -11.96      0.00
   -8   17    6     20.62      0.00
   -7   17    6      2.57      0.00
   -6   17    6    -12.99      0.00
   -5   17    6    -10.55      0.00
   -4   17    6    -11.03      0.00
   -3   17    6     -9.58      0.00
   -2   17    6     24.61      0.00
   -1   17    6     55.43      0.00
    0   17    6    -32.10      0.00
    1   17    6    -40.20      0.00
    2   17    6     69.96      0.00
    3   17    6      1.28      0.00
    4   17    6     25.04      0.00
    5   17    6     -3.92      0.00
    6   17    6     -6.09      0.00
    7   17    6     -6.04      0.00
    8   17    6     -5.81      0.00
    9   17    6     22.62      0.00
   10   17    6     -6.91      0.00
   11   17    6      0.16      0.00
   12   17    6     -8.74      0.00
   13   17    6      2.27      0.00
   14   17    6      4.08      0.00
   15   17    6     -1.06      0.00
   16   17    6     12.89      0.00
   17   17    6     21.38      0.00
   18   17    6     -7.01      0.00
   19   17    6      2.01      0.00
  -19   18    6     -2.83      0.00
  -18   18    6      0.68      0.00
  -17   18    6    -10.07      0.00
  -16   18    6      1.20      0.00
  -15   18    6    -12.74      0.00
  -14   18    6    -14.13      0.00
  -13   18    6      6.59      0.00
  -12   18    6      9.70      0.00
  -11   18    6     -7.92      0.00
  -10   18    6     16.91      0.00
   -9   18    6    -17.00      0.00
   -8   18    6     14.11      0.00
   -7   18    6     -7.11      0.00
   -6   18    6     13.31      0.00
   -5   18    6     31.95      0.00
   -4   18    6     12.56      0.00
   -3   18    6     18.28      0.00
   -2   18    6      8.75      0.00
   -1   18    6      1.17      0.00
    0   18    6    -31.09      0.00
    1   18    6    -23.69      0.00
    2   18    6      4.00      0.00
    3   18    6     38.80      0.00
    4   18    6     10.12      0.00
    5   18    6     -5.96      0.00
    6   18    6     11.74      0.00
    7   18    6      1.01      0.00
    8   18    6     -1.78      0.00
    9   18    6      5.25      0.00
   10   18    6      5.95      0.00
   11   18    6      5.33      0.00
   12   18    6     -2.80      0.00
   13   18    6      1.67      0.00
   14   18    6     -4.70      0.00
   15   18    6    -14.02      0.00
   16   18    6    -12.87      0.00
   17   18    6      0.89      0.00
   18   18    6      2.62      0.00
   19   18    6     -7.48      0.00
  -19   19    6     -1.01      0.00
  -18   19    6     10.75      0.00
  -17   19    6     -6.54      0.00
  -16   19    6      6.42      0.00
  -15   19    6      6.51      0.00
  -14   19    6     -7.27      0.00
  -13   19    6     25.00      0.00
  -12   19    6     12.72      0.00
  -11   19    6     12.42      0.00
  -10   19    6     10.67      0.00
   -9   19    6    -18.52      0.00
   -8   19    6      1.61      0.00
   -7   19    6     -8.09      0.00
   -6   19    6     22.30      0.00
   -5   19    6     18.23      0.00
   -4   19    6      0.46      0.00
   -3   19    6     -0.92      0.00
   -2   19    6    -33.21      0.00
   -1   19    6     -7.85      0.00
    0   19    6     12.52      0.00
    1   19    6    -42.16      0.00
    2   19    6    -11.72      0.00
    3   19    6    -39.64      0.00
    4   19    6    -11.93      0.00
    5   19    6     41.58      0.00
    6   19    6     -2.94      0.00
    7   19    6     13.30      0.00
    8   19    6     17.24      0.00
    9   19    6    -25.64      0.00
   10   19    6      5.44      0.00
   11   19    6     -2.98      0.00
   12   19    6     -8.48      0.00
   13   19    6    -11.94      0.00
   14   19    6     -2.19      0.00
   15   19    6     -7.47      0.00
   16   19    6     -1.96      0.00
   17   19    6     -2.71      0.00
   18   19    6      9.71      0.00
   19   19    6      7.20      0.00
  -19   20    6     -0.77      0.00
  -18   20    6     -1.99      0.00
  -17   20    6     -5.97      0.00
  -16   20    6    -12.20      0.00
  -15   20    6      1.03      0.00
  -14   20    6      8.90      0.00
  -13   20    6    -12.00      0.00
  -12   20    6     -2.53      0.00
  -11   20    6     10.32      0.00
  -10   20    6    -15.35      0.00
   -9   20    6     38.75      0.00
   -8   20    6     -1.91      0.00
   -7   20    6    -19.48      0.00
   -6   20    6     -9.47      0.00
   -5   20    6      5.41      0.00
   -4   20    6    -28.11      0.00
   -3   20    6     16.87      0.00
   -2   20    6     -8.17      0.00
   -1   20    6     -9.37      0.00
    0   20    6     22.62      0.00
    1   20    6    -33.42      0.00
    2   20    6    -18.97      0.00
    3   20    6     -4.23      0.00
    4   20    6    -43.51      0.00
    5   20    6     11.02      0.00
    6   20    6     -3.85      0.00
    7   20    6      5.72      0.00
    8   20    6     39.99      0.00
    9   20    6    -12.05      0.00
   10   20    6    -13.97      0.00
   11   20    6     -8.22      0.00
   12   20    6      9.47      0.00
   13   20    6      9.43      0.00
   14   20    6     -3.35      0.00
   15   20    6      2.70      0.00
   16   20    6     -1.98      0.00
   17   20    6    -10.58      0.00
   18   20    6      7.43      0.00
  -18   21    6     -5.10      0.00
  -17   21    6      6.02      0.00
  -16   21    6      3.65      0.00
  -15   21    6    -19.36      0.00
  -14   21    6      2.75      0.00
  -13   21    6      6.50      0.00
  -12   21    6    -16.35      0.00
  -11   21    6     -1.42      0.00
  -10   21    6    -12.07      0.00
   -9   21    6     11.55      0.00
   -8   21    6     -2.57      0.00
   -7   21    6     -8.22      0.00
   -6   21    6     10.43      0.00
   -5   21    6     13.01      0.00
   -4   21    6     -4.24      0.00
   -3   21    6    -23.28      0.00
   -2   21    6    -17.81      0.00
   -1   21    6      7.63      0.00
    0   21    6    -21.88      0.00
    1   21    6     11.30      0.00
    2   21    6      6.61      0.00
    3   21    6     -1.89      0.00
    4   21    6    -20.59      0.00
    5   21    6     11.10      0.00
    6   21    6    -11.16      0.00
    7   21    6     33.04      0.00
    8   21    6      4.81      0.00
    9   21    6      5.60      0.00
   10   21    6     18.01      0.00
   11   21    6      3.94      0.00
   12   21    6     -0.17      0.00
   13   21    6      3.55      0.00
   14   21    6     -2.99      0.00
   15   21    6     -3.02      0.00
   16   21    6      2.39      0.00
   17   21    6      2.42      0.00
   18   21    6     -0.34      0.00
  -18   22    6     -3.02      0.00
  -17   22    6      6.82      0.00
  -16   22    6    -13.29      0.00
  -15   22    6      1.09      0.00
  -14   22    6     -0.21      0.00
  -13   22    6      5.32      0.00
  -12   22    6      5.07      0.00
  -11   22    6      0.37      0.00
  -10   22    6     -5.51      0.00
   -9   22    6     -7.84      0.00
   -8   22    6      0.22      0.00
   -7   22    6     11.29      0.00
   -6   22    6     12.97      0.00
   -5   22    6    -27.90      0.00
   -4   22    6     10.74      0.00
   -3   22    6     -2.92      0.00
   -2   22    6      4.73      0.00
   -1   22    6      4.20      0.00
    0   22    6     -9.01      0.00
    1   22    6     12.35      0.00
    2   22    6    -26.17      0.00
    3   22    6     14.35      0.00
    4   22    6     17.29      0.00
    5   22    6    -11.12      0.00
    6   22    6     21.12      0.00
    7   22    6    -23.88      0.00
    8   22    6    -28.12      0.00
    9   22    6      8.78      0.00
   10   22    6     -5.89      0.00
   11   22    6     22.61      0.00
   12   22    6    -11.60      0.00
   13   22    6    -16.52      0.00
   14   22    6      1.54      0.00
   15   22    6     -0.58      0.00
   16   22    6     -0.06      0.00
   17   22    6      7.98      0.00
  -17   23    6     -2.33      0.00
  -16   23    6     -2.65      0.00
  -15   23    6    -10.08      0.00
  -14   23    6     -4.02      0.00
  -13   23    6     -3.87      0.00
  -12   23    6     -1.93      0.00
  -11   23    6      8.52      0.00
  -10   23    6    -21.00      0.00
   -9   23    6     -9.16      0.00
   -8   23    6     26.11      0.00
   -7   23    6     -4.33      0.00
   -6   23    6      1.03      0.00
   -5   23    6     26.40      0.00
   -4   23    6      1.80      0.00
   -3   23    6     26.85      0.00
   -2   23    6     14.36      0.00
   -1   23    6      9.40      0.00
    0   23    6     10.43      0.00
    1   23    6      0.86      0.00
    2   23    6     -0.83      0.00
    3   23    6     -3.23      0.00
    4   23    6      2.43      0.00
    5   23    6    -28.43      0.00
    6   23    6      9.73      0.00
    7   23    6     -1.78      0.00
    8   23    6    -32.61      0.00
    9   23    6     -2.52      0.00
   10   23    6      6.30      0.00
   11   23    6     -3.96      0.00
   12   23    6      7.13      0.00
   13   23    6      2.62      0.00
   14   23    6     -8.32      0.00
   15   23    6      8.99      0.00
   16   23    6      5.79      0.00
   17   23    6     -9.42      0.00
  -16   24    6     14.97      0.00
  -15   24    6     -6.74      0.00
  -14   24    6     14.67      0.00
  -13   24    6      2.20      0.00
  -12   24    6     -4.32      0.00
  -11   24    6      5.34      0.00
  -10   24    6      5.90      0.00
   -9   24    6    -17.01      0.00
   -8   24    6     12.56      0.00
   -7   24    6     -3.61      0.00
   -6   24    6    -11.44      0.00
   -5   24    6    -25.74      0.00
   -4   24    6     23.55      0.00
   -3   24    6     34.30      0.00
   -2   24    6     20.69      0.00
   -1   24    6    -18.08      0.00
    0   24    6    -26.28      0.00
    1   24    6      6.01      0.00
    2   24    6     -6.79      0.00
    3   24    6    -20.71      0.00
    4   24    6    -12.96      0.00
    5   24    6     -4.79      0.00
    6   24    6     11.46      0.00
    7   24    6    -15.78      0.00
    8   24    6     18.08      0.00
    9   24    6      7.73      0.00
   10   24    6    -13.54      0.00
   11   24    6      9.31      0.00
   12   24    6     -9.32      0.00
   13   24    6      5.63      0.00
   14   24    6      0.50      0.00
   15   24    6    -10.44      0.00
   16   24    6     -5.83      0.00
  -16   25    6      6.44      0.00
  -15   25    6      4.14      0.00
  -14   25    6    -11.10      0.00
  -13   25    6     -0.87      0.00
  -12   25    6     -3.69      0.00
  -11   25    6    -13.95      0.00
  -10   25    6      2.75      0.00
   -9   25    6      9.39      0.00
   -8   25    6     11.37      0.00
   -7   25    6    -14.33      0.00
   -6   25    6     14.10      0.00
   -5   25    6    -13.51      0.00
   -4   25    6     -2.39      0.00
   -3   25    6     11.47      0.00
   -2   25    6    -24.46      0.00
   -1   25    6     -9.55      0.00
    0   25    6     35.80      0.00
    1   25    6     -6.43      0.00
    2   25    6     17.84      0.00
    3   25    6    -11.80      0.00
    4   25    6     24.01      0.00
    5   25    6     10.87      0.00
    6   25    6      0.80      0.00
    7   25    6      1.43      0.00
    8   25    6      6.82      0.00
    9   25    6     -4.11      0.00
   10   25    6      5.91      0.00
   11   25    6      2.55      0.00
   12   25    6     -1.05      0.00
   13   25    6     10.02      0.00
   14   25    6     -5.44      0.00
   15   25    6      2.00      0.00
  -15   26    6    -10.35      0.00
  -14   26    6      7.87      0.00
  -13   26    6      8.12      0.00
  -12   26    6    -19.24      0.00
  -11   26    6     -0.00      0.00
  -10   26    6     -0.04      0.00
   -9   26    6     -4.41      0.00
   -8   26    6     -9.91      0.00
   -7   26    6     26.66      0.00
   -6   26    6     12.56      0.00
   -5   26    6     16.86      0.00
   -4   26    6      9.30      0.00
   -3   26    6    -12.15      0.00
   -2   26    6    -16.38      0.00
   -1   26    6    -10.72      0.00
    0   26    6      1.92      0.00
    1   26    6      9.69      0.00
    2   26    6     24.98      0.00
    3   26    6    -23.45      0.00
    4   26    6    -25.28      0.00
    5   26    6      0.70      0.00
    6   26    6      2.20      0.00
    7   26    6      0.80      0.00
    8   26    6      4.22      0.00
    9   26    6    -10.36      0.00
   10   26    6     -0.23      0.00
   11   26    6      1.19      0.00
   12   26    6     -0.01      0.00
   13   26    6     -6.25      0.00
   14   26    6      6.46      0.00
   15   26    6     -8.78      0.00
  -14   27    6      3.53      0.00
  -13   27    6      5.74      0.00
  -12   27    6      6.27      0.00
  -11   27    6      3.17      0.00
  -10   27    6     -7.51      0.00
   -9   27    6     10.41      0.00
   -8   27    6    -26.87      0.00
   -7   27    6     -1.29      0.00
   -6   27    6     -6.12      0.00
   -5   27    6     -4.03      0.00
   -4   27    6      2.78      0.00
   -3   27    6     -5.74      0.00
   -2   27    6    -24.63      0.00
   -1   27    6    -11.83      0.00
    0   27    6     -9.10      0.00
    1   27    6     11.54      0.00
    2   27    6    -16.17      0.00
    3   27    6      7.20      0.00
    4   27    6      1.66      0.00
    5   27    6      3.51      0.00
    6   27    6     -9.85      0.00
    7   27    6      1.51      0.00
    8   27    6     -9.71      0.00
    9   27    6     -5.23      0.00
   10   27    6     12.13      0.00
   11   27    6      7.92      0.00
   12   27    6      3.95      0.00
   13   27    6      3.44      0.00
   14   27    6     -1.97      0.00
  -14   28    6     -2.71      0.00
  -13   28    6     -1.49      0.00
  -12   28    6      7.13      0.00
  -11   28    6     12.37      0.00
  -10   28    6     -0.90      0.00
   -9   28    6     -3.06      0.00
   -8   28    6     -1.68      0.00
   -7   28    6     -1.15      0.00
   -6   28    6     14.30      0.00
   -5   28    6     20.63      0.00
   -4   28    6    -23.49      0.00
   -3   28    6     -4.49      0.00
   -2   28    6      0.12      0.00
   -1   28    6     11.21      0.00
    0   28    6      4.64      0.00
    1   28    6     14.55      0.00
    2   28    6      3.99      0.00
    3   28    6     18.06      0.00
    4   28    6     -0.73      0.00
    5   28    6     12.04      0.00
    6   28    6     -4.55      0.00
    7   28    6      4.73      0.00
    8   28    6     -0.34      0.00
    9   28    6     -1.06      0.00
   10   28    6      6.58      0.00
   11   28    6     -8.69      0.00
   12   28    6     -1.91      0.00
   13   28    6     15.02      0.00
  -13   29    6    -13.13      0.00
  -12   29    6     14.85      0.00
  -11   29    6     -2.93      0.00
  -10   29    6     -2.25      0.00
   -9   29    6     -4.13      0.00
   -8   29    6     11.11      0.00
   -7   29    6     -0.82      0.00
   -6   29    6     -3.49      0.00
   -5   29    6      3.88      0.00
   -4   29    6      7.85      0.00
   -3   29    6     -5.77      0.00
   -2   29    6     17.60      0.00
   -1   29    6     -5.18      0.00
    0   29    6      3.28      0.00
    1   29    6     -0.75      0.00
    2   29    6     -5.22      0.00
    3   29    6      5.92      0.00
    4   29    6     -6.24      0.00
    5   29    6     -6.87      0.00
    6   29    6    -15.86      0.00
    7   29    6    -15.29      0.00
    8   29    6      5.44      0.00
    9   29    6     -3.31      0.00
   10   29    6      7.61      0.00
   11   29    6      6.83      0.00
   12   29    6     -7.81      0.00
  -12   30    6     13.86      0.00
  -11   30    6      2.62      0.00
  -10   30    6     -2.12      0.00
   -9   30    6      5.01      0.00
   -8   30    6     -0.22      0.00
   -7   30    6    -13.35      0.00
   -6   30    6     -0.31      0.00
   -5   30    6    -18.07      0.00
   -4   30    6     -3.81      0.00
   -3   30    6      1.18      0.00
   -2   30    6     -2.96      0.00
   -1   30    6    -10.65      0.00
    0   30    6    -16.08      0.00
    1   30    6     -3.34      0.00
    2   30    6     14.37      0.00
    3   30    6      9.72      0.00
    4   30    6     14.71      0.00
    5   30    6     -2.02      0.00
    6   30    6     -4.72      0.00
    7   30    6     -0.26      0.00
    8   30    6      6.33      0.00
    9   30    6      6.46      0.00
   10   30    6     -3.64      0.00
   11   30    6     -4.39      0.00
  -11   31    6      1.28      0.00
  -10   31    6     -5.95      0.00
   -9   31    6      0.66      0.00
   -8   31    6    -11.09      0.00
   -7   31    6     11.66      0.00
   -6   31    6     -1.69      0.00
   -5   31    6      7.50      0.00
   -4   31    6      8.72      0.00
   -3   31    6     -0.98      0.00
   -2   31    6     -8.34      0.00
   -1   31    6     -2.92      0.00
    0   31    6      8.04      0.00
    1   31    6     -0.64      0.00
    2   31    6     -2.45      0.00
    3   31    6     12.39      0.00
    4   31    6    -14.43      0.00
    5   31    6     10.80      0.00
    6   31    6     -3.71      0.00
    7   31    6     -4.12      0.00
    8   31    6      0.03      0.00
    9   31    6    -10.50      0.00
   10   31    6     -6.92      0.00
   -9   32    6     -5.17      0.00
   -8   32    6     -0.07      0.00
   -7   32    6     10.31      0.00
   -6   32    6     -2.96      0.00
   -5   32    6     -2.76      0.00
   -4   32    6     10.90      0.00
   -3   32    6      3.88      0.00
   -2   32    6     15.83      0.00
   -1   32    6      7.77      0.00
    0   32    6    -16.59      0.00
    1   32    6      3.27      0.00
    2   32    6     19.70      0.00
    3   32    6     -4.67      0.00
    4   32    6     11.26      0.00
    5   32    6     14.93      0.00
    6   32    6      5.42      0.00
    7   32    6      4.89      0.00
    8   32    6     -5.31      0.00
    9   32    6     -3.87      0.00
   -8   33    6     -2.74      0.00
   -7   33    6     -0.10      0.00
   -6   33    6     -4.59      0.00
   -5   33    6     -9.73      0.00
   -4   33    6      3.15      0.00
   -3   33    6     -4.43      0.00
   -2   33    6      5.65      0.00
   -1   33    6    -10.14      0.00
    0   33    6      1.12      0.00
    1   33    6      2.63      0.00
    2   33    6      2.55      0.00
    3   33    6     -5.39      0.00
    4   33    6      4.49      0.00
    5   33    6     -6.51      0.00
    6   33    6      5.52      0.00
    7   33    6     -3.42      0.00
   -6   34    6     -5.34      0.00
   -5   34    6      3.40      0.00
   -4   34    6      3.49      0.00
   -3   34    6     -7.62      0.00
   -2   34    6     -7.23      0.00
   -1   34    6      6.17      0.00
    0   34    6      9.23      0.00
    1   34    6     -7.40      0.00
    2   34    6     -0.31      0.00
    3   34    6      7.44      0.00
    4   34    6     -1.74      0.00
    5   34    6     -9.17      0.00
   -2   35    6     -6.77      0.00
   -1   35    6      3.68      0.00
    0   35    6     -7.85      0.00
    1   35    6      9.33      0.00
    2   35    6     -0.62      0.00
  -22    1    7     -2.81      0.00
  -21    1    7     -2.13      0.00
  -20    1    7      1.03      0.00
  -19    1    7     -4.22      0.00
  -18    1    7     -0.37      0.00
  -17    1    7     12.65      0.00
  -16    1    7     11.49      0.00
  -15    1    7      5.24      0.00
  -14    1    7    -25.21      0.00
  -13    1    7     -1.60      0.00
  -12    1    7     10.40      0.00
  -11    1    7      6.08      0.00
  -10    1    7      8.71      0.00
   -9    1    7    -24.71      0.00
   -8    1    7      6.88      0.00
   -7    1    7    -23.38      0.00
   -6    1    7     41.93      0.00
   -5    1    7    -19.47      0.00
   -4    1    7     33.53      0.00
   -3    1    7     38.99      0.00
   -2    1    7    -75.65      0.00
   -1    1    7     -3.15      0.00
    0    1    7     -2.75      0.00
    1    1    7    -23.13      0.00
    2    1    7    174.23      0.00
    3    1    7    -53.37      0.00
    4    1    7     13.78      0.00
    5    1    7      1.42      0.00
    6    1    7    -37.28      0.00
    7    1    7     34.85      0.00
    8    1    7     -4.83      0.00
    9    1    7     26.63      0.00
   10    1    7     21.34      0.00
   11    1    7     -0.00      0.00
   12    1    7     11.50      0.00
   13    1    7     18.53      0.00
   14    1    7     -1.52      0.00
   15    1    7     -3.40      0.00
   16    1    7    -24.88      0.00
   17    1    7     -6.00      0.00
   18    1    7     -7.99      0.00
   19    1    7      7.61      0.00
   20    1    7      5.73      0.00
   21    1    7     -9.43      0.00
  -22    2    7      6.05      0.00
  -21    2    7     -1.82      0.00
  -20    2    7     15.40      0.00
  -19    2    7     -9.99      0.00
  -18    2    7     -8.38      0.00
  -17    2    7      7.15      0.00
  -16    2    7    -13.19      0.00
  -15    2    7    -22.61      0.00
  -14    2    7    -22.27      0.00
  -13    2    7     25.75      0.00
  -12    2    7    -20.82      0.00
  -11    2    7      5.49      0.00
  -10    2    7    -39.40      0.00
   -9    2    7    -24.54      0.00
   -8    2    7    -40.26      0.00
   -7    2    7     66.10      0.00
   -6    2    7    -33.12      0.00
   -5    2    7     23.57      0.00
   -4    2    7      5.74      0.00
   -3    2    7    -74.80      0.00
   -2    2    7    122.95      0.00
   -1    2    7   -160.45      0.00
    0    2    7     70.53      0.00
    1    2    7    181.11      0.00
    2    2    7   -180.61      0.00
    3    2    7     22.26      0.00
    4    2    7    -78.41      0.00
    5    2    7     -7.10      0.00
    6    2    7     88.89      0.00
    7    2    7    -41.48      0.00
    8    2    7      2.46      0.00
    9    2    7    -44.06      0.00
   10    2    7    -43.47      0.00
   11    2    7      1.25      0.00
   12    2    7      6.20      0.00
   13    2    7     -5.25      0.00
   14    2    7     27.74      0.00
   15    2    7      0.37      0.00
   16    2    7     19.26      0.00
   17    2    7      6.75      0.00
   18    2    7      2.51      0.00
   19    2    7     20.10      0.00
   20    2    7     -9.15      0.00
   21    2    7      8.82      0.00
  -22    3    7    -16.83      0.00
  -21    3    7    -15.10      0.00
  -20    3    7     -4.20      0.00
  -19    3    7     16.71      0.00
  -18    3    7      0.64      0.00
  -17    3    7    -11.90      0.00
  -16    3    7     18.45      0.00
  -15    3    7    -27.01      0.00
  -14    3    7    -10.57      0.00
  -13    3    7     28.28      0.00
  -12    3    7     39.07      0.00
  -11    3    7     32.51      0.00
  -10    3    7    -37.99      0.00
   -9    3    7    -45.33      0.00
   -8    3    7     28.18      0.00
   -7    3    7     29.75      0.00
   -6    3    7     19.08      0.00
   -5    3    7    -18.85      0.00
   -4    3    7   -123.31      0.00
   -3    3    7    -16.26      0.00
   -2    3    7    -82.71      0.00
   -1    3    7    150.59      0.00
    0    3    7    -48.03      0.00
    1    3    7   -128.17      0.00
    2    3    7     33.39      0.00
    3    3    7     70.14      0.00
    4    3    7    -34.09      0.00
    5    3    7    -16.45      0.00
    6    3    7     -2.72      0.00
    7    3    7    -57.82      0.00
    8    3    7     -3.38      0.00
    9    3    7     -2.91      0.00
   10    3    7     15.85      0.00
   11    3    7     12.97      0.00
   12    3    7     -7.71      0.00
   13    3    7      7.74      0.00
   14    3    7    -15.34      0.00
   15    3    7     -3.82      0.00
   16    3    7     41.54      0.00
   17    3    7     -0.74      0.00
   18    3    7     18.26      0.00
   19    3    7    -11.15      0.00
   20    3    7      0.19      0.00
   21    3    7     14.30      0.00
  -22    4    7      1.19      0.00
  -21    4    7      1.69      0.00
  -20    4    7     -1.36      0.00
  -19    4    7     20.41      0.00
  -18    4    7      8.09      0.00
  -17    4    7    -17.63      0.00
  -16    4    7     -8.14      0.00
  -15    4    7     -6.55      0.00
  -14    4    7     31.05      0.00
  -13    4    7    -34.29      0.00
  -12    4    7      4.90      0.00
  -11    4    7      9.59      0.00
  -10    4    7    -28.09      0.00
   -9    4    7     59.16      0.00
   -8    4    7     18.93      0.00
   -7    4    7    -46.90      0.00
   -6    4    7     -3.57      0.00
   -5    4    7      4.05      0.00
   -4    4    7     42.69      0.00
   -3    4    7    -13.73      0.00
   -2    4    7    -11.85      0.00
   -1    4    7     21.28      0.00
    0    4    7   -182.83      0.00
    1    4    7    -73.66      0.00
    2    4    7    141.79      0.00
    3    4    7     51.15      0.00
    4    4    7    -18.84      0.00
    5    4    7    -47.98      0.00
    6    4    7    -48.33      0.00
    7    4    7     31.39      0.00
    8    4    7      9.87      0.00
    9    4    7     32.80      0.00
   10    4    7     27.35      0.00
   11    4    7      8.69      0.00
   12    4    7      7.60      0.00
   13    4    7      4.65      0.00
   14    4    7      6.17      0.00
   15    4    7     15.03      0.00
   16    4    7      3.56      0.00
   17    4    7     -2.84      0.00
   18    4    7     -8.78      0.00
   19    4    7     -3.86      0.00
   20    4    7     -1.54      0.00
   21    4    7    -10.15      0.00
   22    4    7      2.89      0.00
  -22    5    7      6.13      0.00
  -21    5    7     -6.41      0.00
  -20    5    7     -5.85      0.00
  -19    5    7     -3.14      0.00
  -18    5    7     -2.11      0.00
  -17    5    7     10.37      0.00
  -16    5    7     -8.14      0.00
  -15    5    7      0.11      0.00
  -14    5    7     15.52      0.00
  -13    5    7     11.24      0.00
  -12    5    7     -5.44      0.00
  -11    5    7     20.54      0.00
  -10    5    7      8.49      0.00
   -9    5    7     11.76      0.00
   -8    5    7     15.37      0.00
   -7    5    7     68.63      0.00
   -6    5    7    -21.53      0.00
   -5    5    7      0.43      0.00
   -4    5    7     13.65      0.00
   -3    5    7    -76.98      0.00
   -2    5    7    -41.12      0.00
   -1    5    7    -14.73      0.00
    0    5    7     37.66      0.00
    1    5    7     85.95      0.00
    2    5    7    -60.59      0.00
    3    5    7    -61.81      0.00
    4    5    7     34.29      0.00
    5    5    7     35.04      0.00
    6    5    7     -0.72      0.00
    7    5    7     11.88      0.00
    8    5    7      8.61      0.00
    9    5    7    -12.89      0.00
   10    5    7    -14.46      0.00
   11    5    7      8.06      0.00
   12    5    7      7.01      0.00
   13    5    7     -8.84      0.00
   14    5    7      2.22      0.00
   15    5    7    -11.43      0.00
   16    5    7    -13.01      0.00
   17    5    7      1.13      0.00
   18    5    7     -4.25      0.00
   19    5    7      9.86      0.00
   20    5    7      3.82      0.00
   21    5    7     -0.05      0.00
   22    5    7     -2.91      0.00
  -22    6    7    -12.87      0.00
  -21    6    7      7.67      0.00
  -20    6    7      1.57      0.00
  -19    6    7      6.48      0.00
  -18    6    7     -1.31      0.00
  -17    6    7      3.72      0.00
  -16    6    7     -5.82      0.00
  -15    6    7     -6.49      0.00
  -14    6    7      3.13      0.00
  -13    6    7     42.89      0.00
  -12    6    7      3.88      0.00
  -11    6    7    -38.54      0.00
  -10    6    7    -13.37      0.00
   -9    6    7      2.76      0.00
   -8    6    7     12.92      0.00
   -7    6    7     -2.69      0.00
   -6    6    7     56.75      0.00
   -5    6    7    -43.49      0.00
   -4    6    7    -51.34      0.00
   -3    6    7     40.77      0.00
   -2    6    7     30.73      0.00
   -1    6    7     43.04      0.00
    0    6    7    -10.81      0.00
    1    6    7    -54.83      0.00
    2    6    7    -52.97      0.00
    3    6    7     19.50      0.00
    4    6    7    -12.44      0.00
    5    6    7    -95.41      0.00
    6    6    7     39.86      0.00
    7    6    7     21.82      0.00
    8    6    7     20.66      0.00
    9    6    7      3.38      0.00
   10    6    7    -13.05      0.00
   11    6    7      7.23      0.00
   12    6    7     -1.89      0.00
   13    6    7    -14.87      0.00
   14    6    7    -15.51      0.00
   15    6    7    -13.72      0.00
   16    6    7     10.68      0.00
   17    6    7     -1.03      0.00
   18    6    7    -14.43      0.00
   19    6    7    -10.30      0.00
   20    6    7     -5.58      0.00
   21    6    7    -17.54      0.00
   22    6    7      0.33      0.00
  -22    7    7     -4.12      0.00
  -21    7    7     -8.93      0.00
  -20    7    7      3.23      0.00
  -19    7    7      3.02      0.00
  -18    7    7     -5.43      0.00
  -17    7    7     27.90      0.00
  -16    7    7      0.30      0.00
  -15    7    7      4.43      0.00
  -14    7    7     -0.48      0.00
  -13    7    7    -38.47      0.00
  -12    7    7     61.58      0.00
  -11    7    7    -11.07      0.00
  -10    7    7     -7.82      0.00
   -9    7    7     25.63      0.00
   -8    7    7    -52.08      0.00
   -7    7    7    -14.54      0.00
   -6    7    7    -51.57      0.00
   -5    7    7    -19.55      0.00
   -4    7    7     47.15      0.00
   -3    7    7    -31.85      0.00
   -2    7    7     12.27      0.00
   -1    7    7     28.65      0.00
    0    7    7      7.17      0.00
    1    7    7     24.53      0.00
    2    7    7     55.82      0.00
    3    7    7    -34.05      0.00
    4    7    7    -56.87      0.00
    5    7    7      1.35      0.00
    6    7    7    -21.20      0.00
    7    7    7     30.23      0.00
    8    7    7     -4.10      0.00
    9    7    7      6.10      0.00
   10    7    7    -20.65      0.00
   11    7    7      3.60      0.00
   12    7    7     -0.50      0.00
   13    7    7    -23.08      0.00
   14    7    7      4.87      0.00
   15    7    7    -14.92      0.00
   16    7    7    -21.00      0.00
   17    7    7      2.78      0.00
   18    7    7      7.27      0.00
   19    7    7     14.89      0.00
   20    7    7     -3.31      0.00
   21    7    7      6.86      0.00
  -22    8    7      2.28      0.00
  -21    8    7      2.20      0.00
  -20    8    7     15.48      0.00
  -19    8    7     -2.99      0.00
  -18    8    7      7.84      0.00
  -17    8    7     -9.73      0.00
  -16    8    7     -1.97      0.00
  -15    8    7     -7.65      0.00
  -14    8    7    -11.12      0.00
  -13    8    7     -3.72      0.00
  -12    8    7     -6.98      0.00
  -11    8    7    -13.52      0.00
  -10    8    7     49.09      0.00
   -9    8    7    -10.14      0.00
   -8    8    7     10.69      0.00
   -7    8    7     17.40      0.00
   -6    8    7      8.90      0.00
   -5    8    7    -11.37      0.00
   -4    8    7     37.99      0.00
   -3    8    7    -45.03      0.00
   -2    8    7     41.25      0.00
   -1    8    7     83.09      0.00
    0    8    7    -66.63      0.00
    1    8    7     14.34      0.00
    2    8    7     -4.30      0.00
    3    8    7     10.02      0.00
    4    8    7     54.75      0.00
    5    8    7    -41.89      0.00
    6    8    7     12.22      0.00
    7    8    7      4.46      0.00
    8    8    7    -14.04      0.00
    9    8    7     22.63      0.00
   10    8    7    -10.73      0.00
   11    8    7     21.36      0.00
   12    8    7      5.61      0.00
   13    8    7      0.66      0.00
   14    8    7    -12.13      0.00
   15    8    7      7.80      0.00
   16    8    7     -3.50      0.00
   17    8    7     -7.31      0.00
   18    8    7      0.77      0.00
   19    8    7     10.72      0.00
   20    8    7     -4.61      0.00
   21    8    7      0.19      0.00
  -21    9    7      1.47      0.00
  -20    9    7     -2.19      0.00
  -19    9    7     -9.09      0.00
  -18    9    7     12.69      0.00
  -17    9    7      3.91      0.00
  -16    9    7     -4.95      0.00
  -15    9    7     19.05      0.00
  -14    9    7      2.98      0.00
  -13    9    7     -1.76      0.00
  -12    9    7    -16.29      0.00
  -11    9    7    -26.26      0.00
  -10    9    7      3.30      0.00
   -9    9    7      0.19      0.00
   -8    9    7     -5.80      0.00
   -7    9    7    -13.57      0.00
   -6    9    7     -0.95      0.00
   -5    9    7      1.35      0.00
   -4    9    7     19.32      0.00
   -3    9    7    -21.88      0.00
   -2    9    7     62.71      0.00
   -1    9    7    -40.68      0.00
    0    9    7    156.97      0.00
    1    9    7     34.91      0.00
    2    9    7    -22.72      0.00
    3    9    7     51.41      0.00
    4    9    7    -20.94      0.00
    5    9    7     14.49      0.00
    6    9    7     29.58      0.00
    7    9    7    -67.14      0.00
    8    9    7     -6.51      0.00
    9    9    7    -18.57      0.00
   10    9    7      9.70      0.00
   11    9    7    -23.69      0.00
   12    9    7      2.67      0.00
   13    9    7     -6.26      0.00
   14    9    7     -0.04      0.00
   15    9    7      0.20      0.00
   16    9    7      7.36      0.00
   17    9    7      2.96      0.00
   18    9    7      4.11      0.00
   19    9    7    -16.48      0.00
   20    9    7     -1.48      0.00
   21    9    7     -1.61      0.00
  -21   10    7      4.95      0.00
  -20   10    7      2.99      0.00
  -19   10    7     -2.18      0.00
  -18   10    7    -14.44      0.00
  -17   10    7     -0.60      0.00
  -16   10    7    -42.19      0.00
  -15   10    7    -10.73      0.00
  -14   10    7      2.97      0.00
  -13   10    7     25.73      0.00
  -12   10    7      6.14      0.00
  -11   10    7     16.43      0.00
  -10   10    7    -18.21      0.00
   -9   10    7      9.77      0.00
   -8   10    7     14.64      0.00
   -7   10    7    -26.12      0.00
   -6   10    7     16.11      0.00
   -5   10    7     42.47      0.00
   -4   10    7     23.96      0.00
   -3   10    7     -2.00      0.00
   -2   10    7    -61.67      0.00
   -1   10    7     52.78      0.00
    0   10    7    -84.47      0.00
    1   10    7     75.62      0.00
    2   10    7      1.80      0.00
    3   10    7    -93.67      0.00
    4   10    7     -2.40      0.00
    5   10    7    -15.61      0.00
    6   10    7    -10.50      0.00
    7   10    7     12.30      0.00
    8   10    7     -3.68      0.00
    9   10    7     24.51      0.00
   10   10    7     -4.65      0.00
   11   10    7    -21.02      0.00
   12   10    7      4.52      0.00
   13   10    7     -6.93      0.00
   14   10    7      7.25      0.00
   15   10    7     -6.32      0.00
   16   10    7    -12.64      0.00
   17   10    7     -0.58      0.00
   18   10    7      6.46      0.00
   19   10    7     -5.20      0.00
   20   10    7      6.30      0.00
   21   10    7      5.93      0.00
  -21   11    7     -8.44      0.00
  -20   11    7      2.46      0.00
  -19   11    7    -11.23      0.00
  -18   11    7     -2.90      0.00
  -17   11    7     -8.04      0.00
  -16   11    7      2.24      0.00
  -15   11    7    -18.47      0.00
  -14   11    7      5.67      0.00
  -13   11    7     40.94      0.00
  -12   11    7     -2.81      0.00
  -11   11    7     -5.67      0.00
  -10   11    7    -12.55      0.00
   -9   11    7    -26.72      0.00
   -8   11    7      1.14      0.00
   -7   11    7     25.50      0.00
   -6   11    7      6.53      0.00
   -5   11    7    -10.45      0.00
   -4   11    7     -7.42      0.00
   -3   11    7    -50.48      0.00
   -2   11    7     12.39      0.00
   -1   11    7     30.00      0.00
    0   11    7    -90.18      0.00
    1   11    7     36.41      0.00
    2   11    7    -94.17      0.00
    3   11    7    -35.89      0.00
    4   11    7     33.63      0.00
    5   11    7      4.20      0.00
    6   11    7      5.95      0.00
    7   11    7    -10.22      0.00
    8   11    7     21.29      0.00
    9   11    7     18.45      0.00
   10   11    7    -18.36      0.00
   11   11    7     18.96      0.00
   12   11    7      5.67      0.00
   13   11    7     19.47      0.00
   14   11    7    -23.59      0.00
   15   11    7      8.36      0.00
   16   11    7      4.80      0.00
   17   11    7     13.48      0.00
   18   11    7     -3.86      0.00
   19   11    7      3.40      0.00
   20   11    7     -8.09      0.00
   21   11    7      0.44      0.00
  -21   12    7      7.30      0.00
  -20   12    7      0.59      0.00
  -19   12    7     -0.36      0.00
  -18   12    7      0.45      0.00
  -17   12    7      6.71      0.00
  -16   12    7     -0.18      0.00
  -15   12    7      1.47      0.00
  -14   12    7     -8.98      0.00
  -13   12    7     -7.19      0.00
  -12   12    7     32.55      0.00
  -11   12    7      0.93      0.00
  -10   12    7    -28.69      0.00
   -9   12    7    -24.04      0.00
   -8   12    7    -53.22      0.00
   -7   12    7    -18.52      0.00
   -6   12    7     21.44      0.00
   -5   12    7      1.20      0.00
   -4   12    7    -20.17      0.00
   -3   12    7    -39.18      0.00
   -2   12    7     -0.97      0.00
   -1   12    7    -27.82      0.00
    0   12    7     57.32      0.00
    1   12    7     63.81      0.00
    2   12    7     21.27      0.00
    3   12    7    -72.42      0.00
    4   12    7     33.61      0.00
    5   12    7     28.44      0.00
    6   12    7    -22.31      0.00
    7   12    7     10.64      0.00
    8   12    7      2.59      0.00
    9   12    7     -4.34      0.00
   10   12    7     20.93      0.00
   11   12    7     -0.57      0.00
   12   12    7     -9.41      0.00
   13   12    7     -4.46      0.00
   14   12    7      0.60      0.00
   15   12    7      3.35      0.00
   16   12    7     11.14      0.00
   17   12    7      6.21      0.00
   18   12    7      4.28      0.00
   19   12    7     -8.37      0.00
   20   12    7     -1.69      0.00
  -21   13    7     -6.84      0.00
  -20   13    7     -3.20      0.00
  -19   13    7      3.37      0.00
  -18   13    7     -2.68      0.00
  -17   13    7      0.10      0.00
  -16   13    7     -0.76      0.00
  -15   13    7     12.32      0.00
  -14   13    7     -9.76      0.00
  -13   13    7      9.73      0.00
  -12   13    7    -19.38      0.00
  -11   13    7     11.43      0.00
  -10   13    7      4.96      0.00
   -9   13    7      9.77      0.00
   -8   13    7     22.15      0.00
   -7   13    7     28.25      0.00
   -6   13    7      2.88      0.00
   -5   13    7     20.81      0.00
   -4   13    7     28.95      0.00
   -3   13    7      4.40      0.00
   -2   13    7    -13.35      0.00
   -1   13    7     32.79      0.00
    0   13    7    -64.08      0.00
    1   13    7     -1.39      0.00
    2   13    7    -21.90      0.00
    3   13    7    -17.80      0.00
    4   13    7    -25.52      0.00
    5   13    7     41.71      0.00
    6   13    7     37.26      0.00
    7   13    7    -15.03      0.00
    8   13    7     23.31      0.00
    9   13    7     -5.38      0.00
   10   13    7    -27.24      0.00
   11   13    7     19.90      0.00
   12   13    7     17.11      0.00
   13   13    7     12.68      0.00
   14   13    7      9.60      0.00
   15   13    7    -19.67      0.00
   16   13    7     -2.19      0.00
   17   13    7     -9.68      0.00
   18   13    7      3.37      0.00
   19   13    7     -5.57      0.00
   20   13    7     -5.89      0.00
  -20   14    7      3.58      0.00
  -19   14    7      2.98      0.00
  -18   14    7     10.50      0.00
  -17   14    7    -10.01      0.00
  -16   14    7      0.28      0.00
  -15   14    7     18.72      0.00
  -14   14    7      0.43      0.00
  -13   14    7     -1.57      0.00
  -12   14    7     10.47      0.00
  -11   14    7    -50.83      0.00
  -10   14    7     10.92      0.00
   -9   14    7     31.65      0.00
   -8   14    7    -21.18      0.00
   -7   14    7     26.05      0.00
   -6   14    7    -46.26      0.00
   -5   14    7     -7.45      0.00
   -4   14    7     11.95      0.00
   -3   14    7    -31.67      0.00
   -2   14    7     64.14      0.00
   -1   14    7     -9.02      0.00
    0   14    7    -45.75      0.00
    1   14    7      6.41      0.00
    2   14    7     14.28      0.00
    3   14    7     -3.50      0.00
    4   14    7     13.70      0.00
    5   14    7      6.37      0.00
    6   14    7    -60.53      0.00
    7   14    7     -5.08      0.00
    8   14    7     16.22      0.00
    9   14    7    -15.04      0.00
   10   14    7     -5.86      0.00
   11   14    7    -13.97      0.00
   12   14    7     -5.36      0.00
   13   14    7      5.82      0.00
   14   14    7     -7.56      0.00
   15   14    7      2.12      0.00
   16   14    7     -0.44      0.00
   17   14    7      7.89      0.00
   18   14    7      7.18      0.00
   19   14    7      4.76      0.00
   20   14    7      7.46      0.00
  -20   15    7    -10.06      0.00
  -19   15    7     -7.70      0.00
  -18   15    7     11.88      0.00
  -17   15    7     10.65      0.00
  -16   15    7      2.57      0.00
  -15   15    7     -5.00      0.00
  -14   15    7     15.32      0.00
  -13   15    7     -5.89      0.00
  -12   15    7    -12.58      0.00
  -11   15    7     -9.78      0.00
  -10   15    7     -2.96      0.00
   -9   15    7     -7.55      0.00
   -8   15    7     35.75      0.00
   -7   15    7     -9.69      0.00
   -6   15    7     -2.96      0.00
   -5   15    7    -22.31      0.00
   -4   15    7     15.20      0.00
   -3   15    7      6.71      0.00
   -2   15    7     25.19      0.00
   -1   15    7    -50.48      0.00
    0   15    7     67.10      0.00
    1   15    7     -4.31      0.00
    2   15    7     -3.53      0.00
    3   15    7     -5.90      0.00
    4   15    7    -11.85      0.00
    5   15    7    -44.43      0.00
    6   15    7     -2.32      0.00
    7   15    7     -8.98      0.00
    8   15    7     21.37      0.00
    9   15    7     -5.58      0.00
   10   15    7      0.07      0.00
   11   15    7    -16.01      0.00
   12   15    7      3.02      0.00
   13   15    7     22.65      0.00
   14   15    7     26.24      0.00
   15   15    7      8.41      0.00
   16   15    7    -12.87      0.00
   17   15    7    -12.89      0.00
   18   15    7     -0.28      0.00
   19   15    7      0.48      0.00
   20   15    7      5.57      0.00
  -20   16    7      0.79      0.00
  -19   16    7     -4.50      0.00
  -18   16    7      1.90      0.00
  -17   16    7     -3.68      0.00
  -16   16    7      7.91      0.00
  -15   16    7    -16.82      0.00
  -14   16    7    -18.40      0.00
  -13   16    7      9.04      0.00
  -12   16    7    -21.42      0.00
  -11   16    7     11.95      0.00
  -10   16    7     -2.90      0.00
   -9   16    7    -25.60      0.00
   -8   16    7      6.93      0.00
   -7   16    7     18.67      0.00
   -6   16    7      2.50      0.00
   -5   16    7     13.26      0.00
   -4   16    7    -23.82      0.00
   -3   16    7    -38.54      0.00
   -2   16    7     21.44      0.00
   -1   16    7     21.49      0.00
    0   16    7     35.49      0.00
    1   16    7    -18.98      0.00
    2   16    7    -40.13      0.00
    3   16    7    -12.89      0.00
    4   16    7    -33.94      0.00
    5   16    7     32.15      0.00
    6   16    7      0.10      0.00
    7   16    7      0.38      0.00
    8   16    7     22.80      0.00
    9   16    7    -21.88      0.00
   10   16    7     19.15      0.00
   11   16    7     13.74      0.00
   12   16    7     -8.79      0.00
   13   16    7     -2.01      0.00
   14   16    7      3.32      0.00
   15   16    7      9.70      0.00
   16   16    7      1.97      0.00
   17   16    7     -9.75      0.00
   18   16    7     -4.28      0.00
   19   16    7      0.79      0.00
  -19   17    7      2.91      0.00
  -18   17    7    -18.77      0.00
  -17   17    7     -3.23      0.00
  -16   17    7     12.88      0.00
  -15   17    7      1.20      0.00
  -14   17    7      4.03      0.00
  -13   17    7     -0.01      0.00
  -12   17    7      6.74      0.00
  -11   17    7    -17.45      0.00
  -10   17    7    -31.61      0.00
   -9   17    7     31.92      0.00
   -8   17    7      5.85      0.00
   -7   17    7      7.76      0.00
   -6   17    7     -9.68      0.00
   -5   17    7     33.59      0.00
   -4   17    7    -23.38      0.00
   -3   17    7     15.84      0.00
   -2   17    7    -14.02      0.00
   -1   17    7     -5.68      0.00
    0   17    7     32.58      0.00
    1   17    7     -9.96      0.00
    2   17    7    -58.51      0.00
    3   17    7     27.02      0.00
    4   17    7    -30.00      0.00
    5   17    7     -5.07      0.00
    6   17    7      5.21      0.00
    7   17    7     26.07      0.00
    8   17    7      8.25      0.00
    9   17    7     18.48      0.00
   10   17    7    -25.97      0.00
   11   17    7      7.60      0.00
   12   17    7     -6.63      0.00
   13   17    7      2.04      0.00
   14   17    7    -21.80      0.00
   15   17    7      5.36      0.00
   16   17    7     -0.80      0.00
   17   17    7     -5.38      0.00
   18   17    7     -6.28      0.00
   19   17    7      3.42      0.00
  -19   18    7     -1.69      0.00
  -18   18    7      1.07      0.00
  -17   18    7     -1.14      0.00
  -16   18    7      4.19      0.00
  -15   18    7     -1.05      0.00
  -14   18    7     17.56      0.00
  -13   18    7     -2.23      0.00
  -12   18    7     -7.69      0.00
  -11   18    7     27.13      0.00
  -10   18    7    -13.98      0.00
   -9   18    7    -23.22      0.00
   -8   18    7     12.93      0.00
   -7   18    7     -5.69      0.00
   -6   18    7     18.03      0.00
   -5   18    7     14.25      0.00
   -4   18    7    -19.35      0.00
   -3   18    7     12.07      0.00
   -2   18    7    -23.15      0.00
   -1   18    7    -19.67      0.00
    0   18    7     36.58      0.00
    1   18    7     23.72      0.00
    2   18    7     -6.72      0.00
    3   18    7     -4.61      0.00
    4   18    7     -5.89      0.00
    5   18    7     27.98      0.00
    6   18    7      2.91      0.00
    7   18    7     13.64      0.00
    8   18    7     -8.88      0.00
    9   18    7    -16.71      0.00
   10   18    7      3.45      0.00
   11   18    7      2.25      0.00
   12   18    7      6.28      0.00
   13   18    7    -15.23      0.00
   14   18    7      8.44      0.00
   15   18    7      3.80      0.00
   16   18    7     -3.27      0.00
   17   18    7      7.57      0.00
   18   18    7     -4.62      0.00
   19   18    7     -2.53      0.00
  -19   19    7     -3.11      0.00
  -18   19    7      6.72      0.00
  -17   19    7     -4.05      0.00
  -16   19    7     -5.53      0.00
  -15   19    7    -15.25      0.00
  -14   19    7     -0.39      0.00
  -13   19    7     -0.62      0.00
  -12   19    7      2.69      0.00
  -11   19    7    -21.04      0.00
  -10   19    7     13.49      0.00
   -9   19    7    -18.22      0.00
   -8   19    7      6.88      0.00
   -7   19    7     18.17      0.00
   -6   19    7     27.47      0.00
   -5   19    7    -12.59      0.00
   -4   19    7     -8.56      0.00
   -3   19    7      8.25      0.00
   -2   19    7     10.74      0.00
   -1   19    7     -7.95      0.00
    0   19    7    -13.17      0.00
    1   19    7    -43.44      0.00
    2   19    7     11.92      0.00
    3   19    7     -5.23      0.00
    4   19    7     41.38      0.00
    5   19    7     -2.86      0.00
    6   19    7      3.64      0.00
    7   19    7      5.64      0.00
    8   19    7     -9.48      0.00
    9   19    7     -0.23      0.00
   10   19    7     15.36      0.00
   11   19    7      0.06      0.00
   12   19    7     16.20      0.00
   13   19    7    -21.89      0.00
   14   19    7      6.44      0.00
   15   19    7     -4.10      0.00
   16   19    7      8.81      0.00
   17   19    7    -10.37      0.00
   18   19    7      5.18      0.00
  -18   20    7      2.40      0.00
  -17   20    7      5.49      0.00
  -16   20    7    -14.39      0.00
  -15   20    7      7.92      0.00
  -14   20    7      6.76      0.00
  -13   20    7    -12.50      0.00
  -12   20    7     -9.51      0.00
  -11   20    7     -0.50      0.00
  -10   20    7     15.67      0.00
   -9   20    7     23.34      0.00
   -8   20    7     22.68      0.00
   -7   20    7    -24.79      0.00
   -6   20    7    -20.99      0.00
   -5   20    7     12.42      0.00
   -4   20    7    -20.57      0.00
   -3   20    7      5.41      0.00
   -2   20    7     20.94      0.00
   -1   20    7      3.94      0.00
    0   20    7      4.33      0.00
    1   20    7    -29.76      0.00
    2   20    7    -24.46      0.00
    3   20    7     22.21      0.00
    4   20    7      9.89      0.00
    5   20    7    -16.44      0.00
    6   20    7     10.54      0.00
    7   20    7    -20.16      0.00
    8   20    7     -3.85      0.00
    9   20    7     -5.02      0.00
   10   20    7    -13.26      0.00
   11   20    7      3.66      0.00
   12   20    7    -11.26      0.00
   13   20    7     -7.34      0.00
   14   20    7      2.87      0.00
   15   20    7     16.55      0.00
   16   20    7      2.46      0.00
   17   20    7      6.87      0.00
   18   20    7     -0.20      0.00
  -18   21    7     -1.39      0.00
  -17   21    7      4.03      0.00
  -16   21    7      4.16      0.00
  -15   21    7      3.77      0.00
  -14   21    7     -0.41      0.00
  -13   21    7     16.42      0.00
  -12   21    7    -19.59      0.00
  -11   21    7      4.60      0.00
  -10   21    7     -8.11      0.00
   -9   21    7      4.38      0.00
   -8   21    7     10.96      0.00
   -7   21    7     21.49      0.00
   -6   21    7     -8.15      0.00
   -5   21    7    -13.42      0.00
   -4   21    7    -17.01      0.00
   -3   21    7     12.16      0.00
   -2   21    7    -21.51      0.00
   -1   21    7     25.13      0.00
    0   21    7    -11.92      0.00
    1   21    7    -14.93      0.00
    2   21    7    -14.54      0.00
    3   21    7    -15.51      0.00
    4   21    7    -16.62      0.00
    5   21    7      6.26      0.00
    6   21    7    -18.58      0.00
    7   21    7     -3.12      0.00
    8   21    7     -8.33      0.00
    9   21    7     -7.10      0.00
   10   21    7      1.27      0.00
   11   21    7     14.59      0.00
   12   21    7      5.58      0.00
   13   21    7      9.33      0.00
   14   21    7     -0.62      0.00
   15   21    7      3.73      0.00
   16   21    7      1.18      0.00
   17   21    7     15.75      0.00
  -17   22    7      4.70      0.00
  -16   22    7     -4.98      0.00
  -15   22    7     -2.91      0.00
  -14   22    7     -1.23      0.00
  -13   22    7      1.97      0.00
  -12   22    7     -7.87      0.00
  -11   22    7    -21.71      0.00
  -10   22    7      7.20      0.00
   -9   22    7     -0.23      0.00
   -8   22    7     18.19      0.00
   -7   22    7      2.58      0.00
   -6   22    7     -3.16      0.00
   -5   22    7    -30.62      0.00
   -4   22    7     -8.18      0.00
   -3   22    7     27.24      0.00
   -2   22    7      2.20      0.00
   -1   22    7     -7.29      0.00
    0   22    7     16.76      0.00
    1   22    7    -23.10      0.00
    2   22    7     14.08      0.00
    3   22    7     22.66      0.00
    4   22    7     -5.69      0.00
    5   22    7     20.67      0.00
    6   22    7     -3.34      0.00
    7   22    7      0.69      0.00
    8   22    7     20.94      0.00
    9   22    7      1.35      0.00
   10   22    7      2.50      0.00
   11   22    7      6.11      0.00
   12   22    7      1.87      0.00
   13   22    7      4.16      0.00
   14   22    7     -2.02      0.00
   15   22    7     -2.50      0.00
   16   22    7      0.81      0.00
   17   22    7    -10.16      0.00
  -17   23    7      0.74      0.00
  -16   23    7      7.14      0.00
  -15   23    7      3.30      0.00
  -14   23    7      3.38      0.00
  -13   23    7     -5.64      0.00
  -12   23    7      0.71      0.00
  -11   23    7      4.35      0.00
  -10   23    7     -8.05      0.00
   -9   23    7     -6.61      0.00
   -8   23    7      1.55      0.00
   -7   23    7     -0.04      0.00
   -6   23    7     10.94      0.00
   -5   23    7      5.09      0.00
   -4   23    7      7.08      0.00
   -3   23    7     -7.92      0.00
   -2   23    7     30.97      0.00
   -1   23    7     -2.84      0.00
    0   23    7     30.43      0.00
    1   23    7     13.53      0.00
    2   23    7     -9.36      0.00
    3   23    7     13.76      0.00
    4   23    7     -3.43      0.00
    5   23    7    -13.39      0.00
    6   23    7     21.53      0.00
    7   23    7     14.70      0.00
    8   23    7    -14.17      0.00
    9   23    7     -6.46      0.00
   10   23    7     -9.92      0.00
   11   23    7    -15.92      0.00
   12   23    7    -22.61      0.00
   13   23    7    -11.16      0.00
   14   23    7      1.97      0.00
   15   23    7      1.71      0.00
   16   23    7    -10.44      0.00
  -16   24    7      3.99      0.00
  -15   24    7      1.47      0.00
  -14   24    7     -3.47      0.00
  -13   24    7     -1.68      0.00
  -12   24    7     -4.04      0.00
  -11   24    7     12.74      0.00
  -10   24    7      3.90      0.00
   -9   24    7     10.81      0.00
   -8   24    7     -5.63      0.00
   -7   24    7     10.32      0.00
   -6   24    7    -13.67      0.00
   -5   24    7     -4.49      0.00
   -4   24    7     19.86      0.00
   -3   24    7     -2.69      0.00
   -2   24    7    -21.58      0.00
   -1   24    7    -12.08      0.00
    0   24    7     18.99      0.00
    1   24    7      3.32      0.00
    2   24    7    -18.33      0.00
    3   24    7      7.14      0.00
    4   24    7      4.10      0.00
    5   24    7     -5.18      0.00
    6   24    7     -3.38      0.00
    7   24    7      8.46      0.00
    8   24    7     -1.13      0.00
    9   24    7     -4.72      0.00
   10   24    7      4.23      0.00
   11   24    7    -15.34      0.00
   12   24    7    -12.97      0.00
   13   24    7     -6.31      0.00
   14   24    7      4.83      0.00
   15   24    7     -0.14      0.00
   16   24    7     -7.56      0.00
  -15   25    7      3.13      0.00
  -14   25    7     -0.84      0.00
  -13   25    7    -12.67      0.00
  -12   25    7     -8.31      0.00
  -11   25    7     -5.93      0.00
  -10   25    7      7.50      0.00
   -9   25    7     -2.56      0.00
   -8   25    7      3.94      0.00
   -7   25    7     17.40      0.00
   -6   25    7      5.00      0.00
   -5   25    7     -7.91      0.00
   -4   25    7      8.88      0.00
   -3   25    7     -9.88      0.00
   -2   25    7      5.40      0.00
   -1   25    7    -10.70      0.00
    0   25    7    -16.69      0.00
    1   25    7     11.23      0.00
    2   25    7      8.40      0.00
    3   25    7      2.07      0.00
    4   25    7     20.58      0.00
    5   25    7    -23.77      0.00
    6   25    7     16.98      0.00
    7   25    7      0.25      0.00
    8   25    7      0.59      0.00
    9   25    7     10.06      0.00
   10   25    7     -2.77      0.00
   11   25    7      1.56      0.00
   12   25    7      7.00      0.00
   13   25    7    -12.61      0.00
   14   25    7      2.68      0.00
   15   25    7     -1.03      0.00
  -15   26    7      0.69      0.00
  -14   26    7      0.44      0.00
  -13   26    7     -1.88      0.00
  -12   26    7     -1.92      0.00
  -11   26    7     -7.18      0.00
  -10   26    7      1.55      0.00
   -9   26    7     11.86      0.00
   -8   26    7      8.83      0.00
   -7   26    7     -4.64      0.00
   -6   26    7    -11.02      0.00
   -5   26    7      8.99      0.00
   -4   26    7     -9.34      0.00
   -3   26    7    -17.67      0.00
   -2   26    7     15.10      0.00
   -1   26    7      5.43      0.00
    0   26    7    -19.12      0.00
    1   26    7      7.19      0.00
    2   26    7      8.88      0.00
    3   26    7    -11.20      0.00
    4   26    7     14.92      0.00
    5   26    7     -0.35      0.00
    6   26    7     16.18      0.00
    7   26    7      5.58      0.00
    8   26    7     10.74      0.00
    9   26    7     13.37      0.00
   10   26    7      2.44      0.00
   11   26    7     -4.89      0.00
   12   26    7     -4.87      0.00
   13   26    7     -0.92      0.00
   14   26    7      0.03      0.00
  -14   27    7     -8.53      0.00
  -13   27    7      4.86      0.00
  -12   27    7      7.00      0.00
  -11   27    7     -1.40      0.00
  -10   27    7      2.09      0.00
   -9   27    7     -2.74      0.00
   -8   27    7    -13.64      0.00
   -7   27    7      1.54      0.00
   -6   27    7      2.89      0.00
   -5   27    7     30.29      0.00
   -4   27    7     -2.79      0.00
   -3   27    7      5.93      0.00
   -2   27    7    -18.28      0.00
   -1   27    7     13.75      0.00
    0   27    7     15.59      0.00
    1   27    7     -4.08      0.00
    2   27    7     -7.55      0.00
    3   27    7     11.63      0.00
    4   27    7    -19.47      0.00
    5   27    7      2.04      0.00
    6   27    7     20.07      0.00
    7   27    7      7.29      0.00
    8   27    7    -12.67      0.00
    9   27    7      6.27      0.00
   10   27    7    -12.08      0.00
   11   27    7      4.33      0.00
   12   27    7      8.36      0.00
   13   27    7     -3.73      0.00
  -13   28    7     -3.17      0.00
  -12   28    7     -0.11      0.00
  -11   28    7      5.81      0.00
  -10   28    7      5.20      0.00
   -9   28    7     -2.54      0.00
   -8   28    7     -2.31      0.00
   -7   28    7     -2.02      0.00
   -6   28    7      2.71      0.00
   -5   28    7     -2.70      0.00
   -4   28    7     13.03      0.00
   -3   28    7      8.18      0.00
   -2   28    7    -10.88      0.00
   -1   28    7      8.38      0.00
    0   28    7    -25.62      0.00
    1   28    7     -8.41      0.00
    2   28    7    -17.97      0.00
    3   28    7    -12.60      0.00
    4   28    7    -24.51      0.00
    5   28    7    -13.94      0.00
    6   28    7      6.09      0.00
    7   28    7      9.23      0.00
    8   28    7    -11.66      0.00
    9   28    7      0.91      0.00
   10   28    7     -4.64      0.00
   11   28    7      6.97      0.00
   12   28    7      1.48      0.00
   13   28    7      3.89      0.00
  -12   29    7     -5.55      0.00
  -11   29    7      4.30      0.00
  -10   29    7      2.95      0.00
   -9   29    7     -7.14      0.00
   -8   29    7     -3.07      0.00
   -7   29    7      2.17      0.00
   -6   29    7     -5.29      0.00
   -5   29    7     -8.61      0.00
   -4   29    7    -14.14      0.00
   -3   29    7     -5.95      0.00
   -2   29    7     19.35      0.00
   -1   29    7     21.19      0.00
    0   29    7     -1.80      0.00
    1   29    7     -7.07      0.00
    2   29    7      3.83      0.00
    3   29    7     -3.75      0.00
    4   29    7     -5.30      0.00
    5   29    7      9.09      0.00
    6   29    7     -8.10      0.00
    7   29    7      5.05      0.00
    8   29    7     -5.34      0.00
    9   29    7     -5.56      0.00
   10   29    7     -1.68      0.00
   11   29    7     -3.25      0.00
   12   29    7      4.09      0.00
  -11   30    7      0.88      0.00
  -10   30    7     -7.69      0.00
   -9   30    7      7.61      0.00
   -8   30    7      6.52      0.00
   -7   30    7      4.29      0.00
   -6   30    7     14.36      0.00
   -5   30    7    -16.27      0.00
   -4   30    7     -8.85      0.00
   -3   30    7      6.67      0.00
   -2   30    7     11.98      0.00
   -1   30    7      5.14      0.00
    0   30    7      4.48      0.00
    1   30    7     -6.35      0.00
    2   30    7     -1.12      0.00
    3   30    7     -0.95      0.00
    4   30    7    -10.67      0.00
    5   30    7     -7.01      0.00
    6   30    7      0.02      0.00
    7   30    7     -4.30      0.00
    8   30    7     -4.90      0.00
    9   30    7     -1.69      0.00
   10   30    7      5.93      0.00
   11   30    7      5.36      0.00
  -10   31    7     -4.22      0.00
   -9   31    7     -8.44      0.00
   -8   31    7      9.54      0.00
   -7   31    7     -6.34      0.00
   -6   31    7     10.50      0.00
   -5   31    7     -6.28      0.00
   -4   31    7      8.75      0.00
   -3   31    7     -7.79      0.00
   -2   31    7      7.54      0.00
   -1   31    7      0.32      0.00
    0   31    7      3.79      0.00
    1   31    7     -4.64      0.00
    2   31    7     -0.06      0.00
    3   31    7     -8.28      0.00
    4   31    7      2.74      0.00
    5   31    7      3.35      0.00
    6   31    7     -7.31      0.00
    7   31    7    -12.03      0.00
    8   31    7      7.95      0.00
    9   31    7     -6.99      0.00
   -8   32    7     -1.28      0.00
   -7   32    7     -3.35      0.00
   -6   32    7      1.80      0.00
   -5   32    7    -14.85      0.00
   -4   32    7     -6.67      0.00
   -3   32    7      3.53      0.00
   -2   32    7     -1.56      0.00
   -1   32    7      4.79      0.00
    0   32    7      5.60      0.00
    1   32    7     -0.83      0.00
    2   32    7     10.55      0.00
    3   32    7     -5.44      0.00
    4   32    7     12.75      0.00
    5   32    7      0.72      0.00
    6   32    7      0.47      0.00
    7   32    7     -6.03      0.00
    8   32    7     13.55      0.00
   -7   33    7      1.33      0.00
   -6   33    7    -13.43      0.00
   -5   33    7      6.34      0.00
   -4   33    7     14.41      0.00
   -3   33    7      7.52      0.00
   -2   33    7    -14.43      0.00
   -1   33    7     -2.02      0.00
    0   33    7      6.03      0.00
    1   33    7      3.37      0.00
    2   33    7      0.64      0.00
    3   33    7      2.86      0.00
    4   33    7     -9.27      0.00
    5   33    7      3.20      0.00
    6   33    7      5.76      0.00
   -4   34    7      1.78      0.00
   -3   34    7     -5.32      0.00
   -2   34    7     -4.02      0.00
   -1   34    7     14.92      0.00
    0   34    7     -8.06      0.00
    1   34    7      2.27      0.00
    2   34    7     -4.22      0.00
    3   34    7     -1.50      0.00
    4   34    7      3.85      0.00
  -22    0    8     -1.54      0.00
  -21    0    8      7.92      0.00
  -20    0    8    -22.07      0.00
  -19    0    8    -10.48      0.00
  -18    0    8      3.23      0.00
  -17    0    8      0.90      0.00
  -16    0    8    -18.10      0.00
  -15    0    8     13.59      0.00
  -14    0    8     56.46      0.00
  -13    0    8     36.25      0.00
  -12    0    8    -14.46      0.00
  -11    0    8    -12.67      0.00
  -10    0    8    -44.79      0.00
   -9    0    8     26.55      0.00
   -8    0    8     13.42      0.00
   -7    0    8     79.87      0.00
   -6    0    8    -59.07      0.00
   -5    0    8   -108.88      0.00
   -4    0    8     17.70      0.00
   -3    0    8     83.20      0.00
   -2    0    8    -65.58      0.00
   -1    0    8    -44.71      0.00
    0    0    8     35.59      0.00
    1    0    8   -223.07      0.00
    2    0    8    -24.89      0.00
    3    0    8    187.59      0.00
    4    0    8    -68.27      0.00
    5    0    8    126.43      0.00
    6    0    8     30.16      0.00
    7    0    8    -47.70      0.00
    8    0    8      0.10      0.00
    9    0    8    -24.66      0.00
   10    0    8    -15.79      0.00
   11    0    8     42.56      0.00
   12    0    8    -23.43      0.00
   13    0    8     25.15      0.00
   14    0    8    -19.31      0.00
   15    0    8    -20.37      0.00
   16    0    8      7.13      0.00
   17    0    8    -18.72      0.00
   18    0    8    -17.09      0.00
   19    0    8      8.63      0.00
   20    0    8    -15.78      0.00
   21    0    8      3.52      0.00
  -22    1    8     -7.62      0.00
  -21    1    8      4.99      0.00
  -20    1    8     17.30      0.00
  -19    1    8     -9.42      0.00
  -18    1    8     -1.62      0.00
  -17    1    8     -1.94      0.00
  -16    1    8     -1.24      0.00
  -15    1    8     -5.41      0.00
  -14    1    8    -18.27      0.00
  -13    1    8     30.27      0.00
  -12    1    8      5.25      0.00
  -11    1    8     -3.13      0.00
  -10    1    8    -19.77      0.00
   -9    1    8     44.49      0.00
   -8    1    8    -51.26      0.00
   -7    1    8    -36.03      0.00
   -6    1    8     -8.01      0.00
   -5    1    8     -8.97      0.00
   -4    1    8     -8.67      0.00
   -3    1    8     61.90      0.00
   -2    1    8   -107.82      0.00
   -1    1    8     31.52      0.00
    0    1    8   -258.18      0.00
    1    1    8     74.43      0.00
    2    1    8    108.65      0.00
    3    1    8    -12.24      0.00
    4    1    8     22.84      0.00
    5    1    8    -18.52      0.00
    6    1    8      5.15      0.00
    7    1    8     97.19      0.00
    8    1    8     25.30      0.00
    9    1    8      7.24      0.00
   10    1    8     -7.26      0.00
   11    1    8    -32.69      0.00
   12    1    8    -23.17      0.00
   13    1    8     15.50      0.00
   14    1    8     -5.33      0.00
   15    1    8     -4.56      0.00
   16    1    8    -28.74      0.00
   17    1    8     -4.33      0.00
   18    1    8    -18.49      0.00
   19    1    8     12.00      0.00
   20    1    8      8.15      0.00
   21    1    8     13.09      0.00
  -22    2    8     -3.65      0.00
  -21    2    8    -21.19      0.00
  -20    2    8      3.75      0.00
  -19    2    8      4.97      0.00
  -18    2    8     -8.34      0.00
  -17    2    8     12.24      0.00
  -16    2    8     14.29      0.00
  -15    2    8     -6.68      0.00
  -14    2    8    -40.31      0.00
  -13    2    8    -24.08      0.00
  -12    2    8     66.04      0.00
  -11    2    8     21.96      0.00
  -10    2    8     25.88      0.00
   -9    2    8    -44.73      0.00
   -8    2    8    -33.78      0.00
   -7    2    8    -15.06      0.00
   -6    2    8      7.35      0.00
   -5    2    8     54.13      0.00
   -4    2    8     -4.67      0.00
   -3    2    8     14.77      0.00
   -2    2    8     22.27      0.00
   -1    2    8    -30.84      0.00
    0    2    8    185.98      0.00
    1    2    8     -1.34      0.00
    2    2    8    -12.61      0.00
    3    2    8     20.46      0.00
    4    2    8    -18.55      0.00
    5    2    8    -44.83      0.00
    6    2    8      7.76      0.00
    7    2    8     -1.29      0.00
    8    2    8     20.79      0.00
    9    2    8     18.44      0.00
   10    2    8      4.45      0.00
   11    2    8     -1.60      0.00
   12    2    8     14.35      0.00
   13    2    8    -14.84      0.00
   14    2    8     36.36      0.00
   15    2    8     10.68      0.00
   16    2    8     -1.61      0.00
   17    2    8    -11.67      0.00
   18    2    8      4.65      0.00
   19    2    8     -6.74      0.00
   20    2    8      5.74      0.00
   21    2    8      6.53      0.00
  -22    3    8      6.09      0.00
  -21    3    8      1.88      0.00
  -20    3    8    -12.62      0.00
  -19    3    8     -3.53      0.00
  -18    3    8      2.07      0.00
  -17    3    8    -12.92      0.00
  -16    3    8      5.27      0.00
  -15    3    8     51.45      0.00
  -14    3    8     13.86      0.00
  -13    3    8     -8.66      0.00
  -12    3    8    -48.80      0.00
  -11    3    8      7.72      0.00
  -10    3    8     25.30      0.00
   -9    3    8     20.72      0.00
   -8    3    8      1.21      0.00
   -7    3    8    -45.25      0.00
   -6    3    8      0.98      0.00
   -5    3    8    -48.03      0.00
   -4    3    8     21.42      0.00
   -3    3    8     32.17      0.00
   -2    3    8      2.01      0.00
   -1    3    8    -15.52      0.00
    0    3    8    -93.47      0.00
    1    3    8     75.06      0.00
    2    3    8     14.27      0.00
    3    3    8     24.77      0.00
    4    3    8     62.69      0.00
    5    3    8     -9.55      0.00
    6    3    8     58.26      0.00
    7    3    8     -7.28      0.00
    8    3    8    -62.43      0.00
    9    3    8     35.15      0.00
   10    3    8     19.89      0.00
   11    3    8     13.58      0.00
   12    3    8     34.47      0.00
   13    3    8    -20.74      0.00
   14    3    8     15.75      0.00
   15    3    8    -10.61      0.00
   16    3    8    -11.82      0.00
   17    3    8    -14.54      0.00
   18    3    8    -18.15      0.00
   19    3    8     -5.23      0.00
   20    3    8     -5.86      0.00
   21    3    8     -1.58      0.00
  -22    4    8      7.48      0.00
  -21    4    8      4.13      0.00
  -20    4    8      6.07      0.00
  -19    4    8      2.12      0.00
  -18    4    8      7.11      0.00
  -17    4    8      4.25      0.00
  -16    4    8    -11.23      0.00
  -15    4    8      2.50      0.00
  -14    4    8      9.84      0.00
  -13    4    8     34.00      0.00
  -12    4    8     -8.43      0.00
  -11    4    8     -0.40      0.00
  -10    4    8     -0.69      0.00
   -9    4    8     12.67      0.00
   -8    4    8      8.99      0.00
   -7    4    8     -5.81      0.00
   -6    4    8     16.07      0.00
   -5    4    8     12.16      0.00
   -4    4    8     -1.79      0.00
   -3    4    8    -24.53      0.00
   -2    4    8    -45.76      0.00
   -1    4    8      4.46      0.00
    0    4    8     36.61      0.00
    1    4    8     52.83      0.00
    2    4    8   -128.79      0.00
    3    4    8    -55.37      0.00
    4    4    8     13.06      0.00
    5    4    8     -0.06      0.00
    6    4    8     27.01      0.00
    7    4    8     77.74      0.00
    8    4    8    -12.51      0.00
    9    4    8    -24.00      0.00
   10    4    8     -9.90      0.00
   11    4    8    -24.95      0.00
   12    4    8     23.70      0.00
   13    4    8     -1.39      0.00
   14    4    8     -8.06      0.00
   15    4    8      7.13      0.00
   16    4    8     -7.70      0.00
   17    4    8     23.85      0.00
   18    4    8      2.31      0.00
   19    4    8     -9.59      0.00
   20    4    8      6.45      0.00
   21    4    8    -10.62      0.00
  -22    5    8      9.56      0.00
  -21    5    8     -6.34      0.00
  -20    5    8     13.48      0.00
  -19    5    8     -3.37      0.00
  -18    5    8     15.04      0.00
  -17    5    8      2.96      0.00
  -16    5    8    -33.76      0.00
  -15    5    8    -25.44      0.00
  -14    5    8     20.17      0.00
  -13    5    8     29.58      0.00
  -12    5    8      6.42      0.00
  -11    5    8     -6.96      0.00
  -10    5    8    -16.44      0.00
   -9    5    8     -4.40      0.00
   -8    5    8     14.25      0.00
   -7    5    8     18.36      0.00
   -6    5    8     27.00      0.00
   -5    5    8    -18.89      0.00
   -4    5    8    -25.03      0.00
   -3    5    8    -55.48      0.00
   -2    5    8     49.68      0.00
   -1    5    8     32.25      0.00
    0    5    8    -23.95      0.00
    1    5    8   -150.57      0.00
    2    5    8     24.65      0.00
    3    5    8      4.77      0.00
    4    5    8     -9.29      0.00
    5    5    8    -12.40      0.00
    6    5    8     43.74      0.00
    7    5    8    -39.50      0.00
    8    5    8     -8.56      0.00
    9    5    8     -8.60      0.00
   10    5    8    -18.26      0.00
   11    5    8     17.94      0.00
   12    5    8     -2.10      0.00
   13    5    8    -15.14      0.00
   14    5    8     23.08      0.00
   15    5    8     -4.78      0.00
   16    5    8    -12.12      0.00
   17    5    8     -3.28      0.00
   18    5    8      0.76      0.00
   19    5    8    -13.24      0.00
   20    5    8      5.34      0.00
   21    5    8     -4.51      0.00
  -22    6    8     -6.92      0.00
  -21    6    8      5.55      0.00
  -20    6    8     -9.36      0.00
  -19    6    8     -6.93      0.00
  -18    6    8      8.07      0.00
  -17    6    8    -10.14      0.00
  -16    6    8      6.57      0.00
  -15    6    8      1.91      0.00
  -14    6    8     -1.54      0.00
  -13    6    8     13.20      0.00
  -12    6    8     -2.62      0.00
  -11    6    8    -14.03      0.00
  -10    6    8    -37.93      0.00
   -9    6    8      6.64      0.00
   -8    6    8     33.91      0.00
   -7    6    8    -36.74      0.00
   -6    6    8    -25.44      0.00
   -5    6    8    -25.98      0.00
   -4    6    8     -8.99      0.00
   -3    6    8     -8.95      0.00
   -2    6    8     -0.74      0.00
   -1    6    8     11.16      0.00
    0    6    8     -8.93      0.00
    1    6    8     13.88      0.00
    2    6    8     -8.75      0.00
    3    6    8     39.77      0.00
    4    6    8    -34.58      0.00
    5    6    8     41.55      0.00
    6    6    8      2.45      0.00
    7    6    8    -45.75      0.00
    8    6    8     10.38      0.00
    9    6    8     -7.66      0.00
   10    6    8     19.87      0.00
   11    6    8      9.45      0.00
   12    6    8    -11.33      0.00
   13    6    8     22.75      0.00
   14    6    8    -14.88      0.00
   15    6    8     22.92      0.00
   16    6    8      5.48      0.00
   17    6    8      3.12      0.00
   18    6    8     -3.25      0.00
   19    6    8     11.32      0.00
   20    6    8     -5.59      0.00
   21    6    8     -4.54      0.00
  -21    7    8     -5.07      0.00
  -20    7    8     -2.88      0.00
  -19    7    8      0.89      0.00
  -18    7    8     -9.71      0.00
  -17    7    8      9.57      0.00
  -16    7    8     -4.14      0.00
  -15    7    8     -6.75      0.00
  -14    7    8     13.43      0.00
  -13    7    8    -10.42      0.00
  -12    7    8    -15.03      0.00
  -11    7    8     -7.18      0.00
  -10    7    8     17.25      0.00
   -9    7    8      1.13      0.00
   -8    7    8     27.85      0.00
   -7    7    8     -5.55      0.00
   -6    7    8     16.21      0.00
   -5    7    8     50.36      0.00
   -4    7    8    -39.92      0.00
   -3    7    8    -22.72      0.00
   -2    7    8     -8.95      0.00
   -1    7    8     25.93      0.00
    0    7    8    -58.50      0.00
    1    7    8    -74.32      0.00
    2    7    8     75.79      0.00
    3    7    8    -15.09      0.00
    4    7    8    -20.33      0.00
    5    7    8     70.26      0.00
    6    7    8    -55.84      0.00
    7    7    8     40.78      0.00
    8    7    8      0.13      0.00
    9    7    8     11.20      0.00
   10    7    8     23.84      0.00
   11    7    8     15.14      0.00
   12    7    8    -20.20      0.00
   13    7    8     30.00      0.00
   14    7    8     -8.09      0.00
   15    7    8      2.88      0.00
   16    7    8    -19.96      0.00
   17    7    8    -17.07      0.00
   18    7    8     -4.24      0.00
   19    7    8     -4.93      0.00
   20    7    8      6.10      0.00
   21    7    8      7.13      0.00
  -21    8    8     -7.23      0.00
  -20    8    8     10.89      0.00
  -19    8    8      3.83      0.00
  -18    8    8    -12.32      0.00
  -17    8    8    -16.92      0.00
  -16    8    8     20.59      0.00
  -15    8    8      4.93      0.00
  -14    8    8      5.67      0.00
  -13    8    8     14.44      0.00
  -12    8    8     -7.73      0.00
  -11    8    8     -0.12      0.00
  -10    8    8     -5.94      0.00
   -9    8    8      4.00      0.00
   -8    8    8     11.96      0.00
   -7    8    8    -18.38      0.00
   -6    8    8      7.74      0.00
   -5    8    8    -31.53      0.00
   -4    8    8     45.03      0.00
   -3    8    8     46.00      0.00
   -2    8    8     10.48      0.00
   -1    8    8    -48.32      0.00
    0    8    8    -60.29      0.00
    1    8    8     -3.53      0.00
    2    8    8     44.51      0.00
    3    8    8    -18.62      0.00
    4    8    8     46.69      0.00
    5    8    8    -31.64      0.00
    6    8    8    -16.87      0.00
    7    8    8    -13.31      0.00
    8    8    8     -5.75      0.00
    9    8    8      1.10      0.00
   10    8    8      0.62      0.00
   11    8    8     11.81      0.00
   12    8    8     -6.81      0.00
   13    8    8     -4.25      0.00
   14    8    8     27.68      0.00
   15    8    8    -24.87      0.00
   16    8    8      4.48      0.00
   17    8    8     -0.34      0.00
   18    8    8     -6.81      0.00
   19    8    8      8.03      0.00
   20    8    8     -0.52      0.00
   21    8    8     -2.31      0.00
  -21    9    8     -0.21      0.00
  -20    9    8    -16.23      0.00
  -19    9    8      3.16      0.00
  -18    9    8     12.49      0.00
  -17    9    8    -11.88      0.00
  -16    9    8     -6.72      0.00
  -15    9    8     15.98      0.00
  -14    9    8      9.68      0.00
  -13    9    8     -7.35      0.00
  -12    9    8     19.03      0.00
  -11    9    8      0.49      0.00
  -10    9    8     13.47      0.00
   -9    9    8     -5.23      0.00
   -8    9    8    -32.50      0.00
   -7    9    8     20.98      0.00
   -6    9    8    -14.71      0.00
   -5    9    8     65.61      0.00
   -4    9    8    -25.70      0.00
   -3    9    8     12.99      0.00
   -2    9    8      0.28      0.00
   -1    9    8    -84.07      0.00
    0    9    8    102.73      0.00
    1    9    8    -64.08      0.00
    2    9    8     -7.16      0.00
    3    9    8     21.59      0.00
    4    9    8    -21.45      0.00
    5    9    8    -11.29      0.00
    6    9    8    -32.43      0.00
    7    9    8     34.72      0.00
    8    9    8     34.16      0.00
    9    9    8    -14.61      0.00
   10    9    8      5.74      0.00
   11    9    8    -35.88      0.00
   12    9    8     16.42      0.00
   13    9    8     -8.66      0.00
   14    9    8     -1.47      0.00
   15    9    8     -5.92      0.00
   16    9    8      7.89      0.00
   17    9    8     -6.34      0.00
   18    9    8      4.77      0.00
   19    9    8      6.34      0.00
   20    9    8     -8.72      0.00
   21    9    8      1.86      0.00
  -21   10    8      1.92      0.00
  -20   10    8     -8.46      0.00
  -19   10    8     17.50      0.00
  -18   10    8     11.43      0.00
  -17   10    8     19.39      0.00
  -16   10    8      4.93      0.00
  -15   10    8     -5.22      0.00
  -14   10    8     -0.47      0.00
  -13   10    8    -27.04      0.00
  -12   10    8    -20.32      0.00
  -11   10    8     18.98      0.00
  -10   10    8    -10.23      0.00
   -9   10    8     -2.91      0.00
   -8   10    8    -10.72      0.00
   -7   10    8    -20.70      0.00
   -6   10    8    -10.77      0.00
   -5   10    8      2.41      0.00
   -4   10    8      4.19      0.00
   -3   10    8     57.58      0.00
   -2   10    8    -10.97      0.00
   -1   10    8     64.86      0.00
    0   10    8    -98.57      0.00
    1   10    8    -58.96      0.00
    2   10    8     28.93      0.00
    3   10    8    -29.42      0.00
    4   10    8     19.56      0.00
    5   10    8    -13.41      0.00
    6   10    8     -6.71      0.00
    7   10    8     12.58      0.00
    8   10    8    -16.83      0.00
    9   10    8      3.69      0.00
   10   10    8     -6.48      0.00
   11   10    8     -5.21      0.00
   12   10    8    -20.33      0.00
   13   10    8      4.53      0.00
   14   10    8     -0.17      0.00
   15   10    8    -13.44      0.00
   16   10    8      1.85      0.00
   17   10    8     -1.41      0.00
   18   10    8     -3.05      0.00
   19   10    8      3.38      0.00
   20   10    8     -8.46      0.00
  -21   11    8      0.67      0.00
  -20   11    8      4.20      0.00
  -19   11    8    -11.15      0.00
  -18   11    8     -5.92      0.00
  -17   11    8      2.88      0.00
  -16   11    8      3.23      0.00
  -15   11    8      1.35      0.00
  -14   11    8      4.35      0.00
  -13   11    8     -3.12      0.00
  -12   11    8    -13.09      0.00
  -11   11    8     -2.32      0.00
  -10   11    8     -5.10      0.00
   -9   11    8     20.41      0.00
   -8   11    8    -31.06      0.00
   -7   11    8    -18.85      0.00
   -6   11    8    -15.82      0.00
   -5   11    8     12.53      0.00
   -4   11    8     58.58      0.00
   -3   11    8     16.19      0.00
   -2   11    8    -45.31      0.00
   -1   11    8     47.41      0.00
    0   11    8    -57.15      0.00
    1   11    8    -20.14      0.00
    2   11    8     66.33      0.00
    3   11    8     47.05      0.00
    4   11    8    -44.89      0.00
    5   11    8     16.16      0.00
    6   11    8    -24.00      0.00
    7   11    8    -36.81      0.00
    8   11    8      2.80      0.00
    9   11    8     -2.67      0.00
   10   11    8    -27.38      0.00
   11   11    8     -8.29      0.00
   12   11    8      1.10      0.00
   13   11    8      4.09      0.00
   14   11    8      1.75      0.00
   15   11    8     -5.09      0.00
   16   11    8     12.72      0.00
   17   11    8     19.95      0.00
   18   11    8      0.58      0.00
   19   11    8     -5.04      0.00
   20   11    8     -6.81      0.00
  -20   12    8      1.12      0.00
  -19   12    8      0.46      0.00
  -18   12    8    -12.52      0.00
  -17   12    8    -22.61      0.00
  -16   12    8      6.71      0.00
  -15   12    8     -0.56      0.00
  -14   12    8     -4.76      0.00
  -13   12    8     -7.91      0.00
  -12   12    8     27.84      0.00
  -11   12    8      2.06      0.00
  -10   12    8     15.40      0.00
   -9   12    8     16.95      0.00
   -8   12    8     12.79      0.00
   -7   12    8      5.60      0.00
   -6   12    8     -1.22      0.00
   -5   12    8      1.65      0.00
   -4   12    8     -4.73      0.00
   -3   12    8      2.07      0.00
   -2   12    8    -10.66      0.00
   -1   12    8     -9.78      0.00
    0   12    8     42.38      0.00
    1   12    8      8.29      0.00
    2   12    8     17.18      0.00
    3   12    8    -33.82      0.00
    4   12    8     -2.56      0.00
    5   12    8     16.68      0.00
    6   12    8     28.58      0.00
    7   12    8     28.97      0.00
    8   12    8     -9.58      0.00
    9   12    8     21.62      0.00
   10   12    8     -9.26      0.00
   11   12    8    -22.67      0.00
   12   12    8      4.54      0.00
   13   12    8     -2.13      0.00
   14   12    8    -15.89      0.00
   15   12    8     -1.50      0.00
   16   12    8    -16.15      0.00
   17   12    8     -9.94      0.00
   18   12    8     23.61      0.00
   19   12    8      5.44      0.00
   20   12    8      5.23      0.00
  -20   13    8     -6.48      0.00
  -19   13    8     21.18      0.00
  -18   13    8      4.03      0.00
  -17   13    8     -2.61      0.00
  -16   13    8      7.08      0.00
  -15   13    8     -7.38      0.00
  -14   13    8     -0.71      0.00
  -13   13    8    -15.09      0.00
  -12   13    8     -8.76      0.00
  -11   13    8     19.06      0.00
  -10   13    8    -24.13      0.00
   -9   13    8      4.32      0.00
   -8   13    8    -10.28      0.00
   -7   13    8    -23.03      0.00
   -6   13    8     46.72      0.00
   -5   13    8    -12.00      0.00
   -4   13    8     29.37      0.00
   -3   13    8    -55.12      0.00
   -2   13    8     -7.88      0.00
   -1   13    8    103.27      0.00
    0   13    8     25.12      0.00
    1   13    8     -8.62      0.00
    2   13    8    -17.37      0.00
    3   13    8    -43.37      0.00
    4   13    8     -9.45      0.00
    5   13    8     16.11      0.00
    6   13    8     34.08      0.00
    7   13    8    -14.91      0.00
    8   13    8     -0.26      0.00
    9   13    8    -20.80      0.00
   10   13    8     -3.72      0.00
   11   13    8     11.19      0.00
   12   13    8     15.42      0.00
   13   13    8     24.97      0.00
   14   13    8    -13.72      0.00
   15   13    8     -1.27      0.00
   16   13    8      2.96      0.00
   17   13    8     -4.51      0.00
   18   13    8    -10.72      0.00
   19   13    8      5.07      0.00
   20   13    8     -1.45      0.00
  -20   14    8      9.21      0.00
  -19   14    8     -3.83      0.00
  -18   14    8     -7.20      0.00
  -17   14    8     -7.50      0.00
  -16   14    8    -10.43      0.00
  -15   14    8      1.24      0.00
  -14   14    8     -8.32      0.00
  -13   14    8     -5.70      0.00
  -12   14    8      6.29      0.00
  -11   14    8     -6.20      0.00
  -10   14    8     15.40      0.00
   -9   14    8     42.58      0.00
   -8   14    8    -19.77      0.00
   -7   14    8      0.35      0.00
   -6   14    8     31.13      0.00
   -5   14    8    -13.28      0.00
   -4   14    8      2.28      0.00
   -3   14    8     23.34      0.00
   -2   14    8    -14.30      0.00
   -1   14    8    -12.51      0.00
    0   14    8      0.32      0.00
    1   14    8     12.89      0.00
    2   14    8      7.73      0.00
    3   14    8      9.45      0.00
    4   14    8    -37.55      0.00
    5   14    8    -44.74      0.00
    6   14    8     13.16      0.00
    7   14    8     27.22      0.00
    8   14    8     -4.84      0.00
    9   14    8      3.71      0.00
   10   14    8    -11.29      0.00
   11   14    8    -10.15      0.00
   12   14    8     17.97      0.00
   13   14    8    -18.90      0.00
   14   14    8     -8.01      0.00
   15   14    8    -14.14      0.00
   16   14    8      3.48      0.00
   17   14    8      5.65      0.00
   18   14    8     -9.81      0.00
   19   14    8      3.50      0.00
  -20   15    8      2.68      0.00
  -19   15    8      0.73      0.00
  -18   15    8      1.93      0.00
  -17   15    8      2.12      0.00
  -16   15    8     -3.47      0.00
  -15   15    8     -2.61      0.00
  -14   15    8     -0.01      0.00
  -13   15    8      5.23      0.00
  -12   15    8      7.41      0.00
  -11   15    8     -5.30      0.00
  -10   15    8    -11.53      0.00
   -9   15    8    -16.19      0.00
   -8   15    8     16.43      0.00
   -7   15    8    -13.00      0.00
   -6   15    8     15.93      0.00
   -5   15    8    -48.22      0.00
   -4   15    8     -5.63      0.00
   -3   15    8    -29.35      0.00
   -2   15    8    -36.86      0.00
   -1   15    8     45.36      0.00
    0   15    8     -8.45      0.00
    1   15    8    -17.67      0.00
    2   15    8      9.64      0.00
    3   15    8    -26.43      0.00
    4   15    8     45.16      0.00
    5   15    8     -0.61      0.00
    6   15    8     -3.36      0.00
    7   15    8     13.82      0.00
    8   15    8      7.37      0.00
    9   15    8     -4.71      0.00
   10   15    8     11.63      0.00
   11   15    8      8.27      0.00
   12   15    8     -6.24      0.00
   13   15    8      4.50      0.00
   14   15    8     -7.32      0.00
   15   15    8      5.87      0.00
   16   15    8     -5.57      0.00
   17   15    8     -0.11      0.00
   18   15    8     10.09      0.00
   19   15    8      4.07      0.00
  -19   16    8      5.34      0.00
  -18   16    8      4.08      0.00
  -17   16    8      5.33      0.00
  -16   16    8     -7.70      0.00
  -15   16    8     11.53      0.00
  -14   16    8      2.96      0.00
  -13   16    8      4.73      0.00
  -12   16    8     13.02      0.00
  -11   16    8      2.57      0.00
  -10   16    8     -1.72      0.00
   -9   16    8     -4.95      0.00
   -8   16    8     -8.14      0.00
   -7   16    8     -6.67      0.00
   -6   16    8    -27.80      0.00
   -5   16    8      0.90      0.00
   -4   16    8      4.44      0.00
   -3   16    8      7.34      0.00
   -2   16    8     23.16      0.00
   -1   16    8    -11.71      0.00
    0   16    8    -15.43      0.00
    1   16    8      5.15      0.00
    2   16    8      9.80      0.00
    3   16    8     35.57      0.00
    4   16    8     28.28      0.00
    5   16    8      4.35      0.00
    6   16    8     14.92      0.00
    7   16    8    -10.50      0.00
    8   16    8     -6.94      0.00
    9   16    8      9.27      0.00
   10   16    8     -3.14      0.00
   11   16    8     12.98      0.00
   12   16    8     16.98      0.00
   13   16    8     -9.50      0.00
   14   16    8      0.47      0.00
   15   16    8      7.72      0.00
   16   16    8    -21.41      0.00
   17   16    8     -0.74      0.00
   18   16    8      3.16      0.00
   19   16    8      2.36      0.00
  -19   17    8     -1.50      0.00
  -18   17    8     -8.24      0.00
  -17   17    8      2.52      0.00
  -16   17    8     -4.26      0.00
  -15   17    8    -15.25      0.00
  -14   17    8    -11.97      0.00
  -13   17    8    -11.33      0.00
  -12   17    8     13.81      0.00
  -11   17    8      1.94      0.00
  -10   17    8     -2.97      0.00
   -9   17    8     22.13      0.00
   -8   17    8     -4.73      0.00
   -7   17    8      1.73      0.00
   -6   17    8     -9.35      0.00
   -5   17    8     24.34      0.00
   -4   17    8     12.81      0.00
   -3   17    8     38.27      0.00
   -2   17    8     12.40      0.00
   -1   17    8    -24.96      0.00
    0   17    8    -79.79      0.00
    1   17    8     31.02      0.00
    2   17    8      8.22      0.00
    3   17    8    -14.68      0.00
    4   17    8     33.22      0.00
    5   17    8     13.71      0.00
    6   17    8     17.76      0.00
    7   17    8     -8.06      0.00
    8   17    8    -16.63      0.00
    9   17    8     21.10      0.00
   10   17    8    -20.79      0.00
   11   17    8      1.51      0.00
   12   17    8      5.01      0.00
   13   17    8    -14.29      0.00
   14   17    8     12.47      0.00
   15   17    8     -4.59      0.00
   16   17    8     -4.08      0.00
   17   17    8    -10.26      0.00
   18   17    8     -0.04      0.00
  -19   18    8      1.19      0.00
  -18   18    8      6.65      0.00
  -17   18    8     -4.92      0.00
  -16   18    8     19.12      0.00
  -15   18    8      6.10      0.00
  -14   18    8    -16.53      0.00
  -13   18    8     -6.38      0.00
  -12   18    8      5.48      0.00
  -11   18    8     -3.64      0.00
  -10   18    8     -1.66      0.00
   -9   18    8     -4.41      0.00
   -8   18    8     -1.13      0.00
   -7   18    8     -6.14      0.00
   -6   18    8    -15.47      0.00
   -5   18    8     17.56      0.00
   -4   18    8      6.57      0.00
   -3   18    8    -13.52      0.00
   -2   18    8    -11.63      0.00
   -1   18    8    -13.31      0.00
    0   18    8    -23.28      0.00
    1   18    8    -30.66      0.00
    2   18    8     -9.88      0.00
    3   18    8     10.97      0.00
    4   18    8     -7.26      0.00
    5   18    8     22.71      0.00
    6   18    8     -8.83      0.00
    7   18    8     25.46      0.00
    8   18    8     20.00      0.00
    9   18    8     -6.35      0.00
   10   18    8      3.81      0.00
   11   18    8    -16.58      0.00
   12   18    8      3.90      0.00
   13   18    8      6.01      0.00
   14   18    8    -17.03      0.00
   15   18    8     -1.69      0.00
   16   18    8     -4.45      0.00
   17   18    8      5.44      0.00
   18   18    8      5.42      0.00
  -18   19    8     -2.06      0.00
  -17   19    8     -9.33      0.00
  -16   19    8     -2.76      0.00
  -15   19    8     16.71      0.00
  -14   19    8      6.12      0.00
  -13   19    8     -8.78      0.00
  -12   19    8      4.32      0.00
  -11   19    8     -6.10      0.00
  -10   19    8      3.60      0.00
   -9   19    8     -4.48      0.00
   -8   19    8    -18.19      0.00
   -7   19    8      2.60      0.00
   -6   19    8      2.40      0.00
   -5   19    8      5.19      0.00
   -4   19    8    -12.68      0.00
   -3   19    8      0.88      0.00
   -2   19    8      2.53      0.00
   -1   19    8    -31.64      0.00
    0   19    8     13.58      0.00
    1   19    8      6.87      0.00
    2   19    8    -30.52      0.00
    3   19    8    -37.39      0.00
    4   19    8    -36.61      0.00
    5   19    8      9.44      0.00
    6   19    8      0.51      0.00
    7   19    8     -3.64      0.00
    8   19    8      6.33      0.00
    9   19    8     12.23      0.00
   10   19    8     -3.19      0.00
   11   19    8      4.88      0.00
   12   19    8     -4.20      0.00
   13   19    8     -0.77      0.00
   14   19    8      6.39      0.00
   15   19    8      2.10      0.00
   16   19    8      1.68      0.00
   17   19    8    -10.08      0.00
   18   19    8      1.98      0.00
  -18   20    8      0.62      0.00
  -17   20    8      1.67      0.00
  -16   20    8    -11.35      0.00
  -15   20    8    -18.46      0.00
  -14   20    8      0.08      0.00
  -13   20    8      7.35      0.00
  -12   20    8      4.64      0.00
  -11   20    8      6.53      0.00
  -10   20    8      3.12      0.00
   -9   20    8     -6.04      0.00
   -8   20    8    -12.84      0.00
   -7   20    8      4.79      0.00
   -6   20    8      6.59      0.00
   -5   20    8     17.55      0.00
   -4   20    8     24.28      0.00
   -3   20    8    -31.62      0.00
   -2   20    8     -1.21      0.00
   -1   20    8    -32.50      0.00
    0   20    8     29.95      0.00
    1   20    8     24.27      0.00
    2   20    8    -26.12      0.00
    3   20    8    -14.82      0.00
    4   20    8    -33.50      0.00
    5   20    8     -7.50      0.00
    6   20    8     21.14      0.00
    7   20    8     -0.03      0.00
    8   20    8     17.60      0.00
    9   20    8      9.58      0.00
   10   20    8     29.01      0.00
   11   20    8      6.28      0.00
   12   20    8      3.21      0.00
   13   20    8      2.21      0.00
   14   20    8     -2.82      0.00
   15   20    8      0.12      0.00
   16   20    8      9.31      0.00
   17   20    8     -0.96      0.00
  -17   21    8     12.68      0.00
  -16   21    8      5.69      0.00
  -15   21    8      3.67      0.00
  -14   21    8    -24.71      0.00
  -13   21    8      0.84      0.00
  -12   21    8      1.43      0.00
  -11   21    8     -4.35      0.00
  -10   21    8     31.75      0.00
   -9   21    8    -29.01      0.00
   -8   21    8    -20.14      0.00
   -7   21    8     16.76      0.00
   -6   21    8     -3.48      0.00
   -5   21    8      7.24      0.00
   -4   21    8     -0.42      0.00
   -3   21    8     -4.03      0.00
   -2   21    8     20.88      0.00
   -1   21    8    -17.93      0.00
    0   21    8     30.14      0.00
    1   21    8     10.54      0.00
    2   21    8      7.74      0.00
    3   21    8      6.54      0.00
    4   21    8    -26.30      0.00
    5   21    8      1.72      0.00
    6   21    8     -4.41      0.00
    7   21    8    -13.94      0.00
    8   21    8      7.44      0.00
    9   21    8     -7.91      0.00
   10   21    8      3.97      0.00
   11   21    8      4.82      0.00
   12   21    8      4.33      0.00
   13   21    8     17.86      0.00
   14   21    8    -12.35      0.00
   15   21    8     10.28      0.00
   16   21    8      5.77      0.00
   17   21    8     -1.19      0.00
  -17   22    8      9.03      0.00
  -16   22    8      3.76      0.00
  -15   22    8      5.67      0.00
  -14   22    8    -14.31      0.00
  -13   22    8     -2.21      0.00
  -12   22    8     -4.93      0.00
  -11   22    8     -4.41      0.00
  -10   22    8     11.07      0.00
   -9   22    8     15.50      0.00
   -8   22    8     13.57      0.00
   -7   22    8      9.69      0.00
   -6   22    8     -7.10      0.00
   -5   22    8    -11.46      0.00
   -4   22    8     40.21      0.00
   -3   22    8     14.84      0.00
   -2   22    8     13.22      0.00
   -1   22    8     22.93      0.00
    0   22    8    -46.91      0.00
    1   22    8     23.08      0.00
    2   22    8     -0.98      0.00
    3   22    8    -29.85      0.00
    4   22    8      0.28      0.00
    5   22    8    -31.67      0.00
    6   22    8    -15.27      0.00
    7   22    8    -17.03      0.00
    8   22    8    -18.85      0.00
    9   22    8      9.74      0.00
   10   22    8    -13.10      0.00
   11   22    8      5.21      0.00
   12   22    8     -2.59      0.00
   13   22    8     16.24      0.00
   14   22    8      6.54      0.00
   15   22    8     -8.65      0.00
   16   22    8      6.80      0.00
  -16   23    8     -0.47      0.00
  -15   23    8     -6.70      0.00
  -14   23    8      1.09      0.00
  -13   23    8     -3.18      0.00
  -12   23    8     -4.55      0.00
  -11   23    8      0.82      0.00
  -10   23    8      8.62      0.00
   -9   23    8    -14.20      0.00
   -8   23    8      5.84      0.00
   -7   23    8     14.72      0.00
   -6   23    8     -1.21      0.00
   -5   23    8      3.66      0.00
   -4   23    8    -14.72      0.00
   -3   23    8     -3.35      0.00
   -2   23    8     19.01      0.00
   -1   23    8     -0.24      0.00
    0   23    8    -12.61      0.00
    1   23    8    -13.00      0.00
    2   23    8    -11.12      0.00
    3   23    8     -0.75      0.00
    4   23    8      9.60      0.00
    5   23    8     -6.52      0.00
    6   23    8      5.19      0.00
    7   23    8     -5.34      0.00
    8   23    8      4.24      0.00
    9   23    8      2.33      0.00
   10   23    8      4.04      0.00
   11   23    8      0.69      0.00
   12   23    8     -3.70      0.00
   13   23    8     -0.78      0.00
   14   23    8      3.24      0.00
   15   23    8     -2.45      0.00
   16   23    8     -9.89      0.00
  -15   24    8     -2.90      0.00
  -14   24    8     -3.51      0.00
  -13   24    8      7.62      0.00
  -12   24    8      2.14      0.00
  -11   24    8     -0.08      0.00
  -10   24    8      1.52      0.00
   -9   24    8    -12.92      0.00
   -8   24    8    -15.63      0.00
   -7   24    8      9.34      0.00
   -6   24    8      3.43      0.00
   -5   24    8     -8.30      0.00
   -4   24    8     -7.30      0.00
   -3   24    8     13.61      0.00
   -2   24    8      5.41      0.00
   -1   24    8     19.28      0.00
    0   24    8    -11.83      0.00
    1   24    8     12.20      0.00
    2   24    8     11.41      0.00
    3   24    8    -18.89      0.00
    4   24    8     28.46      0.00
    5   24    8     19.80      0.00
    6   24    8     15.40      0.00
    7   24    8     -8.24      0.00
    8   24    8    -13.42      0.00
    9   24    8    -11.68      0.00
   10   24    8      3.37      0.00
   11   24    8     -4.06      0.00
   12   24    8     -5.00      0.00
   13   24    8      3.91      0.00
   14   24    8     -8.36      0.00
   15   24    8      7.11      0.00
  -15   25    8    -15.79      0.00
  -14   25    8      2.78      0.00
  -13   25    8      7.76      0.00
  -12   25    8     -1.21      0.00
  -11   25    8     14.80      0.00
  -10   25    8     -1.72      0.00
   -9   25    8     10.40      0.00
   -8   25    8      6.17      0.00
   -7   25    8      0.19      0.00
   -6   25    8      0.44      0.00
   -5   25    8      7.30      0.00
   -4   25    8     -5.80      0.00
   -3   25    8      1.67      0.00
   -2   25    8     -7.93      0.00
   -1   25    8     -7.07      0.00
    0   25    8     -3.43      0.00
    1   25    8      6.54      0.00
    2   25    8     14.25      0.00
    3   25    8      8.43      0.00
    4   25    8      7.64      0.00
    5   25    8     10.67      0.00
    6   25    8     -0.23      0.00
    7   25    8     -3.35      0.00
    8   25    8      4.03      0.00
    9   25    8      9.20      0.00
   10   25    8    -10.04      0.00
   11   25    8    -10.62      0.00
   12   25    8     -3.35      0.00
   13   25    8     -8.48      0.00
   14   25    8      2.07      0.00
  -14   26    8     -5.16      0.00
  -13   26    8      1.31      0.00
  -12   26    8      2.43      0.00
  -11   26    8    -12.83      0.00
  -10   26    8      8.53      0.00
   -9   26    8     -6.16      0.00
   -8   26    8     -1.60      0.00
   -7   26    8      6.70      0.00
   -6   26    8     -5.35      0.00
   -5   26    8     -7.36      0.00
   -4   26    8      2.91      0.00
   -3   26    8      1.88      0.00
   -2   26    8      9.68      0.00
   -1   26    8    -19.29      0.00
    0   26    8     -9.72      0.00
    1   26    8     -6.96      0.00
    2   26    8      9.65      0.00
    3   26    8     12.09      0.00
    4   26    8     18.10      0.00
    5   26    8      2.90      0.00
    6   26    8     -5.10      0.00
    7   26    8     13.23      0.00
    8   26    8     -4.59      0.00
    9   26    8     -7.15      0.00
   10   26    8      1.55      0.00
   11   26    8    -10.17      0.00
   12   26    8      6.37      0.00
   13   26    8    -11.14      0.00
   14   26    8     -3.00      0.00
  -13   27    8     11.28      0.00
  -12   27    8     -2.59      0.00
  -11   27    8     -0.79      0.00
  -10   27    8     -2.57      0.00
   -9   27    8      6.87      0.00
   -8   27    8     -7.76      0.00
   -7   27    8     -3.68      0.00
   -6   27    8     -0.53      0.00
   -5   27    8     -1.53      0.00
   -4   27    8      3.09      0.00
   -3   27    8     -2.29      0.00
   -2   27    8     -6.01      0.00
   -1   27    8      9.78      0.00
    0   27    8      9.78      0.00
    1   27    8      6.30      0.00
    2   27    8     -9.48      0.00
    3   27    8     20.43      0.00
    4   27    8     -0.47      0.00
    5   27    8     17.96      0.00
    6   27    8      4.93      0.00
    7   27    8     -2.97      0.00
    8   27    8     -0.19      0.00
    9   27    8      3.47      0.00
   10   27    8     -5.88      0.00
   11   27    8     -7.09      0.00
   12   27    8      5.96      0.00
   13   27    8     -3.20      0.00
  -12   28    8      2.28      0.00
  -11   28    8      2.76      0.00
  -10   28    8     -5.90      0.00
   -9   28    8     -0.48      0.00
   -8   28    8     14.00      0.00
   -7   28    8     11.08      0.00
   -6   28    8      4.40      0.00
   -5   28    8     12.88      0.00
   -4   28    8     -6.53      0.00
   -3   28    8      4.75      0.00
   -2   28    8     -5.94      0.00
   -1   28    8     -5.09      0.00
    0   28    8    -12.13      0.00
    1   28    8      0.07      0.00
    2   28    8     -9.32      0.00
    3   28    8     14.71      0.00
    4   28    8    -19.97      0.00
    5   28    8    -15.67      0.00
    6   28    8     -8.67      0.00
    7   28    8     21.87      0.00
    8   28    8     -0.82      0.00
    9   28    8      1.45      0.00
   10   28    8     -3.19      0.00
   11   28    8      2.71      0.00
   12   28    8      5.38      0.00
  -11   29    8     -0.54      0.00
  -10   29    8      8.74      0.00
   -9   29    8     -7.02      0.00
   -8   29    8     10.46      0.00
   -7   29    8    -10.83      0.00
   -6   29    8      3.16      0.00
   -5   29    8      2.78      0.00
   -4   29    8      6.14      0.00
   -3   29    8     -6.76      0.00
   -2   29    8     -9.08      0.00
   -1   29    8    -12.43      0.00
    0   29    8     14.84      0.00
    1   29    8     -9.86      0.00
    2   29    8     -2.26      0.00
    3   29    8     -8.48      0.00
    4   29    8      6.06      0.00
    5   29    8      1.98      0.00
    6   29    8      6.28      0.00
    7   29    8     12.45      0.00
    8   29    8      1.14      0.00
    9   29    8     -5.09      0.00
   10   29    8    -16.27      0.00
   11   29    8    -10.33      0.00
  -10   30    8     -0.54      0.00
   -9   30    8      4.74      0.00
   -8   30    8      5.89      0.00
   -7   30    8     -2.46      0.00
   -6   30    8     13.53      0.00
   -5   30    8     -9.98      0.00
   -4   30    8     -0.91      0.00
   -3   30    8      8.85      0.00
   -2   30    8     -5.23      0.00
   -1   30    8    -14.15      0.00
    0   30    8     10.49      0.00
    1   30    8     -8.33      0.00
    2   30    8      8.30      0.00
    3   30    8    -19.05      0.00
    4   30    8      3.51      0.00
    5   30    8     -4.60      0.00
    6   30    8      8.00      0.00
    7   30    8     -3.14      0.00
    8   30    8      2.15      0.00
    9   30    8     -3.92      0.00
   10   30    8      0.24      0.00
   -9   31    8      5.74      0.00
   -8   31    8      6.98      0.00
   -7   31    8      5.15      0.00
   -6   31    8      7.95      0.00
   -5   31    8     10.34      0.00
   -4   31    8     -0.25      0.00
   -3   31    8      3.76      0.00
   -2   31    8    -10.01      0.00
   -1   31    8      8.69      0.00
    0   31    8     -0.68      0.00
    1   31    8     -3.99      0.00
    2   31    8     -3.24      0.00
    3   31    8     -5.72      0.00
    4   31    8     10.44      0.00
    5   31    8     -5.18      0.00
    6   31    8     -7.64      0.00
    7   31    8      6.94      0.00
    8   31    8     -7.05      0.00
    9   31    8      0.30      0.00
   -7   32    8     -0.92      0.00
   -6   32    8     -2.86      0.00
   -5   32    8      1.86      0.00
   -4   32    8      2.49      0.00
   -3   32    8     12.79      0.00
   -2   32    8     -0.21      0.00
   -1   32    8      7.94      0.00
    0   32    8    -11.87      0.00
    1   32    8     -8.71      0.00
    2   32    8     -0.98      0.00
    3   32    8      6.76      0.00
    4   32    8      5.15      0.00
    5   32    8      5.20      0.00
    6   32    8    -11.18      0.00
    7   32    8     -2.08      0.00
   -5   33    8     -4.75      0.00
   -4   33    8      5.33      0.00
   -3   33    8     10.20      0.00
   -2   33    8     -3.55      0.00
   -1   33    8    -13.85      0.00
    0   33    8     11.67      0.00
    1   33    8     -2.53      0.00
    2   33    8     -1.73      0.00
    3   33    8      9.40      0.00
    4   33    8     -6.22      0.00
    5   33    8    -13.00      0.00
   -2   34    8      0.17      0.00
   -1   34    8      4.54      0.00
    0   34    8     -4.83      0.00
    1   34    8     -5.32      0.00
  -21    1    9     -6.00      0.00
  -20    1    9     -4.70      0.00
  -19    1    9     -7.07      0.00
  -18    1    9     17.27      0.00
  -17    1    9     -6.05      0.00
  -16    1    9     -6.54      0.00
  -15    1    9     -6.90      0.00
  -14    1    9      1.30      0.00
  -13    1    9    -10.24      0.00
  -12    1    9     -8.16      0.00
  -11    1    9     47.26      0.00
  -10    1    9    -24.25      0.00
   -9    1    9      5.22      0.00
   -8    1    9    -31.47      0.00
   -7    1    9     25.49      0.00
   -6    1    9     50.74      0.00
   -5    1    9     29.93      0.00
   -4    1    9    -48.74      0.00
   -3    1    9     24.46      0.00
   -2    1    9     32.98      0.00
   -1    1    9    -48.86      0.00
    0    1    9     26.73      0.00
    1    1    9     64.39      0.00
    2    1    9    -38.33      0.00
    3    1    9     -2.35      0.00
    4    1    9    -44.28      0.00
    5    1    9     -7.23      0.00
    6    1    9      0.57      0.00
    7    1    9     24.00      0.00
    8    1    9    -13.31      0.00
    9    1    9     -7.34      0.00
   10    1    9     17.51      0.00
   11    1    9    -13.59      0.00
   12    1    9      8.76      0.00
   13    1    9     12.05      0.00
   14    1    9      2.02      0.00
   15    1    9      5.84      0.00
   16    1    9     -0.73      0.00
   17    1    9     16.17      0.00
   18    1    9      9.66      0.00
   19    1    9     -0.01      0.00
   20    1    9     -3.66      0.00
   21    1    9     10.15      0.00
  -21    2    9     10.71      0.00
  -20    2    9      6.99      0.00
  -19    2    9    -11.88      0.00
  -18    2    9     -0.54      0.00
  -17    2    9      7.66      0.00
  -16    2    9     -7.08      0.00
  -15    2    9     -9.99      0.00
  -14    2    9      4.76      0.00
  -13    2    9      7.47      0.00
  -12    2    9     17.04      0.00
  -11    2    9    -10.78      0.00
  -10    2    9     15.21      0.00
   -9    2    9    -13.95      0.00
   -8    2    9      9.89      0.00
   -7    2    9     58.14      0.00
   -6    2    9    -68.60      0.00
   -5    2    9     -3.17      0.00
   -4    2    9    -12.01      0.00
   -3    2    9     10.55      0.00
   -2    2    9    -27.64      0.00
   -1    2    9    -20.65      0.00
    0    2    9     -1.75      0.00
    1    2    9     97.02      0.00
    2    2    9     21.06      0.00
    3    2    9    -65.69      0.00
    4    2    9      4.88      0.00
    5    2    9     38.53      0.00
    6    2    9    -26.42      0.00
    7    2    9    -29.00      0.00
    8    2    9     -0.35      0.00
    9    2    9     20.61      0.00
   10    2    9     26.69      0.00
   11    2    9    -19.09      0.00
   12    2    9    -17.69      0.00
   13    2    9     -4.09      0.00
   14    2    9     18.46      0.00
   15    2    9     -1.62      0.00
   16    2    9      2.13      0.00
   17    2    9      3.48      0.00
   18    2    9     -1.43      0.00
   19    2    9      3.07      0.00
   20    2    9     -5.43      0.00
   21    2    9      3.02      0.00
  -21    3    9     -3.24      0.00
  -20    3    9     -5.29      0.00
  -19    3    9     15.90      0.00
  -18    3    9      0.70      0.00
  -17    3    9    -11.09      0.00
  -16    3    9     28.01      0.00
  -15    3    9     16.84      0.00
  -14    3    9    -13.96      0.00
  -13    3    9    -23.09      0.00
  -12    3    9     -7.95      0.00
  -11    3    9    -16.00      0.00
  -10    3    9     36.89      0.00
   -9    3    9    -16.08      0.00
   -8    3    9     26.36      0.00
   -7    3    9      0.48      0.00
   -6    3    9    -53.34      0.00
   -5    3    9    -27.74      0.00
   -4    3    9     31.56      0.00
   -3    3    9    -31.31      0.00
   -2    3    9     -9.24      0.00
   -1    3    9    -24.14      0.00
    0    3    9    -31.75      0.00
    1    3    9     31.55      0.00
    2    3    9     49.23      0.00
    3    3    9     71.37      0.00
    4    3    9     48.20      0.00
    5    3    9    -72.54      0.00
    6    3    9     31.44      0.00
    7    3    9    -37.31      0.00
    8    3    9      9.31      0.00
    9    3    9     29.97      0.00
   10    3    9     -3.49      0.00
   11    3    9     16.81      0.00
   12    3    9    -11.97      0.00
   13    3    9    -20.31      0.00
   14    3    9     17.45      0.00
   15    3    9    -17.96      0.00
   16    3    9    -21.55      0.00
   17    3    9      2.99      0.00
   18    3    9      4.78      0.00
   19    3    9    -10.68      0.00
   20    3    9     -1.76      0.00
   21    3    9     -6.04      0.00
  -21    4    9      6.37      0.00
  -20    4    9     -7.73      0.00
  -19    4    9     13.53      0.00
  -18    4    9    -10.74      0.00
  -17    4    9     -7.17      0.00
  -16    4    9     -7.30      0.00
  -15    4    9     18.95      0.00
  -14    4    9     16.01      0.00
  -13    4    9    -26.47      0.00
  -12    4    9     16.31      0.00
  -11    4    9     18.52      0.00
  -10    4    9      2.30      0.00
   -9    4    9      0.86      0.00
   -8    4    9     -1.60      0.00
   -7    4    9     -1.14      0.00
   -6    4    9     11.66      0.00
   -5    4    9     -0.35      0.00
   -4    4    9     -9.93      0.00
   -3    4    9     31.36      0.00
   -2    4    9    -76.38      0.00
   -1    4    9    -20.22      0.00
    0    4    9     27.00      0.00
    1    4    9     16.44      0.00
    2    4    9     33.62      0.00
    3    4    9    -47.64      0.00
    4    4    9     18.71      0.00
    5    4    9     67.64      0.00
    6    4    9    -25.35      0.00
    7    4    9     45.99      0.00
    8    4    9    -32.89      0.00
    9    4    9      4.06      0.00
   10    4    9     18.31      0.00
   11    4    9    -29.30      0.00
   12    4    9      3.29      0.00
   13    4    9     -0.20      0.00
   14    4    9    -16.67      0.00
   15    4    9    -19.39      0.00
   16    4    9    -23.38      0.00
   17    4    9     -7.11      0.00
   18    4    9     16.24      0.00
   19    4    9      7.15      0.00
   20    4    9    -10.48      0.00
   21    4    9      7.76      0.00
  -21    5    9     -4.80      0.00
  -20    5    9     -0.00      0.00
  -19    5    9      0.58      0.00
  -18    5    9     19.13      0.00
  -17    5    9     17.96      0.00
  -16    5    9    -22.50      0.00
  -15    5    9     -0.26      0.00
  -14    5    9     11.87      0.00
  -13    5    9     14.71      0.00
  -12    5    9     26.87      0.00
  -11    5    9     -6.52      0.00
  -10    5    9     15.40      0.00
   -9    5    9    -50.96      0.00
   -8    5    9    -14.68      0.00
   -7    5    9    -20.94      0.00
   -6    5    9     -8.28      0.00
   -5    5    9     31.85      0.00
   -4    5    9     12.66      0.00
   -3    5    9    -40.67      0.00
   -2    5    9      8.91      0.00
   -1    5    9   -104.72      0.00
    0    5    9     -3.62      0.00
    1    5    9    160.30      0.00
    2    5    9    -40.71      0.00
    3    5    9     18.13      0.00
    4    5    9     50.11      0.00
    5    5    9      5.98      0.00
    6    5    9     16.21      0.00
    7    5    9    -10.98      0.00
    8    5    9     21.77      0.00
    9    5    9      8.12      0.00
   10    5    9    -21.92      0.00
   11    5    9      7.02      0.00
   12    5    9    -16.96      0.00
   13    5    9     26.24      0.00
   14    5    9     -4.73      0.00
   15    5    9     -7.07      0.00
   16    5    9     -7.07      0.00
   17    5    9    -23.82      0.00
   18    5    9     -8.49      0.00
   19    5    9     10.16      0.00
   20    5    9      2.38      0.00
   21    5    9    -10.95      0.00
  -21    6    9      3.70      0.00
  -20    6    9    -10.79      0.00
  -19    6    9      4.69      0.00
  -18    6    9     -1.53      0.00
  -17    6    9     18.25      0.00
  -16    6    9     12.93      0.00
  -15    6    9    -24.73      0.00
  -14    6    9    -18.64      0.00
  -13    6    9    -12.27      0.00
  -12    6    9     15.40      0.00
  -11    6    9      4.35      0.00
  -10    6    9     14.10      0.00
   -9    6    9    -30.51      0.00
   -8    6    9     -7.73      0.00
   -7    6    9    -19.00      0.00
   -6    6    9     33.96      0.00
   -5    6    9      1.25      0.00
   -4    6    9      9.99      0.00
   -3    6    9     -3.33      0.00
   -2    6    9     18.97      0.00
   -1    6    9    -23.29      0.00
    0    6    9     96.86      0.00
    1    6    9     85.78      0.00
    2    6    9     22.07      0.00
    3    6    9    -64.69      0.00
    4    6    9    -35.42      0.00
    5    6    9     -9.94      0.00
    6    6    9     41.81      0.00
    7    6    9    -17.09      0.00
    8    6    9     18.74      0.00
    9    6    9      9.67      0.00
   10    6    9     -5.27      0.00
   11    6    9    -13.67      0.00
   12    6    9     15.92      0.00
   13    6    9     10.52      0.00
   14    6    9    -17.81      0.00
   15    6    9    -20.38      0.00
   16    6    9     -3.47      0.00
   17    6    9      6.50      0.00
   18    6    9     -4.52      0.00
   19    6    9      9.12      0.00
   20    6    9     13.85      0.00
   21    6    9      0.57      0.00
  -21    7    9     -4.72      0.00
  -20    7    9      2.20      0.00
  -19    7    9      1.61      0.00
  -18    7    9    -12.40      0.00
  -17    7    9     10.73      0.00
  -16    7    9      3.22      0.00
  -15    7    9      7.83      0.00
  -14    7    9     -3.30      0.00
  -13    7    9    -12.37      0.00
  -12    7    9     28.46      0.00
  -11    7    9     28.49      0.00
  -10    7    9    -10.28      0.00
   -9    7    9     23.01      0.00
   -8    7    9     14.48      0.00
   -7    7    9      3.27      0.00
   -6    7    9     22.64      0.00
   -5    7    9     -1.48      0.00
   -4    7    9    -70.28      0.00
   -3    7    9     34.94      0.00
   -2    7    9    -58.79      0.00
   -1    7    9     32.75      0.00
    0    7    9     29.04      0.00
    1    7    9    -39.34      0.00
    2    7    9     53.95      0.00
    3    7    9    -29.78      0.00
    4    7    9     -5.30      0.00
    5    7    9     50.27      0.00
    6    7    9    -12.48      0.00
    7    7    9    -26.52      0.00
    8    7    9    -20.95      0.00
    9    7    9     -8.30      0.00
   10    7    9     24.90      0.00
   11    7    9     28.50      0.00
   12    7    9     -6.48      0.00
   13    7    9     -2.83      0.00
   14    7    9     -9.84      0.00
   15    7    9     -9.13      0.00
   16    7    9      4.39      0.00
   17    7    9     11.90      0.00
   18    7    9      7.62      0.00
   19    7    9     -7.82      0.00
   20    7    9     -3.34      0.00
  -21    8    9     -6.83      0.00
  -20    8    9      5.59      0.00
  -19    8    9     11.16      0.00
  -18    8    9      0.24      0.00
  -17    8    9    -18.26      0.00
  -16    8    9    -17.69      0.00
  -15    8    9     -1.02      0.00
  -14    8    9      5.67      0.00
  -13    8    9     -6.07      0.00
  -12    8    9     18.38      0.00
  -11    8    9     35.55      0.00
  -10    8    9    -42.91      0.00
   -9    8    9     13.19      0.00
   -8    8    9    -12.15      0.00
   -7    8    9     14.80      0.00
   -6    8    9     30.02      0.00
   -5    8    9    -32.29      0.00
   -4    8    9     31.09      0.00
   -3    8    9    -29.53      0.00
   -2    8    9    -38.46      0.00
   -1    8    9    -18.49      0.00
    0    8    9      2.39      0.00
    1    8    9     57.76      0.00
    2    8    9     -8.81      0.00
    3    8    9     38.46      0.00
    4    8    9    -28.75      0.00
    5    8    9    -17.16      0.00
    6    8    9    -22.42      0.00
    7    8    9    -16.19      0.00
    8    8    9     -0.38      0.00
    9    8    9    -10.51      0.00
   10    8    9    -17.64      0.00
   11    8    9     27.32      0.00
   12    8    9     14.13      0.00
   13    8    9     10.11      0.00
   14    8    9     -3.42      0.00
   15    8    9     16.18      0.00
   16    8    9     -0.96      0.00
   17    8    9     -5.00      0.00
   18    8    9    -12.98      0.00
   19    8    9     -1.26      0.00
   20    8    9     -8.10      0.00
  -21    9    9     -2.52      0.00
  -20    9    9     -8.68      0.00
  -19    9    9     -4.08      0.00
  -18    9    9     -8.61      0.00
  -17    9    9     -3.47      0.00
  -16    9    9    -11.97      0.00
  -15    9    9    -17.07      0.00
  -14    9    9      2.58      0.00
  -13    9    9      9.22      0.00
  -12    9    9      3.22      0.00
  -11    9    9     22.82      0.00
  -10    9    9     -2.56      0.00
   -9    9    9      7.21      0.00
   -8    9    9      8.57      0.00
   -7    9    9    -21.54      0.00
   -6    9    9    -14.31      0.00
   -5    9    9     42.33      0.00
   -4    9    9    -39.94      0.00
   -3    9    9     -7.82      0.00
   -2    9    9     29.48      0.00
   -1    9    9     -9.94      0.00
    0    9    9    -38.44      0.00
    1    9    9    -41.09      0.00
    2    9    9     15.32      0.00
    3    9    9    -43.87      0.00
    4    9    9     14.85      0.00
    5    9    9     39.86      0.00
    6    9    9    -25.93      0.00
    7    9    9     15.29      0.00
    8    9    9    -10.23      0.00
    9    9    9     -7.83      0.00
   10    9    9      4.58      0.00
   11    9    9    -19.74      0.00
   12    9    9     17.12      0.00
   13    9    9     -6.29      0.00
   14    9    9     -0.37      0.00
   15    9    9     -5.92      0.00
   16    9    9      0.75      0.00
   17    9    9      6.10      0.00
   18    9    9      8.65      0.00
   19    9    9      0.40      0.00
   20    9    9      0.52      0.00
  -20   10    9     -0.22      0.00
  -19   10    9     -5.17      0.00
  -18   10    9     -7.64      0.00
  -17   10    9      3.86      0.00
  -16   10    9      5.08      0.00
  -15   10    9    -12.17      0.00
  -14   10    9      2.82      0.00
  -13   10    9     12.82      0.00
  -12   10    9      4.63      0.00
  -11   10    9     42.47      0.00
  -10   10    9    -12.65      0.00
   -9   10    9    -17.45      0.00
   -8   10    9     24.13      0.00
   -7   10    9     -4.29      0.00
   -6   10    9    -10.04      0.00
   -5   10    9    -22.41      0.00
   -4   10    9    -33.31      0.00
   -3   10    9    -38.68      0.00
   -2   10    9    -16.20      0.00
   -1   10    9     47.85      0.00
    0   10    9     -6.73      0.00
    1   10    9    -25.57      0.00
    2   10    9    -77.97      0.00
    3   10    9     20.05      0.00
    4   10    9    -17.98      0.00
    5   10    9     14.84      0.00
    6   10    9     48.09      0.00
    7   10    9    -41.76      0.00
    8   10    9     52.38      0.00
    9   10    9     14.21      0.00
   10   10    9      8.89      0.00
   11   10    9      0.81      0.00
   12   10    9     -4.65      0.00
   13   10    9    -12.31      0.00
   14   10    9     15.23      0.00
   15   10    9      1.32      0.00
   16   10    9     16.12      0.00
   17   10    9      9.71      0.00
   18   10    9      7.78      0.00
   19   10    9    -11.27      0.00
   20   10    9      3.02      0.00
  -20   11    9     -0.33      0.00
  -19   11    9    -15.05      0.00
  -18   11    9     -3.67      0.00
  -17   11    9      6.64      0.00
  -16   11    9     24.14      0.00
  -15   11    9      4.66      0.00
  -14   11    9     -6.89      0.00
  -13   11    9      4.93      0.00
  -12   11    9     -8.19      0.00
  -11   11    9    -21.38      0.00
  -10   11    9    -29.59      0.00
   -9   11    9      5.23      0.00
   -8   11    9    -10.08      0.00
   -7   11    9      1.36      0.00
   -6   11    9     18.15      0.00
   -5   11    9     -3.61      0.00
   -4   11    9     30.07      0.00
   -3   11    9    -11.72      0.00
   -2   11    9    -35.60      0.00
   -1   11    9    -38.32      0.00
    0   11    9     45.28      0.00
    1   11    9     25.68      0.00
    2   11    9    -17.58      0.00
    3   11    9     -0.62      0.00
    4   11    9     47.05      0.00
    5   11    9    -12.49      0.00
    6   11    9    -36.17      0.00
    7   11    9     23.96      0.00
    8   11    9    -11.28      0.00
    9   11    9     19.84      0.00
   10   11    9     10.42      0.00
   11   11    9    -17.61      0.00
   12   11    9     14.55      0.00
   13   11    9     -6.96      0.00
   14   11    9    -12.65      0.00
   15   11    9      8.82      0.00
   16   11    9      4.00      0.00
   17   11    9      3.65      0.00
   18   11    9     -8.97      0.00
   19   11    9      2.89      0.00
   20   11    9      1.11      0.00
  -20   12    9     12.96      0.00
  -19   12    9      0.81      0.00
  -18   12    9     -1.71      0.00
  -17   12    9     -5.72      0.00
  -16   12    9      3.92      0.00
  -15   12    9      0.23      0.00
  -14   12    9      6.62      0.00
  -13   12    9     17.60      0.00
  -12   12    9    -10.89      0.00
  -11   12    9    -30.84      0.00
  -10   12    9    -20.98      0.00
   -9   12    9    -38.72      0.00
   -8   12    9     28.79      0.00
   -7   12    9     -6.53      0.00
   -6   12    9     11.23      0.00
   -5   12    9     27.34      0.00
   -4   12    9    -29.23      0.00
   -3   12    9     16.08      0.00
   -2   12    9    -12.30      0.00
   -1   12    9     -1.60      0.00
    0   12    9     52.17      0.00
    1   12    9    -93.21      0.00
    2   12    9      7.67      0.00
    3   12    9     49.77      0.00
    4   12    9    -53.13      0.00
    5   12    9    -16.68      0.00
    6   12    9     13.05      0.00
    7   12    9     -0.97      0.00
    8   12    9     -0.54      0.00
    9   12    9    -13.21      0.00
   10   12    9    -11.97      0.00
   11   12    9     24.77      0.00
   12   12    9     -0.27      0.00
   13   12    9      8.80      0.00
   14   12    9    -15.26      0.00
   15   12    9     -4.03      0.00
   16   12    9      3.42      0.00
   17   12    9      1.67      0.00
   18   12    9     -1.72      0.00
   19   12    9     -2.61      0.00
   20   12    9      5.96      0.00
  -20   13    9     -2.87      0.00
  -19   13    9      2.41      0.00
  -18   13    9     -4.36      0.00
  -17   13    9    -12.59      0.00
  -16   13    9     -4.63      0.00
  -15   13    9      8.00      0.00
  -14   13    9    -12.51      0.00
  -13   13    9     18.12      0.00
  -12   13    9     35.36      0.00
  -11   13    9      3.47      0.00
  -10   13    9    -15.65      0.00
   -9   13    9      0.65      0.00
   -8   13    9     37.77      0.00
   -7   13    9     20.27      0.00
   -6   13    9     11.69      0.00
   -5   13    9    -19.25      0.00
   -4   13    9     28.65      0.00
   -3   13    9     -5.68      0.00
   -2   13    9     13.08      0.00
   -1   13    9     24.62      0.00
    0   13    9     -9.74      0.00
    1   13    9    -18.53      0.00
    2   13    9    -63.70      0.00
    3   13    9     -3.81      0.00
    4   13    9    -26.72      0.00
    5   13    9    -14.20      0.00
    6   13    9     16.47      0.00
    7   13    9     17.96      0.00
    8   13    9     12.33      0.00
    9   13    9    -30.59      0.00
   10   13    9    -24.53      0.00
   11   13    9     -8.38      0.00
   12   13    9     -5.75      0.00
   13   13    9     -4.71      0.00
   14   13    9     22.86      0.00
   15   13    9     12.64      0.00
   16   13    9     -0.10      0.00
   17   13    9     10.15      0.00
   18   13    9      2.15      0.00
   19   13    9     -2.64      0.00
  -19   14    9      1.57      0.00
  -18   14    9      7.45      0.00
  -17   14    9     -5.25      0.00
  -16   14    9     -6.82      0.00
  -15   14    9     11.04      0.00
  -14   14    9     -9.61      0.00
  -13   14    9      1.32      0.00
  -12   14    9      5.86      0.00
  -11   14    9    -11.84      0.00
  -10   14    9     -5.35      0.00
   -9   14    9     -0.83      0.00
   -8   14    9     -9.64      0.00
   -7   14    9      3.51      0.00
   -6   14    9      9.12      0.00
   -5   14    9     32.76      0.00
   -4   14    9    -35.97      0.00
   -3   14    9      8.90      0.00
   -2   14    9     -7.58      0.00
   -1   14    9     38.24      0.00
    0   14    9     24.59      0.00
    1   14    9    -32.33      0.00
    2   14    9     31.04      0.00
    3   14    9     -8.73      0.00
    4   14    9    -45.11      0.00
    5   14    9    -10.41      0.00
    6   14    9    -38.90      0.00
    7   14    9      0.27      0.00
    8   14    9    -12.56      0.00
    9   14    9     22.56      0.00
   10   14    9      5.95      0.00
   11   14    9     -1.60      0.00
   12   14    9      7.53      0.00
   13   14    9     -6.05      0.00
   14   14    9     -1.83      0.00
   15   14    9     12.01      0.00
   16   14    9     -9.62      0.00
   17   14    9      0.76      0.00
   18   14    9     -1.76      0.00
   19   14    9     -2.07      0.00
  -19   15    9     -7.84      0.00
  -18   15    9     -2.95      0.00
  -17   15    9      0.00      0.00
  -16   15    9      6.42      0.00
  -15   15    9     11.65      0.00
  -14   15    9     10.84      0.00
  -13   15    9      3.44      0.00
  -12   15    9     -5.34      0.00
  -11   15    9    -19.16      0.00
  -10   15    9      1.15      0.00
   -9   15    9      1.82      0.00
   -8   15    9     10.97      0.00
   -7   15    9      0.98      0.00
   -6   15    9     14.70      0.00
   -5   15    9      9.79      0.00
   -4   15    9     14.91      0.00
   -3   15    9     -4.18      0.00
   -2   15    9     -1.79      0.00
   -1   15    9    -30.51      0.00
    0   15    9      6.14      0.00
    1   15    9      3.15      0.00
    2   15    9      2.22      0.00
    3   15    9     20.12      0.00
    4   15    9    -18.48      0.00
    5   15    9    -15.39      0.00
    6   15    9     28.45      0.00
    7   15    9      3.76      0.00
    8   15    9     11.47      0.00
    9   15    9    -30.45      0.00
   10   15    9      4.60      0.00
   11   15    9      4.93      0.00
   12   15    9      5.16      0.00
   13   15    9     -0.12      0.00
   14   15    9    -10.65      0.00
   15   15    9     19.55      0.00
   16   15    9     -0.09      0.00
   17   15    9     -9.67      0.00
   18   15    9     11.92      0.00
   19   15    9     -4.25      0.00
  -19   16    9     -1.80      0.00
  -18   16    9     -1.97      0.00
  -17   16    9     -7.30      0.00
  -16   16    9    -11.83      0.00
  -15   16    9     -5.96      0.00
  -14   16    9      5.43      0.00
  -13   16    9     23.28      0.00
  -12   16    9     13.50      0.00
  -11   16    9    -22.08      0.00
  -10   16    9      1.79      0.00
   -9   16    9     -0.91      0.00
   -8   16    9      5.24      0.00
   -7   16    9     -0.82      0.00
   -6   16    9      8.17      0.00
   -5   16    9      1.16      0.00
   -4   16    9    -21.85      0.00
   -3   16    9    -32.26      0.00
   -2   16    9      6.34      0.00
   -1   16    9    -17.11      0.00
    0   16    9     35.18      0.00
    1   16    9    -10.95      0.00
    2   16    9     -2.99      0.00
    3   16    9     17.40      0.00
    4   16    9     62.73      0.00
    5   16    9    -14.22      0.00
    6   16    9     23.34      0.00
    7   16    9     -0.25      0.00
    8   16    9    -11.77      0.00
    9   16    9    -12.65      0.00
   10   16    9     -9.81      0.00
   11   16    9     -6.44      0.00
   12   16    9      3.76      0.00
   13   16    9    -10.62      0.00
   14   16    9     -0.47      0.00
   15   16    9    -21.54      0.00
   16   16    9     -5.27      0.00
   17   16    9     -3.13      0.00
   18   16    9     -0.83      0.00
  -18   17    9      7.14      0.00
  -17   17    9     13.02      0.00
  -16   17    9     -0.70      0.00
  -15   17    9     -5.46      0.00
  -14   17    9      3.17      0.00
  -13   17    9      4.27      0.00
  -12   17    9     -7.08      0.00
  -11   17    9     16.63      0.00
  -10   17    9    -19.03      0.00
   -9   17    9    -11.35      0.00
   -8   17    9    -19.14      0.00
   -7   17    9     23.43      0.00
   -6   17    9    -22.15      0.00
   -5   17    9     13.01      0.00
   -4   17    9     20.25      0.00
   -3   17    9      6.09      0.00
   -2   17    9    -30.22      0.00
   -1   17    9     43.48      0.00
    0   17    9      1.02      0.00
    1   17    9     -0.16      0.00
    2   17    9    -15.18      0.00
    3   17    9     48.63      0.00
    4   17    9     -0.81      0.00
    5   17    9     23.51      0.00
    6   17    9     37.82      0.00
    7   17    9     -5.00      0.00
    8   17    9    -17.86      0.00
    9   17    9      4.48      0.00
   10   17    9     -2.69      0.00
   11   17    9      1.92      0.00
   12   17    9    -26.21      0.00
   13   17    9     13.58      0.00
   14   17    9     -2.01      0.00
   15   17    9     12.32      0.00
   16   17    9     -5.99      0.00
   17   17    9     -7.05      0.00
   18   17    9      8.99      0.00
  -18   18    9      5.97      0.00
  -17   18    9     -0.23      0.00
  -16   18    9      6.21      0.00
  -15   18    9     -4.70      0.00
  -14   18    9     -0.61      0.00
  -13   18    9      0.80      0.00
  -12   18    9     -9.96      0.00
  -11   18    9      0.38      0.00
  -10   18    9      5.03      0.00
   -9   18    9     11.68      0.00
   -8   18    9      4.72      0.00
   -7   18    9      9.75      0.00
   -6   18    9    -29.46      0.00
   -5   18    9     -5.09      0.00
   -4   18    9    -21.78      0.00
   -3   18    9     -8.92      0.00
   -2   18    9    -17.26      0.00
   -1   18    9     -9.01      0.00
    0   18    9      4.75      0.00
    1   18    9     13.94      0.00
    2   18    9     -2.27      0.00
    3   18    9     56.10      0.00
    4   18    9    -18.57      0.00
    5   18    9     30.30      0.00
    6   18    9      4.76      0.00
    7   18    9     21.22      0.00
    8   18    9    -14.64      0.00
    9   18    9     17.43      0.00
   10   18    9      5.38      0.00
   11   18    9    -14.18      0.00
   12   18    9    -13.21      0.00
   13   18    9    -12.25      0.00
   14   18    9     -5.42      0.00
   15   18    9      5.05      0.00
   16   18    9      1.05      0.00
   17   18    9    -12.11      0.00
   18   18    9     -7.20      0.00
  -18   19    9     -2.14      0.00
  -17   19    9      2.65      0.00
  -16   19    9     -1.97      0.00
  -15   19    9     -4.65      0.00
  -14   19    9     -1.35      0.00
  -13   19    9    -13.94      0.00
  -12   19    9      8.76      0.00
  -11   19    9    -15.91      0.00
  -10   19    9      6.34      0.00
   -9   19    9     14.05      0.00
   -8   19    9     30.24      0.00
   -7   19    9    -44.01      0.00
   -6   19    9      0.66      0.00
   -5   19    9    -11.37      0.00
   -4   19    9     -0.73      0.00
   -3   19    9     -8.95      0.00
   -2   19    9      4.76      0.00
   -1   19    9     -5.47      0.00
    0   19    9     -8.43      0.00
    1   19    9    -22.23      0.00
    2   19    9     26.09      0.00
    3   19    9    -26.52      0.00
    4   19    9     42.68      0.00
    5   19    9      4.07      0.00
    6   19    9    -14.97      0.00
    7   19    9     13.34      0.00
    8   19    9      5.18      0.00
    9   19    9     -6.46      0.00
   10   19    9      7.80      0.00
   11   19    9     -7.25      0.00
   12   19    9     -0.13      0.00
   13   19    9     -2.32      0.00
   14   19    9      2.51      0.00
   15   19    9     -7.66      0.00
   16   19    9     10.36      0.00
   17   19    9      3.53      0.00
  -17   20    9      4.70      0.00
  -16   20    9     -3.55      0.00
  -15   20    9      4.87      0.00
  -14   20    9      8.82      0.00
  -13   20    9     -0.64      0.00
  -12   20    9    -11.91      0.00
  -11   20    9     12.20      0.00
  -10   20    9     -1.59      0.00
   -9   20    9      8.09      0.00
   -8   20    9     -2.21      0.00
   -7   20    9    -20.26      0.00
   -6   20    9     11.63      0.00
   -5   20    9      5.97      0.00
   -4   20    9      3.27      0.00
   -3   20    9    -36.74      0.00
   -2   20    9     38.03      0.00
   -1   20    9    -26.07      0.00
    0   20    9    -22.44      0.00
    1   20    9     14.72      0.00
    2   20    9    -26.66      0.00
    3   20    9    -23.59      0.00
    4   20    9      5.01      0.00
    5   20    9      7.70      0.00
    6   20    9     10.23      0.00
    7   20    9     -9.17      0.00
    8   20    9      8.56      0.00
    9   20    9     -5.45      0.00
   10   20    9     21.70      0.00
   11   20    9      2.46      0.00
   12   20    9      1.12      0.00
   13   20    9      4.02      0.00
   14   20    9      8.01      0.00
   15   20    9     -2.18      0.00
   16   20    9      4.36      0.00
   17   20    9      4.00      0.00
  -17   21    9     -2.46      0.00
  -16   21    9    -14.51      0.00
  -15   21    9      5.02      0.00
  -14   21    9      1.14      0.00
  -13   21    9     -1.17      0.00
  -12   21    9     -8.81      0.00
  -11   21    9     -4.69      0.00
  -10   21    9      1.49      0.00
   -9   21    9      6.40      0.00
   -8   21    9      3.35      0.00
   -7   21    9     10.98      0.00
   -6   21    9     12.10      0.00
   -5   21    9      1.56      0.00
   -4   21    9     -8.78      0.00
   -3   21    9     11.30      0.00
   -2   21    9    -43.06      0.00
   -1   21    9     15.36      0.00
    0   21    9      3.82      0.00
    1   21    9    -34.90      0.00
    2   21    9      4.15      0.00
    3   21    9    -36.03      0.00
    4   21    9      7.38      0.00
    5   21    9      9.74      0.00
    6   21    9    -12.96      0.00
    7   21    9     27.99      0.00
    8   21    9      8.59      0.00
    9   21    9     12.17      0.00
   10   21    9      3.52      0.00
   11   21    9      7.79      0.00
   12   21    9     -1.68      0.00
   13   21    9      7.93      0.00
   14   21    9     -0.23      0.00
   15   21    9    -18.34      0.00
   16   21    9      1.60      0.00
  -16   22    9      0.86      0.00
  -15   22    9     -1.94      0.00
  -14   22    9      1.98      0.00
  -13   22    9     -9.36      0.00
  -12   22    9      4.07      0.00
  -11   22    9     -4.86      0.00
  -10   22    9      5.56      0.00
   -9   22    9     14.47      0.00
   -8   22    9    -21.08      0.00
   -7   22    9     -1.42      0.00
   -6   22    9     29.30      0.00
   -5   22    9      3.26      0.00
   -4   22    9      4.39      0.00
   -3   22    9     -3.34      0.00
   -2   22    9     -3.69      0.00
   -1   22    9      6.79      0.00
    0   22    9     -0.53      0.00
    1   22    9     22.62      0.00
    2   22    9      3.78      0.00
    3   22    9    -19.82      0.00
    4   22    9      3.88      0.00
    5   22    9     -0.74      0.00
    6   22    9     20.58      0.00
    7   22    9     15.83      0.00
    8   22    9      9.40      0.00
    9   22    9     -3.80      0.00
   10   22    9     -8.65      0.00
   11   22    9    -10.58      0.00
   12   22    9     -2.18      0.00
   13   22    9      5.56      0.00
   14   22    9      4.09      0.00
   15   22    9    -10.64      0.00
   16   22    9     -2.38      0.00
  -16   23    9      7.15      0.00
  -15   23    9     14.00      0.00
  -14   23    9      5.33      0.00
  -13   23    9     -7.27      0.00
  -12   23    9     -0.41      0.00
  -11   23    9    -10.83      0.00
  -10   23    9     -8.68      0.00
   -9   23    9      8.73      0.00
   -8   23    9    -12.00      0.00
   -7   23    9     11.85      0.00
   -6   23    9      7.91      0.00
   -5   23    9     -2.33      0.00
   -4   23    9     10.37      0.00
   -3   23    9      0.43      0.00
   -2   23    9      3.57      0.00
   -1   23    9     -7.36      0.00
    0   23    9    -10.50      0.00
    1   23    9     -0.84      0.00
    2   23    9     24.15      0.00
    3   23    9    -17.14      0.00
    4   23    9    -39.17      0.00
    5   23    9     -1.26      0.00
    6   23    9     -8.99      0.00
    7   23    9    -10.55      0.00
    8   23    9     -6.49      0.00
    9   23    9     -2.37      0.00
   10   23    9     -6.37      0.00
   11   23    9    -12.53      0.00
   12   23    9     -2.68      0.00
   13   23    9      0.65      0.00
   14   23    9      3.96      0.00
   15   23    9     -5.43      0.00
  -15   24    9      4.95      0.00
  -14   24    9     -6.54      0.00
  -13   24    9     -1.26      0.00
  -12   24    9     11.52      0.00
  -11   24    9      6.11      0.00
  -10   24    9     -2.35      0.00
   -9   24    9     23.62      0.00
   -8   24    9     -0.26      0.00
   -7   24    9     11.95      0.00
   -6   24    9     -6.53      0.00
   -5   24    9     -9.14      0.00
   -4   24    9      5.42      0.00
   -3   24    9      4.42      0.00
   -2   24    9    -13.24      0.00
   -1   24    9     24.48      0.00
    0   24    9    -34.02      0.00
    1   24    9     -3.69      0.00
    2   24    9     25.35      0.00
    3   24    9      1.55      0.00
    4   24    9     -5.71      0.00
    5   24    9    -10.18      0.00
    6   24    9     -4.56      0.00
    7   24    9      1.99      0.00
    8   24    9      6.97      0.00
    9   24    9     14.30      0.00
   10   24    9     -2.12      0.00
   11   24    9      6.78      0.00
   12   24    9      1.08      0.00
   13   24    9      9.25      0.00
   14   24    9     -0.75      0.00
  -14   25    9      8.43      0.00
  -13   25    9     -3.03      0.00
  -12   25    9    -11.00      0.00
  -11   25    9     11.77      0.00
  -10   25    9    -18.27      0.00
   -9   25    9      6.65      0.00
   -8   25    9      4.49      0.00
   -7   25    9      3.43      0.00
   -6   25    9      4.84      0.00
   -5   25    9     -8.27      0.00
   -4   25    9    -12.23      0.00
   -3   25    9     16.32      0.00
   -2   25    9     -3.87      0.00
   -1   25    9      8.09      0.00
    0   25    9      4.52      0.00
    1   25    9      5.89      0.00
    2   25    9      0.34      0.00
    3   25    9      1.60      0.00
    4   25    9    -25.21      0.00
    5   25    9     17.06      0.00
    6   25    9     -0.87      0.00
    7   25    9     -3.24      0.00
    8   25    9      2.25      0.00
    9   25    9      0.61      0.00
   10   25    9      3.15      0.00
   11   25    9     -3.03      0.00
   12   25    9     10.29      0.00
   13   25    9      3.27      0.00
   14   25    9     -2.48      0.00
  -13   26    9      4.00      0.00
  -12   26    9      3.01      0.00
  -11   26    9     -6.18      0.00
  -10   26    9      6.65      0.00
   -9   26    9    -12.05      0.00
   -8   26    9     -4.34      0.00
   -7   26    9    -10.00      0.00
   -6   26    9      3.40      0.00
   -5   26    9      6.47      0.00
   -4   26    9     21.94      0.00
   -3   26    9     -8.19      0.00
   -2   26    9     -2.51      0.00
   -1   26    9      8.34      0.00
    0   26    9      1.08      0.00
    1   26    9      4.54      0.00
    2   26    9      4.95      0.00
    3   26    9     -1.01      0.00
    4   26    9     -3.37      0.00
    5   26    9     -4.18      0.00
    6   26    9     13.87      0.00
    7   26    9      6.33      0.00
    8   26    9     -0.71      0.00
    9   26    9     -5.29      0.00
   10   26    9      3.08      0.00
   11   26    9     -3.48      0.00
   12   26    9     -0.66      0.00
   13   26    9     11.48      0.00
  -13   27    9      4.03      0.00
  -12   27    9      9.07      0.00
  -11   27    9     -1.46      0.00
  -10   27    9      3.02      0.00
   -9   27    9     -9.34      0.00
   -8   27    9      5.83      0.00
   -7   27    9     -8.62      0.00
   -6   27    9     17.78      0.00
   -5   27    9     -6.95      0.00
   -4   27    9     -2.47      0.00
   -3   27    9     -7.00      0.00
   -2   27    9      0.15      0.00
   -1   27    9    -12.46      0.00
    0   27    9      9.44      0.00
    1   27    9     -7.74      0.00
    2   27    9    -14.75      0.00
    3   27    9     -8.25      0.00
    4   27    9      4.22      0.00
    5   27    9     11.67      0.00
    6   27    9      7.65      0.00
    7   27    9    -12.88      0.00
    8   27    9     -4.32      0.00
    9   27    9      1.92      0.00
   10   27    9      5.25      0.00
   11   27    9      9.12      0.00
   12   27    9     -2.28      0.00
  -12   28    9     -0.63      0.00
  -11   28    9      1.51      0.00
  -10   28    9      6.87      0.00
   -9   28    9      3.17      0.00
   -8   28    9      1.35      0.00
   -7   28    9     -2.48      0.00
   -6   28    9    -10.63      0.00
   -5   28    9     -6.41      0.00
   -4   28    9     10.98      0.00
   -3   28    9      2.15      0.00
   -2   28    9     -0.42      0.00
   -1   28    9      6.94      0.00
    0   28    9      6.48      0.00
    1   28    9     11.88      0.00
    2   28    9    -13.08      0.00
    3   28    9     -2.76      0.00
    4   28    9      8.27      0.00
    5   28    9     -5.79      0.00
    6   28    9     -3.77      0.00
    7   28    9     -1.41      0.00
    8   28    9    -15.26      0.00
    9   28    9     -4.53      0.00
   10   28    9      1.93      0.00
   11   28    9     -4.80      0.00
  -11   29    9     -2.87      0.00
  -10   29    9      8.49      0.00
   -9   29    9      1.46      0.00
   -8   29    9    -12.77      0.00
   -7   29    9     -0.06      0.00
   -6   29    9    -10.69      0.00
   -5   29    9      9.97      0.00
   -4   29    9    -13.89      0.00
   -3   29    9     -5.04      0.00
   -2   29    9     20.70      0.00
   -1   29    9    -10.23      0.00
    0   29    9     -8.08      0.00
    1   29    9     12.57      0.00
    2   29    9      8.35      0.00
    3   29    9     20.08      0.00
    4   29    9      1.17      0.00
    5   29    9     -7.17      0.00
    6   29    9      0.39      0.00
    7   29    9    -10.56      0.00
    8   29    9     -2.34      0.00
    9   29    9     -4.97      0.00
   10   29    9     -4.55      0.00
   -9   30    9      6.37      0.00
   -8   30    9     13.36      0.00
   -7   30    9      6.25      0.00
   -6   30    9     -6.00      0.00
   -5   30    9      6.99      0.00
   -4   30    9    -10.55      0.00
   -3   30    9     -3.58      0.00
   -2   30    9      2.95      0.00
   -1   30    9     -8.39      0.00
    0   30    9     16.44      0.00
    1   30    9    -12.90      0.00
    2   30    9     -8.93      0.00
    3   30    9      7.06      0.00
    4   30    9    -13.13      0.00
    5   30    9      7.03      0.00
    6   30    9     -6.06      0.00
    7   30    9    -11.62      0.00
    8   30    9      1.99      0.00
    9   30    9      1.32      0.00
   -8   31    9     -6.55      0.00
   -7   31    9     -0.14      0.00
   -6   31    9    -13.62      0.00
   -5   31    9      6.55      0.00
   -4   31    9      0.65      0.00
   -3   31    9     -6.30      0.00
   -2   31    9     18.46      0.00
   -1   31    9     -9.02      0.00
    0   31    9      1.74      0.00
    1   31    9      6.61      0.00
    2   31    9      6.59      0.00
    3   31    9      1.80      0.00
    4   31    9     -3.63      0.00
    5   31    9     10.96      0.00
    6   31    9      4.89      0.00
    7   31    9      0.42      0.00
   -6   32    9      4.71      0.00
   -5   32    9     -4.57      0.00
   -4   32    9      1.55      0.00
   -3   32    9      8.84      0.00
   -2   32    9     -3.86      0.00
   -1   32    9    -15.70      0.00
    0   32    9     15.50      0.00
    1   32    9      0.50      0.00
    2   32    9    -10.84      0.00
    3   32    9     -2.51      0.00
    4   32    9     17.50      0.00
    5   32    9     -4.47      0.00
   -3   33    9      3.42      0.00
   -2   33    9    -11.84      0.00
   -1   33    9      7.58      0.00
    0   33    9      3.64      0.00
    1   33    9     -2.75      0.00
    2   33    9     -4.05      0.00
    3   33    9     -5.93      0.00
  -21    0   10     -3.96      0.00
  -20    0   10     -6.71      0.00
  -19    0   10     -5.48      0.00
  -18    0   10     15.99      0.00
  -17    0   10     36.77      0.00
  -16    0   10     -4.01      0.00
  -15    0   10     10.02      0.00
  -14    0   10    -22.94      0.00
  -13    0   10     -1.89      0.00
  -12    0   10      4.14      0.00
  -11    0   10     38.42      0.00
  -10    0   10    -41.00      0.00
   -9    0   10     39.56      0.00
   -8    0   10    -17.36      0.00
   -7    0   10    -39.88      0.00
   -6    0   10      4.70      0.00
   -5    0   10    -48.54      0.00
   -4    0   10     28.32      0.00
   -3    0   10    -24.03      0.00
   -2    0   10    -28.89      0.00
   -1    0   10     52.80      0.00
    0    0   10   -112.10      0.00
    1    0   10     40.23      0.00
    3    0   10     29.28      0.00
    4    0   10     43.20      0.00
    5    0   10     -9.20      0.00
    6    0   10     37.98      0.00
    7    0   10     -7.16      0.00
    8    0   10     62.27      0.00
    9    0   10    -10.79      0.00
   10    0   10    -26.88      0.00
   11    0   10    -21.93      0.00
   12    0   10    -24.33      0.00
   13    0   10     -0.17      0.00
   14    0   10     22.82      0.00
   15    0   10     23.00      0.00
   16    0   10     -7.35      0.00
   17    0   10      2.98      0.00
   18    0   10     -0.75      0.00
   19    0   10      5.62      0.00
   20    0   10      8.76      0.00
  -21    1   10     -6.33      0.00
  -20    1   10     12.66      0.00
  -19    1   10    -13.21      0.00
  -18    1   10     -7.97      0.00
  -17    1   10      6.33      0.00
  -16    1   10     21.43      0.00
  -15    1   10     -5.44      0.00
  -14    1   10     -2.83      0.00
  -13    1   10    -21.81      0.00
  -12    1   10    -15.92      0.00
  -11    1   10     36.49      0.00
  -10    1   10      4.41      0.00
   -9    1   10     64.48      0.00
   -8    1   10      2.25      0.00
   -7    1   10    -30.22      0.00
   -6    1   10      4.02      0.00
   -5    1   10    -12.62      0.00
   -4    1   10     -2.47      0.00
   -3    1   10     52.07      0.00
   -2    1   10     17.10      0.00
   -1    1   10     76.18      0.00
    0    1   10    -37.48      0.00
    1    1   10      5.80      0.00
    2    1   10    -37.94      0.00
    3    1   10    -30.78      0.00
    4    1   10     31.76      0.00
    5    1   10     69.14      0.00
    6    1   10     -2.02      0.00
    7    1   10    -46.57      0.00
    8    1   10    -21.89      0.00
    9    1   10     19.99      0.00
   10    1   10     -4.13      0.00
   11    1   10      6.96      0.00
   12    1   10    -19.63      0.00
   13    1   10     10.33      0.00
   14    1   10    -17.28      0.00
   15    1   10     -3.07      0.00
   16    1   10     20.03      0.00
   17    1   10     11.37      0.00
   18    1   10     -1.55      0.00
   19    1   10      3.44      0.00
   20    1   10    -14.57      0.00
  -21    2   10    -11.85      0.00
  -20    2   10     -2.14      0.00
  -19    2   10      6.62      0.00
  -18    2   10    -11.90      0.00
  -17    2   10     -9.42      0.00
  -16    2   10     -3.94      0.00
  -15    2   10     15.71      0.00
  -14    2   10      8.04      0.00
  -13    2   10     16.08      0.00
  -12    2   10     27.51      0.00
  -11    2   10    -58.48      0.00
  -10    2   10    -34.90      0.00
   -9    2   10    -35.71      0.00
   -8    2   10     -5.47      0.00
   -7    2   10     30.37      0.00
   -6    2   10    -45.36      0.00
   -5    2   10     16.94      0.00
   -4    2   10     26.22      0.00
   -3    2   10    -25.60      0.00
   -2    2   10     48.52      0.00
   -1    2   10     46.82      0.00
    0    2   10     -6.83      0.00
    1    2   10     -1.21      0.00
    2    2   10    -23.19      0.00
    3    2   10    -12.22      0.00
    4    2   10    -11.34      0.00
    5    2   10    -11.03      0.00
    6    2   10      8.74      0.00
    7    2   10     -6.87      0.00
    8    2   10    -39.75      0.00
    9    2   10      2.23      0.00
   10    2   10     -4.14      0.00
   11    2   10      9.03      0.00
   12    2   10     24.59      0.00
   13    2   10     26.20      0.00
   14    2   10     16.40      0.00
   15    2   10     -5.79      0.00
   16    2   10      0.28      0.00
   17    2   10    -14.79      0.00
   18    2   10     -4.63      0.00
   19    2   10     -9.25      0.00
   20    2   10     -5.56      0.00
  -21    3   10      4.00      0.00
  -20    3   10    -14.58      0.00
  -19    3   10      2.91      0.00
  -18    3   10     19.84      0.00
  -17    3   10    -18.11      0.00
  -16    3   10    -11.38      0.00
  -15    3   10    -13.23      0.00
  -14    3   10     24.62      0.00
  -13    3   10      0.91      0.00
  -12    3   10     -4.67      0.00
  -11    3   10     13.87      0.00
  -10    3   10      8.32      0.00
   -9    3   10      8.25      0.00
   -8    3   10    -39.48      0.00
   -7    3   10    -35.93      0.00
   -6    3   10     61.19      0.00
   -5    3   10    -16.80      0.00
   -4    3   10     -0.70      0.00
   -3    3   10    -25.15      0.00
   -2    3   10     -8.62      0.00
   -1    3   10    -30.65      0.00
    0    3   10     -9.80      0.00
    1    3   10     13.97      0.00
    2    3   10    -45.96      0.00
    3    3   10    -17.88      0.00
    4    3   10     -7.46      0.00
    5    3   10      7.54      0.00
    6    3   10     32.62      0.00
    7    3   10     24.70      0.00
    8    3   10      3.97      0.00
    9    3   10    -20.78      0.00
   10    3   10    -20.33      0.00
   11    3   10    -25.80      0.00
   12    3   10      8.73      0.00
   13    3   10      9.48      0.00
   14    3   10      7.90      0.00
   15    3   10      1.88      0.00
   16    3   10     -8.47      0.00
   17    3   10    -10.27      0.00
   18    3   10      9.16      0.00
   19    3   10      0.41      0.00
   20    3   10      1.52      0.00
  -21    4   10      0.56      0.00
  -20    4   10      1.20      0.00
  -19    4   10     -5.14      0.00
  -18    4   10      7.10      0.00
  -17    4   10     16.52      0.00
  -16    4   10    -12.65      0.00
  -15    4   10    -15.82      0.00
  -14    4   10     -7.25      0.00
  -13    4   10     -3.06      0.00
  -12    4   10     29.46      0.00
  -11    4   10     13.93      0.00
  -10    4   10     10.51      0.00
   -9    4   10    -10.91      0.00
   -8    4   10     19.19      0.00
   -7    4   10     -0.67      0.00
   -6    4   10    -37.66      0.00
   -5    4   10     -6.50      0.00
   -4    4   10     11.39      0.00
   -3    4   10    -30.30      0.00
   -2    4   10     32.59      0.00
   -1    4   10     -2.53      0.00
    0    4   10      8.15      0.00
    1    4   10     -6.21      0.00
    2    4   10    -21.21      0.00
    3    4   10    -87.87      0.00
    4    4   10     60.78      0.00
    5    4   10     26.86      0.00
    6    4   10    -54.56      0.00
    7    4   10     12.34      0.00
    8    4   10    -17.56      0.00
    9    4   10     36.93      0.00
   10    4   10     18.61      0.00
   11    4   10     -6.17      0.00
   12    4   10      0.93      0.00
   13    4   10     -7.50      0.00
   14    4   10     -9.21      0.00
   15    4   10     -1.71      0.00
   16    4   10     11.41      0.00
   17    4   10      3.77      0.00
   18    4   10     -3.27      0.00
   19    4   10     -5.81      0.00
   20    4   10     -6.47      0.00
  -21    5   10     -8.98      0.00
  -20    5   10     -2.40      0.00
  -19    5   10     -6.41      0.00
  -18    5   10     -7.35      0.00
  -17    5   10     -4.91      0.00
  -16    5   10      9.43      0.00
  -15    5   10     -0.83      0.00
  -14    5   10      4.17      0.00
  -13    5   10      5.21      0.00
  -12    5   10    -22.70      0.00
  -11    5   10    -18.69      0.00
  -10    5   10     -1.20      0.00
   -9    5   10     22.58      0.00
   -8    5   10     10.60      0.00
   -7    5   10     27.02      0.00
   -6    5   10    -22.62      0.00
   -5    5   10     -3.32      0.00
   -4    5   10     15.81      0.00
   -3    5   10     11.61      0.00
   -2    5   10     28.49      0.00
   -1    5   10     -4.16      0.00
    0    5   10     31.89      0.00
    1    5   10    -32.88      0.00
    2    5   10      5.47      0.00
    3    5   10     -6.78      0.00
    4    5   10     33.88      0.00
    5    5   10     -2.92      0.00
    6    5   10    -34.41      0.00
    7    5   10     26.54      0.00
    8    5   10     31.32      0.00
    9    5   10      4.99      0.00
   10    5   10     10.60      0.00
   11    5   10     -6.87      0.00
   12    5   10     27.92      0.00
   13    5   10     -4.03      0.00
   14    5   10      2.54      0.00
   15    5   10     15.22      0.00
   16    5   10    -32.32      0.00
   17    5   10     -6.64      0.00
   18    5   10     -7.74      0.00
   19    5   10     -4.13      0.00
   20    5   10      8.98      0.00
  -21    6   10      8.41      0.00
  -20    6   10     -1.43      0.00
  -19    6   10      2.39      0.00
  -18    6   10     -3.97      0.00
  -17    6   10     -0.13      0.00
  -16    6   10      6.99      0.00
  -15    6   10      8.14      0.00
  -14    6   10     20.33      0.00
  -13    6   10    -18.74      0.00
  -12    6   10     -2.33      0.00
  -11    6   10      3.97      0.00
  -10    6   10      4.37      0.00
   -9    6   10      3.03      0.00
   -8    6   10     -2.45      0.00
   -7    6   10      6.54      0.00
   -6    6   10     20.31      0.00
   -5    6   10      5.66      0.00
   -4    6   10      6.73      0.00
   -3    6   10    -38.00      0.00
   -2    6   10      9.40      0.00
   -1    6   10     44.49      0.00
    0    6   10     12.48      0.00
    1    6   10     44.34      0.00
    2    6   10     51.33      0.00
    3    6   10    -27.84      0.00
    4    6   10     27.10      0.00
    5    6   10      8.57      0.00
    6    6   10     18.86      0.00
    7    6   10      5.40      0.00
    8    6   10     15.61      0.00
    9    6   10      5.13      0.00
   10    6   10    -23.19      0.00
   11    6   10     -7.67      0.00
   12    6   10     10.96      0.00
   13    6   10    -20.92      0.00
   14    6   10    -10.08      0.00
   15    6   10     -5.75      0.00
   16    6   10     -3.31      0.00
   17    6   10     11.88      0.00
   18    6   10     -4.45      0.00
   19    6   10      7.21      0.00
   20    6   10      2.38      0.00
  -20    7   10     10.75      0.00
  -19    7   10      0.60      0.00
  -18    7   10      6.60      0.00
  -17    7   10     10.96      0.00
  -16    7   10    -13.60      0.00
  -15    7   10     -8.55      0.00
  -14    7   10    -19.13      0.00
  -13    7   10     33.97      0.00
  -12    7   10     -7.61      0.00
  -11    7   10     -6.01      0.00
  -10    7   10      0.03      0.00
   -9    7   10    -18.12      0.00
   -8    7   10     15.93      0.00
   -7    7   10     -3.13      0.00
   -6    7   10    -36.00      0.00
   -5    7   10     69.64      0.00
   -4    7   10    -20.38      0.00
   -3    7   10      2.11      0.00
   -2    7   10     17.95      0.00
   -1    7   10    -11.46      0.00
    0    7   10    -27.52      0.00
    1    7   10     12.95      0.00
    2    7   10    -32.42      0.00
    3    7   10     29.55      0.00
    4    7   10      3.90      0.00
    5    7   10     14.14      0.00
    6    7   10     -4.73      0.00
    7    7   10      7.03      0.00
    8    7   10    -20.65      0.00
    9    7   10     10.74      0.00
   10    7   10     -2.79      0.00
   11    7   10     17.42      0.00
   12    7   10    -13.88      0.00
   13    7   10      7.35      0.00
   14    7   10    -11.92      0.00
   15    7   10    -14.25      0.00
   16    7   10      9.42      0.00
   17    7   10     -9.80      0.00
   18    7   10    -15.51      0.00
   19    7   10      2.69      0.00
   20    7   10    -12.93      0.00
  -20    8   10     -3.41      0.00
  -19    8   10     -8.76      0.00
  -18    8   10      5.49      0.00
  -17    8   10      4.26      0.00
  -16    8   10     36.30      0.00
  -15    8   10      9.98      0.00
  -14    8   10     -5.94      0.00
  -13    8   10     19.96      0.00
  -12    8   10    -25.67      0.00
  -11    8   10      4.87      0.00
  -10    8   10     18.26      0.00
   -9    8   10     22.82      0.00
   -8    8   10    -20.12      0.00
   -7    8   10     -4.64      0.00
   -6    8   10    -19.79      0.00
   -5    8   10     11.97      0.00
   -4    8   10      4.72      0.00
   -3    8   10     37.59      0.00
   -2    8   10      0.40      0.00
   -1    8   10    -24.82      0.00
    0    8   10    -11.83      0.00
    1    8   10     33.87      0.00
    2    8   10     45.45      0.00
    3    8   10     43.95      0.00
    4    8   10    -53.25      0.00
    5    8   10      5.25      0.00
    6    8   10    -50.69      0.00
    7    8   10     25.79      0.00
    8    8   10     26.46      0.00
    9    8   10    -34.20      0.00
   10    8   10    -19.05      0.00
   11    8   10    -22.32      0.00
   12    8   10      0.39      0.00
   13    8   10      2.88      0.00
   14    8   10      3.56      0.00
   15    8   10      0.63      0.00
   16    8   10      8.05      0.00
   17    8   10     -0.12      0.00
   18    8   10     -6.23      0.00
   19    8   10     -3.90      0.00
   20    8   10      2.96      0.00
  -20    9   10     -5.56      0.00
  -19    9   10     -1.87      0.00
  -18    9   10     11.65      0.00
  -17    9   10     -5.29      0.00
  -16    9   10      0.55      0.00
  -15    9   10     14.81      0.00
  -14    9   10     -3.68      0.00
  -13    9   10     12.52      0.00
  -12    9   10      8.08      0.00
  -11    9   10    -31.35      0.00
  -10    9   10      7.75      0.00
   -9    9   10    -44.39      0.00
   -8    9   10      4.36      0.00
   -7    9   10     -8.35      0.00
   -6    9   10     -5.17      0.00
   -5    9   10     39.97      0.00
   -4    9   10     -6.63      0.00
   -3    9   10    -20.87      0.00
   -2    9   10     -2.30      0.00
   -1    9   10    -46.76      0.00
    0    9   10     11.85      0.00
    1    9   10     16.63      0.00
    2    9   10     34.74      0.00
    3    9   10     10.39      0.00
    4    9   10      9.20      0.00
    5    9   10    -60.49      0.00
    6    9   10     30.51      0.00
    7    9   10    -19.24      0.00
    8    9   10     15.19      0.00
    9    9   10    -14.23      0.00
   10    9   10     -8.93      0.00
   11    9   10     23.45      0.00
   12    9   10      0.77      0.00
   13    9   10    -17.81      0.00
   14    9   10     -9.54      0.00
   15    9   10     -9.38      0.00
   16    9   10      3.40      0.00
   17    9   10     -8.47      0.00
   18    9   10     16.10      0.00
   19    9   10     -4.23      0.00
   20    9   10     -0.26      0.00
  -20   10   10     -9.74      0.00
  -19   10   10    -12.14      0.00
  -18   10   10     11.98      0.00
  -17   10   10      1.27      0.00
  -16   10   10     -4.86      0.00
  -15   10   10     -1.55      0.00
  -14   10   10      1.40      0.00
  -13   10   10     18.22      0.00
  -12   10   10    -34.56      0.00
  -11   10   10      4.06      0.00
  -10   10   10      8.64      0.00
   -9   10   10    -12.07      0.00
   -8   10   10      3.50      0.00
   -7   10   10     -5.50      0.00
   -6   10   10    -13.01      0.00
   -5   10   10    -22.52      0.00
   -4   10   10     -7.88      0.00
   -3   10   10     28.33      0.00
   -2   10   10     -3.93      0.00
   -1   10   10    -17.28      0.00
    0   10   10     42.80      0.00
    1   10   10     12.14      0.00
    2   10   10    -11.05      0.00
    3   10   10      3.75      0.00
    4   10   10      2.53      0.00
    5   10   10     13.47      0.00
    6   10   10    -42.10      0.00
    7   10   10    -21.33      0.00
    8   10   10      7.76      0.00
    9   10   10    -33.36      0.00
   10   10   10     12.19      0.00
   11   10   10      5.43      0.00
   12   10   10      3.06      0.00
   13   10   10     17.52      0.00
   14   10   10    -10.49      0.00
   15   10   10      0.92      0.00
   16   10   10     -4.19      0.00
   17   10   10      1.83      0.00
   18   10   10      4.91      0.00
   19   10   10      2.31      0.00
  -20   11   10     -3.03      0.00
  -19   11   10     -2.17      0.00
  -18   11   10    -12.17      0.00
  -17   11   10      2.04      0.00
  -16   11   10      0.19      0.00
  -15   11   10     -9.80      0.00
  -14   11   10     -2.33      0.00
  -13   11   10     24.54      0.00
  -12   11   10     11.29      0.00
  -11   11   10     12.45      0.00
  -10   11   10     21.62      0.00
   -9   11   10      0.28      0.00
   -8   11   10      8.31      0.00
   -7   11   10    -27.33      0.00
   -6   11   10     11.68      0.00
   -5   11   10     21.01      0.00
   -4   11   10    -36.68      0.00
   -3   11   10    -12.42      0.00
   -2   11   10     11.85      0.00
   -1   11   10     30.71      0.00
    0   11   10    -37.14      0.00
    1   11   10    -19.89      0.00
    2   11   10     43.17      0.00
    3   11   10     32.68      0.00
    4   11   10      1.77      0.00
    5   11   10      7.99      0.00
    6   11   10     34.43      0.00
    7   11   10     20.26      0.00
    8   11   10    -14.46      0.00
    9   11   10     23.68      0.00
   10   11   10     12.71      0.00
   11   11   10     15.37      0.00
   12   11   10     -6.91      0.00
   13   11   10     -1.85      0.00
   14   11   10      7.96      0.00
   15   11   10      6.95      0.00
   16   11   10     -0.04      0.00
   17   11   10     -3.03      0.00
   18   11   10      9.45      0.00
   19   11   10      7.65      0.00
  -19   12   10      2.76      0.00
  -18   12   10     -2.18      0.00
  -17   12   10      1.46      0.00
  -16   12   10      4.24      0.00
  -15   12   10     -5.20      0.00
  -14   12   10      0.62      0.00
  -13   12   10     -6.05      0.00
  -12   12   10     11.60      0.00
  -11   12   10     12.07      0.00
  -10   12   10     39.97      0.00
   -9   12   10     -6.15      0.00
   -8   12   10     10.42      0.00
   -7   12   10    -11.10      0.00
   -6   12   10     20.99      0.00
   -5   12   10      2.12      0.00
   -4   12   10     -9.16      0.00
   -3   12   10      8.42      0.00
   -2   12   10      0.35      0.00
   -1   12   10    -43.33      0.00
    0   12   10     -2.09      0.00
    1   12   10     27.89      0.00
    2   12   10     26.82      0.00
    3   12   10    -48.61      0.00
    4   12   10     22.19      0.00
    5   12   10     40.28      0.00
    6   12   10     42.09      0.00
    7   12   10    -19.48      0.00
    8   12   10     -8.67      0.00
    9   12   10     18.46      0.00
   10   12   10     -3.11      0.00
   11   12   10     24.27      0.00
   12   12   10     -9.63      0.00
   13   12   10     10.28      0.00
   14   12   10     -1.66      0.00
   15   12   10     -5.55      0.00
   16   12   10      0.48      0.00
   17   12   10     -5.09      0.00
   18   12   10      3.33      0.00
   19   12   10     -5.52      0.00
  -19   13   10      5.51      0.00
  -18   13   10     -1.33      0.00
  -17   13   10     -6.94      0.00
  -16   13   10     -0.66      0.00
  -15   13   10     -3.09      0.00
  -14   13   10     10.21      0.00
  -13   13   10     -9.80      0.00
  -12   13   10     -6.98      0.00
  -11   13   10     18.58      0.00
  -10   13   10      7.28      0.00
   -9   13   10     30.80      0.00
   -8   13   10    -30.42      0.00
   -7   13   10      6.64      0.00
   -6   13   10    -10.81      0.00
   -5   13   10      0.96      0.00
   -4   13   10      3.84      0.00
   -3   13   10    -42.27      0.00
   -2   13   10     37.92      0.00
   -1   13   10     15.09      0.00
    0   13   10     -9.69      0.00
    1   13   10    -21.59      0.00
    2   13   10    -72.09      0.00
    3   13   10     -3.20      0.00
    4   13   10    -19.92      0.00
    5   13   10      1.50      0.00
    6   13   10     20.29      0.00
    7   13   10     -6.90      0.00
    8   13   10    -42.03      0.00
    9   13   10      6.62      0.00
   10   13   10     17.11      0.00
   11   13   10      5.61      0.00
   12   13   10      1.83      0.00
   13   13   10    -13.74      0.00
   14   13   10     11.04      0.00
   15   13   10     -0.68      0.00
   16   13   10    -13.75      0.00
   17   13   10     -3.01      0.00
   18   13   10     -8.85      0.00
   19   13   10      5.83      0.00
  -19   14   10      9.59      0.00
  -18   14   10      4.77      0.00
  -17   14   10      1.24      0.00
  -16   14   10    -19.12      0.00
  -15   14   10     -5.92      0.00
  -14   14   10     10.32      0.00
  -13   14   10      5.96      0.00
  -12   14   10     -1.97      0.00
  -11   14   10     19.73      0.00
  -10   14   10      9.91      0.00
   -9   14   10     -3.53      0.00
   -8   14   10      0.56      0.00
   -7   14   10     -7.50      0.00
   -6   14   10     19.31      0.00
   -5   14   10    -21.75      0.00
   -4   14   10    -56.04      0.00
   -3   14   10     21.17      0.00
   -2   14   10    -54.57      0.00
   -1   14   10      8.32      0.00
    0   14   10      2.21      0.00
    1   14   10    -21.49      0.00
    2   14   10     -2.39      0.00
    3   14   10     -5.09      0.00
    4   14   10    -17.26      0.00
    5   14   10     10.74      0.00
    6   14   10     40.30      0.00
    7   14   10    -12.82      0.00
    8   14   10     -8.05      0.00
    9   14   10      4.57      0.00
   10   14   10     -2.80      0.00
   11   14   10     15.65      0.00
   12   14   10      1.95      0.00
   13   14   10      5.20      0.00
   14   14   10      8.30      0.00
   15   14   10      4.27      0.00
   16   14   10     14.18      0.00
   17   14   10     -2.19      0.00
   18   14   10     -1.80      0.00
  -19   15   10      8.09      0.00
  -18   15   10      3.50      0.00
  -17   15   10      6.54      0.00
  -16   15   10      2.43      0.00
  -15   15   10     -3.63      0.00
  -14   15   10     -5.69      0.00
  -13   15   10    -10.85      0.00
  -12   15   10      2.78      0.00
  -11   15   10    -10.72      0.00
  -10   15   10     -5.95      0.00
   -9   15   10     -0.82      0.00
   -8   15   10    -13.10      0.00
   -7   15   10     -8.07      0.00
   -6   15   10    -13.80      0.00
   -5   15   10      3.14      0.00
   -4   15   10     13.34      0.00
   -3   15   10    -39.80      0.00
   -2   15   10    -11.13      0.00
   -1   15   10     28.79      0.00
    0   15   10     31.19      0.00
    1   15   10      6.74      0.00
    2   15   10    -12.71      0.00
    3   15   10     -5.89      0.00
    4   15   10     14.37      0.00
    5   15   10    -12.85      0.00
    6   15   10     -4.53      0.00
    7   15   10      6.57      0.00
    8   15   10      6.67      0.00
    9   15   10     -7.38      0.00
   10   15   10      3.34      0.00
   11   15   10      5.17      0.00
   12   15   10      6.18      0.00
   13   15   10     -5.43      0.00
   14   15   10     -4.97      0.00
   15   15   10     -1.07      0.00
   16   15   10      2.09      0.00
   17   15   10     -4.23      0.00
   18   15   10     -3.65      0.00
  -18   16   10      3.38      0.00
  -17   16   10     -1.31      0.00
  -16   16   10     13.19      0.00
  -15   16   10     -0.20      0.00
  -14   16   10     17.00      0.00
  -13   16   10     -7.41      0.00
  -12   16   10     -0.40      0.00
  -11   16   10     19.40      0.00
  -10   16   10     -4.63      0.00
   -9   16   10    -12.59      0.00
   -8   16   10      3.94      0.00
   -7   16   10     22.80      0.00
   -6   16   10      8.51      0.00
   -5   16   10      4.41      0.00
   -4   16   10      4.75      0.00
   -3   16   10    -14.48      0.00
   -2   16   10      5.35      0.00
   -1   16   10     -6.73      0.00
    0   16   10    -40.52      0.00
    1   16   10     -2.00      0.00
    2   16   10      3.26      0.00
    3   16   10     21.54      0.00
    4   16   10      9.66      0.00
    5   16   10    -25.63      0.00
    6   16   10     -5.44      0.00
    7   16   10      9.04      0.00
    8   16   10    -18.72      0.00
    9   16   10     -6.54      0.00
   10   16   10      4.46      0.00
   11   16   10    -13.48      0.00
   12   16   10      7.93      0.00
   13   16   10      5.03      0.00
   14   16   10      9.05      0.00
   15   16   10     -3.61      0.00
   16   16   10     -6.10      0.00
   17   16   10      2.57      0.00
   18   16   10      1.57      0.00
  -18   17   10    -10.22      0.00
  -17   17   10      0.23      0.00
  -16   17   10      2.92      0.00
  -15   17   10      1.93      0.00
  -14   17   10      8.99      0.00
  -13   17   10     -9.77      0.00
  -12   17   10    -12.85      0.00
  -11   17   10     20.54      0.00
  -10   17   10      1.46      0.00
   -9   17   10    -18.20      0.00
   -8   17   10     -6.70      0.00
   -7   17   10      5.69      0.00
   -6   17   10      0.65      0.00
   -5   17   10    -11.03      0.00
   -4   17   10      6.38      0.00
   -3   17   10      8.56      0.00
   -2   17   10    -13.19      0.00
   -1   17   10     -2.15      0.00
    0   17   10     -6.78      0.00
    1   17   10     17.57      0.00
    2   17   10    -15.67      0.00
    3   17   10      7.72      0.00
    4   17   10     29.49      0.00
    5   17   10    -17.21      0.00
    6   17   10     -5.67      0.00
    7   17   10      5.54      0.00
    8   17   10     -7.37      0.00
    9   17   10      0.38      0.00
   10   17   10      2.39      0.00
   11   17   10    -16.53      0.00
   12   17   10     -7.07      0.00
   13   17   10      0.77      0.00
   14   17   10     -0.38      0.00
   15   17   10      3.47      0.00
   16   17   10      7.62      0.00
   17   17   10      4.11      0.00
  -17   18   10      3.91      0.00
  -16   18   10     -3.42      0.00
  -15   18   10     -6.94      0.00
  -14   18   10      5.81      0.00
  -13   18   10     -1.56      0.00
  -12   18   10     -1.77      0.00
  -11   18   10     -4.42      0.00
  -10   18   10    -23.63      0.00
   -9   18   10     -7.93      0.00
   -8   18   10    -12.42      0.00
   -7   18   10      6.73      0.00
   -6   18   10     -3.50      0.00
   -5   18   10      5.52      0.00
   -4   18   10      3.12      0.00
   -3   18   10      4.91      0.00
   -2   18   10     10.34      0.00
   -1   18   10    -12.62      0.00
    0   18   10     -3.85      0.00
    1   18   10      1.11      0.00
    2   18   10    -14.70      0.00
    3   18   10    -13.81      0.00
    4   18   10     17.59      0.00
    5   18   10      5.04      0.00
    6   18   10    -45.17      0.00
    7   18   10     16.29      0.00
    8   18   10      3.64      0.00
    9   18   10     15.84      0.00
   10   18   10      4.12      0.00
   11   18   10     -4.53      0.00
   12   18   10      7.69      0.00
   13   18   10      1.27      0.00
   14   18   10      0.01      0.00
   15   18   10     -6.29      0.00
   16   18   10     -5.03      0.00
   17   18   10      1.84      0.00
  -17   19   10     -5.45      0.00
  -16   19   10      6.58      0.00
  -15   19   10      7.32      0.00
  -14   19   10     -2.59      0.00
  -13   19   10     -9.91      0.00
  -12   19   10     18.06      0.00
  -11   19   10     10.65      0.00
  -10   19   10      5.65      0.00
   -9   19   10    -13.77      0.00
   -8   19   10     -1.89      0.00
   -7   19   10     -8.21      0.00
   -6   19   10     12.10      0.00
   -5   19   10    -24.25      0.00
   -4   19   10     13.73      0.00
   -3   19   10     14.37      0.00
   -2   19   10    -15.88      0.00
   -1   19   10      0.39      0.00
    0   19   10     42.00      0.00
    1   19   10      3.85      0.00
    2   19   10    -18.53      0.00
    3   19   10     15.38      0.00
    4   19   10     -2.53      0.00
    5   19   10     -3.51      0.00
    6   19   10     10.29      0.00
    7   19   10      8.52      0.00
    8   19   10     16.72      0.00
    9   19   10    -10.39      0.00
   10   19   10     -6.66      0.00
   11   19   10      5.61      0.00
   12   19   10      4.31      0.00
   13   19   10      4.64      0.00
   14   19   10     -7.16      0.00
   15   19   10      3.85      0.00
   16   19   10     -3.44      0.00
  -17   20   10      3.67      0.00
  -16   20   10    -12.22      0.00
  -15   20   10      0.25      0.00
  -14   20   10      6.80      0.00
  -13   20   10     -5.09      0.00
  -12   20   10      5.57      0.00
  -11   20   10      1.67      0.00
  -10   20   10     -2.85      0.00
   -9   20   10     -5.58      0.00
   -8   20   10    -14.05      0.00
   -7   20   10      9.19      0.00
   -6   20   10      7.81      0.00
   -5   20   10     -9.87      0.00
   -4   20   10      3.75      0.00
   -3   20   10    -26.76      0.00
   -2   20   10     -0.39      0.00
   -1   20   10     -1.85      0.00
    0   20   10     49.13      0.00
    1   20   10      7.40      0.00
    2   20   10     10.22      0.00
    3   20   10     19.31      0.00
    4   20   10    -19.23      0.00
    5   20   10      3.51      0.00
    6   20   10     16.23      0.00
    7   20   10    -43.85      0.00
    8   20   10     14.46      0.00
    9   20   10     12.94      0.00
   10   20   10    -13.12      0.00
   11   20   10      3.25      0.00
   12   20   10      7.82      0.00
   13   20   10      4.44      0.00
   14   20   10     -4.89      0.00
   15   20   10     -6.11      0.00
   16   20   10      0.22      0.00
  -16   21   10     -4.36      0.00
  -15   21   10      5.70      0.00
  -14   21   10     -3.22      0.00
  -13   21   10      3.85      0.00
  -12   21   10     -7.05      0.00
  -11   21   10      5.67      0.00
  -10   21   10     -3.61      0.00
   -9   21   10     20.13      0.00
   -8   21   10     -0.91      0.00
   -7   21   10     -9.87      0.00
   -6   21   10     -6.94      0.00
   -5   21   10     -2.68      0.00
   -4   21   10      8.57      0.00
   -3   21   10     12.78      0.00
   -2   21   10     -3.03      0.00
   -1   21   10     20.08      0.00
    0   21   10      0.75      0.00
    1   21   10      7.91      0.00
    2   21   10     18.06      0.00
    3   21   10    -14.73      0.00
    4   21   10     15.12      0.00
    5   21   10     -6.43      0.00
    6   21   10    -17.66      0.00
    7   21   10    -14.30      0.00
    8   21   10      2.47      0.00
    9   21   10      0.94      0.00
   10   21   10     -4.25      0.00
   11   21   10     -3.18      0.00
   12   21   10      4.60      0.00
   13   21   10      7.94      0.00
   14   21   10      3.32      0.00
   15   21   10      5.93      0.00
  -15   22   10     -5.13      0.00
  -14   22   10    -12.99      0.00
  -13   22   10     -1.68      0.00
  -12   22   10     14.08      0.00
  -11   22   10      5.17      0.00
  -10   22   10     -0.69      0.00
   -9   22   10      0.35      0.00
   -8   22   10      2.38      0.00
   -7   22   10     -9.05      0.00
   -6   22   10      1.56      0.00
   -5   22   10     10.15      0.00
   -4   22   10    -27.00      0.00
   -3   22   10    -31.13      0.00
   -2   22   10     -8.86      0.00
   -1   22   10      0.62      0.00
    0   22   10      7.59      0.00
    1   22   10     -3.15      0.00
    2   22   10    -25.25      0.00
    3   22   10     26.66      0.00
    4   22   10    -11.67      0.00
    5   22   10     -3.63      0.00
    6   22   10     28.45      0.00
    7   22   10    -10.51      0.00
    8   22   10     -7.51      0.00
    9   22   10      6.00      0.00
   10   22   10      0.38      0.00
   11   22   10    -10.95      0.00
   12   22   10     -9.09      0.00
   13   22   10     -4.99      0.00
   14   22   10     -2.75      0.00
   15   22   10     -1.21      0.00
  -15   23   10     -7.62      0.00
  -14   23   10      1.24      0.00
  -13   23   10     -0.73      0.00
  -12   23   10     -9.05      0.00
  -11   23   10     12.17      0.00
  -10   23   10     -1.73      0.00
   -9   23   10    -12.46      0.00
   -8   23   10     10.18      0.00
   -7   23   10     -3.00      0.00
   -6   23   10     -7.31      0.00
   -5   23   10     -5.36      0.00
   -4   23   10    -12.97      0.00
   -3   23   10      7.49      0.00
   -2   23   10    -13.59      0.00
   -1   23   10      9.76      0.00
    0   23   10     18.38      0.00
    1   23   10     24.30      0.00
    2   23   10     11.52      0.00
    3   23   10     -3.09      0.00
    4   23   10     34.21      0.00
    5   23   10     14.96      0.00
    6   23   10    -13.76      0.00
    7   23   10     21.11      0.00
    8   23   10     -1.81      0.00
    9   23   10     -4.00      0.00
   10   23   10      3.13      0.00
   11   23   10     13.28      0.00
   12   23   10     -7.25      0.00
   13   23   10     -2.49      0.00
   14   23   10     -2.16      0.00
  -14   24   10     -6.01      0.00
  -13   24   10      0.77      0.00
  -12   24   10      0.94      0.00
  -11   24   10     13.88      0.00
  -10   24   10     -1.49      0.00
   -9   24   10     -4.95      0.00
   -8   24   10      3.92      0.00
   -7   24   10      2.02      0.00
   -6   24   10     -7.05      0.00
   -5   24   10     12.95      0.00
   -4   24   10      4.47      0.00
   -3   24   10      5.10      0.00
   -2   24   10     -8.11      0.00
   -1   24   10     18.32      0.00
    0   24   10     -3.45      0.00
    1   24   10    -11.59      0.00
    2   24   10    -14.82      0.00
    3   24   10     -0.15      0.00
    4   24   10      2.57      0.00
    5   24   10     13.53      0.00
    6   24   10     -0.98      0.00
    7   24   10     13.02      0.00
    8   24   10      1.16      0.00
    9   24   10    -19.91      0.00
   10   24   10     10.06      0.00
   11   24   10     -0.56      0.00
   12   24   10    -11.03      0.00
   13   24   10     -2.58      0.00
   14   24   10     -8.29      0.00
  -13   25   10     -8.65      0.00
  -12   25   10     12.50      0.00
  -11   25   10     -3.97      0.00
  -10   25   10      7.71      0.00
   -9   25   10      5.56      0.00
   -8   25   10     12.46      0.00
   -7   25   10     11.43      0.00
   -6   25   10    -12.15      0.00
   -5   25   10      3.59      0.00
   -4   25   10     -9.64      0.00
   -3   25   10     -1.20      0.00
   -2   25   10      6.49      0.00
   -1   25   10    -12.72      0.00
    0   25   10      2.51      0.00
    1   25   10    -10.55      0.00
    2   25   10     -4.50      0.00
    3   25   10      1.00      0.00
    4   25   10     11.47      0.00
    5   25   10      5.44      0.00
    6   25   10     -5.07      0.00
    7   25   10     22.43      0.00
    8   25   10     12.60      0.00
    9   25   10     -7.52      0.00
   10   25   10     -6.73      0.00
   11   25   10     -3.58      0.00
   12   25   10     -3.17      0.00
   13   25   10     -3.47      0.00
  -13   26   10     -6.54      0.00
  -12   26   10      4.11      0.00
  -11   26   10    -15.26      0.00
  -10   26   10     -7.39      0.00
   -9   26   10     -8.56      0.00
   -8   26   10      9.52      0.00
   -7   26   10     -8.14      0.00
   -6   26   10     -0.03      0.00
   -5   26   10     14.64      0.00
   -4   26   10     25.66      0.00
   -3   26   10      4.69      0.00
   -2   26   10     -1.89      0.00
   -1   26   10    -11.41      0.00
    0   26   10     -7.55      0.00
    1   26   10     -8.95      0.00
    2   26   10      7.09      0.00
    3   26   10     -0.41      0.00
    4   26   10      1.06      0.00
    5   26   10     -0.43      0.00
    6   26   10      2.75      0.00
    7   26   10     -3.93      0.00
    8   26   10     11.88      0.00
    9   26   10      4.00      0.00
   10   26   10     -1.68      0.00
   11   26   10     -0.36      0.00
   12   26   10     -2.46      0.00
  -12   27   10      8.19      0.00
  -11   27   10     -2.18      0.00
  -10   27   10    -10.94      0.00
   -9   27   10      3.34      0.00
   -8   27   10      5.76      0.00
   -7   27   10     -0.78      0.00
   -6   27   10      6.04      0.00
   -5   27   10     -1.76      0.00
   -4   27   10      1.94      0.00
   -3   27   10     -4.87      0.00
   -2   27   10      9.56      0.00
   -1   27   10     -4.45      0.00
    0   27   10    -22.35      0.00
    1   27   10    -22.55      0.00
    2   27   10      3.55      0.00
    3   27   10    -15.97      0.00
    4   27   10    -21.01      0.00
    5   27   10      6.43      0.00
    6   27   10      2.46      0.00
    7   27   10      2.46      0.00
    8   27   10     18.53      0.00
    9   27   10     -2.02      0.00
   10   27   10      2.15      0.00
   11   27   10      4.94      0.00
  -11   28   10     -2.20      0.00
  -10   28   10     -5.15      0.00
   -9   28   10      1.46      0.00
   -8   28   10      2.90      0.00
   -7   28   10     -8.78      0.00
   -6   28   10     -9.84      0.00
   -5   28   10     19.07      0.00
   -4   28   10      3.97      0.00
   -3   28   10     -5.62      0.00
   -2   28   10    -13.28      0.00
   -1   28   10     -0.49      0.00
    0   28   10     -2.02      0.00
    1   28   10      1.78      0.00
    2   28   10    -11.27      0.00
    3   28   10     -3.52      0.00
    4   28   10      4.07      0.00
    5   28   10    -11.10      0.00
    6   28   10     -0.88      0.00
    7   28   10      8.43      0.00
   10   28   10      1.12      0.00
   -9   29   10      3.01      0.00
   -8   29   10     -0.58      0.00
   -7   29   10      2.81      0.00
   -6   29   10     11.15      0.00
   -5   29   10      8.22      0.00
   -4   29   10      3.99      0.00
   -3   29   10    -13.30      0.00
   -2   29   10    -11.68      0.00
   -1   29   10     13.60      0.00
    0   29   10      9.97      0.00
    1   29   10     -0.04      0.00
    2   29   10     -6.32      0.00
    3   29   10      7.23      0.00
    4   29   10    -14.06      0.00
    5   29   10     -4.37      0.00
    6   29   10     12.31      0.00
    7   29   10     -3.48      0.00
   -8   30   10      5.99      0.00
   -7   30   10      2.98      0.00
   -6   30   10      6.33      0.00
   -5   30   10     -8.86      0.00
   -4   30   10     11.33      0.00
   -3   30   10      0.46      0.00
   -2   30   10     -3.25      0.00
   -1   30   10     -5.20      0.00
    0   30   10      6.08      0.00
    1   30   10     -4.93      0.00
    2   30   10      6.16      0.00
    3   30   10     -5.17      0.00
    4   30   10     -1.44      0.00
    5   30   10    -12.13      0.00
    6   30   10      2.86      0.00
    7   30   10     -5.08      0.00
   -6   31   10      4.56      0.00
   -5   31   10      9.31      0.00
   -4   31   10     -3.83      0.00
   -3   31   10     -3.50      0.00
   -2   31   10      3.01      0.00
   -1   31   10      1.36      0.00
    0   31   10    -15.28      0.00
    1   31   10      5.86      0.00
    2   31   10      5.57      0.00
    3   31   10      6.92      0.00
    4   31   10      7.03      0.00
    5   31   10    -10.85      0.00
    6   31   10     -3.00      0.00
   -4   32   10     -0.59      0.00
   -3   32   10      6.99      0.00
   -2   32   10     -0.61      0.00
   -1   32   10     10.68      0.00
    0   32   10     -0.74      0.00
    1   32   10      3.59      0.00
    2   32   10     -7.24      0.00
    3   32   10     12.19      0.00
  -20    1   11     -4.45      0.00
  -19    1   11      7.26      0.00
  -18    1   11      8.47      0.00
  -17    1   11      0.10      0.00
  -16    1   11     12.47      0.00
  -15    1   11      1.97      0.00
  -14    1   11     21.42      0.00
  -13    1   11    -12.79      0.00
  -12    1   11    -31.95      0.00
  -11    1   11     -4.98      0.00
  -10    1   11    -22.70      0.00
   -9    1   11      6.10      0.00
   -8    1   11      7.58      0.00
   -7    1   11     -3.24      0.00
   -6    1   11     10.65      0.00
   -5    1   11     -0.90      0.00
   -4    1   11    -24.97      0.00
   -3    1   11     39.29      0.00
   -2    1   11    -30.08      0.00
   -1    1   11     20.91      0.00
    0    1   11    -16.78      0.00
    1    1   11    -25.00      0.00
    2    1   11     47.07      0.00
    3    1   11     25.34      0.00
    4    1   11    -34.55      0.00
    5    1   11     29.26      0.00
    6    1   11    -31.65      0.00
    7    1   11    -35.59      0.00
    8    1   11     20.82      0.00
    9    1   11     39.15      0.00
   10    1   11     25.88      0.00
   11    1   11     10.19      0.00
   12    1   11      1.70      0.00
   13    1   11     -3.56      0.00
   14    1   11     -3.34      0.00
   15    1   11     -6.48      0.00
   16    1   11     -3.59      0.00
   17    1   11      5.67      0.00
   18    1   11      1.28      0.00
   19    1   11      2.49      0.00
   20    1   11     -8.10      0.00
  -20    2   11      3.38      0.00
  -19    2   11      2.66      0.00
  -18    2   11      2.50      0.00
  -17    2   11    -14.42      0.00
  -16    2   11      6.13      0.00
  -15    2   11     10.80      0.00
  -14    2   11      2.00      0.00
  -13    2   11     -6.18      0.00
  -12    2   11     11.41      0.00
  -11    2   11    -13.16      0.00
  -10    2   11      4.72      0.00
   -9    2   11    -50.72      0.00
   -8    2   11      7.72      0.00
   -7    2   11      0.79      0.00
   -6    2   11     11.68      0.00
   -5    2   11    -67.56      0.00
   -4    2   11     -2.55      0.00
   -3    2   11      6.43      0.00
   -2    2   11    -49.87      0.00
   -1    2   11     40.99      0.00
    0    2   11     14.74      0.00
    1    2   11     -0.19      0.00
    2    2   11     95.14      0.00
    3    2   11     -3.82      0.00
    4    2   11      6.81      0.00
    5    2   11     -4.42      0.00
    6    2   11    -39.55      0.00
    7    2   11     15.13      0.00
    8    2   11      1.09      0.00
    9    2   11    -21.49      0.00
   10    2   11      7.83      0.00
   11    2   11     -8.74      0.00
   12    2   11     -5.54      0.00
   13    2   11      1.84      0.00
   14    2   11    -15.24      0.00
   15    2   11     -2.22      0.00
   16    2   11    -11.97      0.00
   17    2   11     -1.66      0.00
   18    2   11     -5.21      0.00
   19    2   11     -0.29      0.00
   20    2   11     13.17      0.00
  -20    3   11     -4.28      0.00
  -19    3   11      3.10      0.00
  -18    3   11     12.74      0.00
  -17    3   11      1.15      0.00
  -16    3   11      3.34      0.00
  -15    3   11     -9.29      0.00
  -14    3   11    -16.80      0.00
  -13    3   11    -22.57      0.00
  -12    3   11      1.36      0.00
  -11    3   11     17.33      0.00
  -10    3   11    -18.38      0.00
   -9    3   11    -36.77      0.00
   -8    3   11    -23.56      0.00
   -7    3   11     14.35      0.00
   -6    3   11     67.31      0.00
   -5    3   11    -29.91      0.00
   -4    3   11      6.81      0.00
   -3    3   11    -48.44      0.00
   -2    3   11    -55.69      0.00
   -1    3   11     -0.63      0.00
    0    3   11     49.49      0.00
    1    3   11     19.64      0.00
    2    3   11     18.45      0.00
    3    3   11    -80.94      0.00
    4    3   11     30.56      0.00
    5    3   11     -6.71      0.00
    6    3   11     20.15      0.00
    7    3   11     24.55      0.00
    8    3   11    -48.15      0.00
    9    3   11    -14.13      0.00
   10    3   11     -1.15      0.00
   11    3   11     -2.34      0.00
   12    3   11      5.18      0.00
   13    3   11     -1.70      0.00
   14    3   11      6.47      0.00
   15    3   11    -20.86      0.00
   16    3   11    -23.35      0.00
   17    3   11      4.91      0.00
   18    3   11     10.43      0.00
   19    3   11      3.35      0.00
   20    3   11      0.63      0.00
  -20    4   11     -4.63      0.00
  -19    4   11      2.96      0.00
  -18    4   11     10.76      0.00
  -17    4   11     -3.39      0.00
  -16    4   11     -6.63      0.00
  -15    4   11     13.55      0.00
  -14    4   11    -20.40      0.00
  -13    4   11      7.68      0.00
  -12    4   11    -20.40      0.00
  -11    4   11     20.34      0.00
  -10    4   11      6.33      0.00
   -9    4   11    -33.27      0.00
   -8    4   11    -21.67      0.00
   -7    4   11      4.10      0.00
   -6    4   11     -6.15      0.00
   -5    4   11    -30.15      0.00
   -4    4   11     -3.35      0.00
   -3    4   11    -24.09      0.00
   -2    4   11     -1.35      0.00
   -1    4   11     20.11      0.00
    0    4   11      8.94      0.00
    1    4   11    -57.96      0.00
    2    4   11    -48.67      0.00
    3    4   11     60.15      0.00
    4    4   11     58.89      0.00
    5    4   11      2.03      0.00
    6    4   11     -5.04      0.00
    7    4   11      9.32      0.00
    8    4   11      1.57      0.00
    9    4   11      6.71      0.00
   10    4   11     -3.87      0.00
   11    4   11      6.30      0.00
   12    4   11      2.84      0.00
   13    4   11    -11.34      0.00
   14    4   11     -9.67      0.00
   15    4   11      2.74      0.00
   16    4   11     10.13      0.00
   17    4   11     -5.16      0.00
   18    4   11     -3.80      0.00
   19    4   11      1.33      0.00
   20    4   11     -4.18      0.00
  -20    5   11     -3.25      0.00
  -19    5   11     -8.18      0.00
  -18    5   11     14.60      0.00
  -17    5   11      8.68      0.00
  -16    5   11     -1.95      0.00
  -15    5   11      0.51      0.00
  -14    5   11    -14.94      0.00
  -13    5   11      4.16      0.00
  -12    5   11     -0.33      0.00
  -11    5   11     -0.16      0.00
  -10    5   11     29.59      0.00
   -9    5   11     38.15      0.00
   -8    5   11     -2.53      0.00
   -7    5   11     -3.88      0.00
   -6    5   11    -19.91      0.00
   -5    5   11      6.38      0.00
   -4    5   11     52.01      0.00
   -3    5   11     20.50      0.00
   -2    5   11      4.43      0.00
   -1    5   11      5.69      0.00
    0    5   11     -4.85      0.00
    1    5   11     78.14      0.00
    2    5   11      9.13      0.00
    3    5   11     12.89      0.00
    4    5   11    -26.52      0.00
    5    5   11     15.07      0.00
    6    5   11     -6.65      0.00
    7    5   11     -2.61      0.00
    8    5   11     47.31      0.00
    9    5   11    -10.21      0.00
   10    5   11    -12.08      0.00
   11    5   11     17.65      0.00
   12    5   11     -0.15      0.00
   13    5   11     20.60      0.00
   14    5   11    -21.54      0.00
   15    5   11      7.77      0.00
   16    5   11      9.19      0.00
   17    5   11     -7.13      0.00
   18    5   11    -12.32      0.00
   19    5   11     -2.94      0.00
   20    5   11      3.89      0.00
  -20    6   11      3.57      0.00
  -19    6   11     -1.42      0.00
  -18    6   11      3.44      0.00
  -17    6   11     -3.06      0.00
  -16    6   11     -8.00      0.00
  -15    6   11      0.22      0.00
  -14    6   11      4.80      0.00
  -13    6   11     10.17      0.00
  -12    6   11     32.46      0.00
  -11    6   11     -7.85      0.00
  -10    6   11      8.66      0.00
   -9    6   11    -33.07      0.00
   -8    6   11    -32.19      0.00
   -7    6   11     48.02      0.00
   -6    6   11      6.77      0.00
   -5    6   11     54.73      0.00
   -4    6   11    -16.44      0.00
   -3    6   11    -52.29      0.00
   -2    6   11    -18.83      0.00
   -1    6   11      5.87      0.00
    0    6   11      1.39      0.00
    1    6   11     26.34      0.00
    2    6   11    -39.98      0.00
    3    6   11     -6.23      0.00
    4    6   11     14.04      0.00
    5    6   11    -33.39      0.00
    6    6   11     38.67      0.00
    7    6   11    -30.19      0.00
    8    6   11      0.59      0.00
    9    6   11      8.12      0.00
   10    6   11    -22.24      0.00
   11    6   11     18.21      0.00
   12    6   11     36.55      0.00
   13    6   11     -0.58      0.00
   14    6   11     -5.45      0.00
   15    6   11    -28.75      0.00
   16    6   11    -13.87      0.00
   17    6   11      1.62      0.00
   18    6   11      2.42      0.00
   19    6   11     -0.42      0.00
  -20    7   11     13.89      0.00
  -19    7   11      4.20      0.00
  -18    7   11     -1.68      0.00
  -17    7   11     -4.47      0.00
  -16    7   11     -1.62      0.00
  -15    7   11     11.27      0.00
  -14    7   11     11.20      0.00
  -13    7   11      4.53      0.00
  -12    7   11     10.50      0.00
  -11    7   11     15.22      0.00
  -10    7   11      2.20      0.00
   -9    7   11     14.50      0.00
   -8    7   11     -8.21      0.00
   -7    7   11    -30.82      0.00
   -6    7   11    -28.29      0.00
   -5    7   11    -30.02      0.00
   -4    7   11    -28.14      0.00
   -3    7   11     22.46      0.00
   -2    7   11     10.95      0.00
   -1    7   11    -14.22      0.00
    0    7   11    -10.26      0.00
    1    7   11    -79.50      0.00
    2    7   11     21.96      0.00
    3    7   11     21.45      0.00
    4    7   11    -41.28      0.00
    5    7   11     -0.59      0.00
    6    7   11     -4.56      0.00
    7    7   11    -52.45      0.00
    8    7   11     13.43      0.00
    9    7   11     -2.39      0.00
   10    7   11     15.21      0.00
   11    7   11    -16.99      0.00
   12    7   11      3.07      0.00
   13    7   11      9.56      0.00
   14    7   11     -1.86      0.00
   15    7   11      7.71      0.00
   16    7   11     -8.88      0.00
   17    7   11    -19.82      0.00
   18    7   11     -0.06      0.00
   19    7   11     -8.29      0.00
  -20    8   11    -15.26      0.00
  -19    8   11     17.72      0.00
  -18    8   11     -6.09      0.00
  -17    8   11     -4.48      0.00
  -16    8   11    -19.69      0.00
  -15    8   11    -12.10      0.00
  -14    8   11     10.09      0.00
  -13    8   11    -26.01      0.00
  -12    8   11     13.45      0.00
  -11    8   11     -3.54      0.00
  -10    8   11    -14.89      0.00
   -9    8   11     66.43      0.00
   -8    8   11    -20.18      0.00
   -7    8   11      3.09      0.00
   -6    8   11     -9.86      0.00
   -5    8   11     -9.91      0.00
   -4    8   11    -10.98      0.00
   -3    8   11      0.42      0.00
   -2    8   11     23.86      0.00
   -1    8   11      7.56      0.00
    0    8   11     16.02      0.00
    1    8   11    -10.16      0.00
    2    8   11    -24.21      0.00
    3    8   11      9.63      0.00
    4    8   11      3.81      0.00
    5    8   11     19.08      0.00
    6    8   11    -54.89      0.00
    7    8   11     46.28      0.00
    8    8   11     14.58      0.00
    9    8   11      3.79      0.00
   10    8   11      2.58      0.00
   11    8   11     -8.15      0.00
   12    8   11    -13.83      0.00
   13    8   11    -14.06      0.00
   14    8   11      6.45      0.00
   15    8   11      7.46      0.00
   16    8   11     -0.50      0.00
   17    8   11     -7.61      0.00
   18    8   11     -4.93      0.00
   19    8   11      6.73      0.00
  -20    9   11     -3.82      0.00
  -19    9   11     -6.16      0.00
  -18    9   11    -10.77      0.00
  -17    9   11     13.55      0.00
  -16    9   11      0.39      0.00
  -15    9   11      3.29      0.00
  -14    9   11      7.76      0.00
  -13    9   11      1.06      0.00
  -12    9   11     17.16      0.00
  -11    9   11    -28.62      0.00
  -10    9   11     -3.70      0.00
   -9    9   11    -12.50      0.00
   -8    9   11      8.52      0.00
   -7    9   11     14.60      0.00
   -6    9   11      9.71      0.00
   -5    9   11     12.83      0.00
   -4    9   11     -5.72      0.00
   -3    9   11    -27.16      0.00
   -2    9   11     30.48      0.00
   -1    9   11     33.54      0.00
    0    9   11    -40.10      0.00
    1    9   11     17.75      0.00
    2    9   11    -19.80      0.00
    3    9   11     32.48      0.00
    4    9   11     26.88      0.00
    5    9   11    -27.56      0.00
    6    9   11    -11.69      0.00
    7    9   11     23.76      0.00
    8    9   11    -19.03      0.00
    9    9   11     25.22      0.00
   10    9   11      1.43      0.00
   11    9   11     -4.38      0.00
   12    9   11      6.01      0.00
   13    9   11    -21.70      0.00
   14    9   11      5.00      0.00
   15    9   11      9.73      0.00
   16    9   11      7.79      0.00
   17    9   11      8.05      0.00
   18    9   11      7.65      0.00
   19    9   11      9.53      0.00
  -19   10   11     -1.70      0.00
  -18   10   11     -6.48      0.00
  -17   10   11     -3.52      0.00
  -16   10   11      5.57      0.00
  -15   10   11      3.16      0.00
  -14   10   11     33.92      0.00
  -13   10   11    -19.59      0.00
  -12   10   11    -16.72      0.00
  -11   10   11    -20.13      0.00
  -10   10   11    -16.39      0.00
   -9   10   11      6.40      0.00
   -8   10   11      0.31      0.00
   -7   10   11     14.95      0.00
   -6   10   11     -1.06      0.00
   -5   10   11    -28.98      0.00
   -4   10   11     57.82      0.00
   -3   10   11    -58.69      0.00
   -2   10   11     47.05      0.00
   -1   10   11     35.94      0.00
    0   10   11     13.57      0.00
    1   10   11     30.23      0.00
    2   10   11     29.89      0.00
    3   10   11      0.63      0.00
    4   10   11      2.88      0.00
    5   10   11    -17.90      0.00
    6   10   11    -10.51      0.00
    7   10   11     -0.86      0.00
    8   10   11     26.80      0.00
    9   10   11     -6.92      0.00
   10   10   11     25.14      0.00
   11   10   11    -24.23      0.00
   12   10   11    -23.42      0.00
   13   10   11     -7.46      0.00
   14   10   11     -4.66      0.00
   15   10   11     -4.38      0.00
   16   10   11      3.48      0.00
   17   10   11     -1.11      0.00
   18   10   11      9.44      0.00
   19   10   11      0.73      0.00
  -19   11   11      5.83      0.00
  -18   11   11     -0.74      0.00
  -17   11   11      9.32      0.00
  -16   11   11    -10.35      0.00
  -15   11   11     -8.98      0.00
  -14   11   11    -27.36      0.00
  -13   11   11      5.38      0.00
  -12   11   11     -1.94      0.00
  -11   11   11    -32.75      0.00
  -10   11   11     -8.68      0.00
   -9   11   11     -4.90      0.00
   -8   11   11     -4.38      0.00
   -7   11   11     15.63      0.00
   -6   11   11    -22.57      0.00
   -5   11   11     28.58      0.00
   -4   11   11     52.28      0.00
   -3   11   11     13.68      0.00
   -2   11   11      0.86      0.00
   -1   11   11      8.06      0.00
    0   11   11     11.79      0.00
    1   11   11     -8.22      0.00
    2   11   11      7.71      0.00
    3   11   11    -23.56      0.00
    4   11   11    -26.41      0.00
    5   11   11     -5.96      0.00
    6   11   11    -17.31      0.00
    7   11   11      1.16      0.00
    8   11   11      5.06      0.00
    9   11   11    -15.51      0.00
   10   11   11    -13.90      0.00
   11   11   11      3.60      0.00
   12   11   11      3.92      0.00
   13   11   11      6.35      0.00
   14   11   11      9.27      0.00
   15   11   11     -3.80      0.00
   16   11   11     -2.86      0.00
   17   11   11     -8.42      0.00
   18   11   11     -1.21      0.00
  -19   12   11     -2.60      0.00
  -18   12   11     -1.66      0.00
  -17   12   11      3.70      0.00
  -16   12   11      4.70      0.00
  -15   12   11     16.93      0.00
  -14   12   11     -4.88      0.00
  -13   12   11     17.24      0.00
  -12   12   11     14.49      0.00
  -11   12   11     -6.43      0.00
  -10   12   11      3.98      0.00
   -9   12   11    -18.04      0.00
   -8   12   11      7.31      0.00
   -7   12   11      0.32      0.00
   -6   12   11      6.08      0.00
   -5   12   11    -19.86      0.00
   -4   12   11      5.31      0.00
   -3   12   11    -14.40      0.00
   -2   12   11     -2.18      0.00
   -1   12   11     47.75      0.00
    0   12   11    -22.56      0.00
    1   12   11     10.70      0.00
    2   12   11     -2.96      0.00
    3   12   11    -41.82      0.00
    4   12   11     10.85      0.00
    5   12   11    -17.04      0.00
    6   12   11     -6.09      0.00
    7   12   11     22.54      0.00
    8   12   11      5.59      0.00
    9   12   11     13.09      0.00
   10   12   11     -6.64      0.00
   11   12   11    -18.23      0.00
   12   12   11     -6.83      0.00
   13   12   11      3.64      0.00
   14   12   11     -6.82      0.00
   15   12   11     20.28      0.00
   16   12   11     -5.90      0.00
   17   12   11      8.29      0.00
   18   12   11     -0.80      0.00
  -19   13   11    -12.38      0.00
  -18   13   11     -5.15      0.00
  -17   13   11     -3.48      0.00
  -16   13   11     12.05      0.00
  -15   13   11     19.28      0.00
  -14   13   11      9.89      0.00
  -13   13   11      2.58      0.00
  -12   13   11     10.92      0.00
  -11   13   11     12.28      0.00
  -10   13   11     22.94      0.00
   -9   13   11      2.35      0.00
   -8   13   11    -10.37      0.00
   -7   13   11     18.20      0.00
   -6   13   11     -2.60      0.00
   -5   13   11     11.34      0.00
   -4   13   11     25.89      0.00
   -3   13   11     -5.03      0.00
   -2   13   11     -1.52      0.00
   -1   13   11     16.50      0.00
    0   13   11     29.36      0.00
    1   13   11    -22.64      0.00
    2   13   11      7.93      0.00
    3   13   11     14.47      0.00
    4   13   11    -46.76      0.00
    5   13   11    -29.14      0.00
    6   13   11     23.04      0.00
    7   13   11     14.73      0.00
    8   13   11      7.78      0.00
    9   13   11     -4.95      0.00
   10   13   11      7.27      0.00
   11   13   11     17.97      0.00
   12   13   11     -6.14      0.00
   13   13   11      4.86      0.00
   14   13   11      4.10      0.00
   15   13   11    -13.96      0.00
   16   13   11     -3.42      0.00
   17   13   11      4.90      0.00
   18   13   11      1.51      0.00
  -18   14   11      8.32      0.00
  -17   14   11     -7.50      0.00
  -16   14   11      2.43      0.00
  -15   14   11     11.43      0.00
  -14   14   11      7.49      0.00
  -13   14   11     16.86      0.00
  -12   14   11     -5.12      0.00
  -11   14   11      3.12      0.00
  -10   14   11      2.40      0.00
   -9   14   11      3.55      0.00
   -8   14   11    -11.92      0.00
   -7   14   11     -2.78      0.00
   -6   14   11      9.38      0.00
   -5   14   11     19.62      0.00
   -4   14   11    -46.35      0.00
   -3   14   11     10.25      0.00
   -2   14   11    -41.58      0.00
   -1   14   11     32.33      0.00
    0   14   11     -2.97      0.00
    1   14   11      7.50      0.00
    2   14   11     20.87      0.00
    3   14   11      2.70      0.00
    4   14   11     -0.01      0.00
    5   14   11     38.69      0.00
    6   14   11     -6.76      0.00
    7   14   11      6.94      0.00
    8   14   11    -13.01      0.00
    9   14   11     13.23      0.00
   10   14   11      7.65      0.00
   11   14   11      5.64      0.00
   12   14   11     14.02      0.00
   13   14   11     -2.38      0.00
   14   14   11     -4.42      0.00
   15   14   11    -10.96      0.00
   16   14   11    -10.06      0.00
   17   14   11      1.29      0.00
   18   14   11      1.39      0.00
  -18   15   11      0.02      0.00
  -17   15   11      2.03      0.00
  -16   15   11      7.24      0.00
  -15   15   11      0.95      0.00
  -14   15   11     17.72      0.00
  -13   15   11     14.66      0.00
  -12   15   11      9.98      0.00
  -11   15   11      0.95      0.00
  -10   15   11     -1.28      0.00
   -9   15   11     -8.99      0.00
   -8   15   11    -15.55      0.00
   -7   15   11    -14.24      0.00
   -6   15   11    -28.67      0.00
   -5   15   11     -9.43      0.00
   -4   15   11    -30.18      0.00
   -3   15   11      2.74      0.00
   -2   15   11      2.36      0.00
   -1   15   11    -43.55      0.00
    0   15   11    -20.85      0.00
    1   15   11     20.75      0.00
    2   15   11     52.82      0.00
    3   15   11     31.05      0.00
    4   15   11     18.02      0.00
    5   15   11     21.61      0.00
    6   15   11     -3.76      0.00
    7   15   11      0.38      0.00
    8   15   11     -0.24      0.00
    9   15   11     -7.83      0.00
   10   15   11    -18.60      0.00
   11   15   11    -10.03      0.00
   12   15   11      6.30      0.00
   13   15   11      1.59      0.00
   14   15   11      0.54      0.00
   15   15   11     -1.37      0.00
   16   15   11      1.36      0.00
   17   15   11      5.08      0.00
  -18   16   11     -1.62      0.00
  -17   16   11      7.36      0.00
  -16   16   11     10.72      0.00
  -15   16   11    -10.72      0.00
  -14   16   11    -16.91      0.00
  -13   16   11      0.97      0.00
  -12   16   11      6.46      0.00
  -11   16   11     -6.81      0.00
  -10   16   11     -7.20      0.00
   -9   16   11     -5.63      0.00
   -8   16   11     -9.77      0.00
   -7   16   11     -9.30      0.00
   -6   16   11     26.17      0.00
   -5   16   11    -12.75      0.00
   -4   16   11      0.83      0.00
   -3   16   11      9.14      0.00
   -2   16   11     -1.57      0.00
   -1   16   11    -27.88      0.00
    0   16   11     42.23      0.00
    1   16   11    -23.58      0.00
    2   16   11     26.76      0.00
    3   16   11     21.97      0.00
    4   16   11     -6.13      0.00
    5   16   11     18.27      0.00
    6   16   11     42.52      0.00
    7   16   11    -37.46      0.00
    8   16   11     28.83      0.00
    9   16   11      0.83      0.00
   10   16   11    -16.29      0.00
   11   16   11     -3.20      0.00
   12   16   11      0.45      0.00
   13   16   11      2.10      0.00
   14   16   11      6.65      0.00
   15   16   11     -3.43      0.00
   16   16   11      1.60      0.00
   17   16   11     -6.49      0.00
  -17   17   11     -0.38      0.00
  -16   17   11     13.47      0.00
  -15   17   11     -0.51      0.00
  -14   17   11     -4.98      0.00
  -13   17   11      2.05      0.00
  -12   17   11    -24.12      0.00
  -11   17   11      2.16      0.00
  -10   17   11    -12.73      0.00
   -9   17   11    -20.76      0.00
   -8   17   11     23.31      0.00
   -7   17   11      7.77      0.00
   -6   17   11     -7.22      0.00
   -5   17   11     -7.21      0.00
   -4   17   11      0.95      0.00
   -3   17   11     -2.41      0.00
   -2   17   11     -8.02      0.00
   -1   17   11     -0.65      0.00
    0   17   11      2.06      0.00
    1   17   11    -32.37      0.00
    2   17   11     -4.00      0.00
    3   17   11     -6.18      0.00
    4   17   11      7.17      0.00
    5   17   11     32.53      0.00
    6   17   11      9.75      0.00
    7   17   11     12.63      0.00
    8   17   11      1.64      0.00
    9   17   11     -6.56      0.00
   10   17   11      8.74      0.00
   11   17   11     -5.20      0.00
   12   17   11     -2.09      0.00
   13   17   11    -12.73      0.00
   14   17   11     -4.52      0.00
   15   17   11     -4.70      0.00
   16   17   11      3.48      0.00
   17   17   11      9.12      0.00
  -17   18   11      1.63      0.00
  -16   18   11     -1.45      0.00
  -15   18   11      4.72      0.00
  -14   18   11     -1.45      0.00
  -13   18   11      3.62      0.00
  -12   18   11      1.89      0.00
  -11   18   11     -2.24      0.00
  -10   18   11     24.12      0.00
   -9   18   11     -7.94      0.00
   -8   18   11     -6.25      0.00
   -7   18   11      1.89      0.00
   -6   18   11    -15.27      0.00
   -5   18   11     10.37      0.00
   -4   18   11     -1.76      0.00
   -3   18   11     -4.15      0.00
   -2   18   11     -2.25      0.00
   -1   18   11    -16.66      0.00
    0   18   11    -25.01      0.00
    1   18   11     -0.63      0.00
    2   18   11    -26.78      0.00
    3   18   11      1.85      0.00
    4   18   11     11.62      0.00
    5   18   11     20.60      0.00
    6   18   11    -22.13      0.00
    7   18   11     24.38      0.00
    8   18   11      5.53      0.00
    9   18   11      4.27      0.00
   10   18   11     -4.16      0.00
   11   18   11     -4.78      0.00
   12   18   11     -4.46      0.00
   13   18   11      8.69      0.00
   14   18   11     -1.84      0.00
   15   18   11      7.25      0.00
   16   18   11     -8.28      0.00
  -16   19   11      1.69      0.00
  -15   19   11     -2.65      0.00
  -14   19   11     -4.67      0.00
  -13   19   11      2.36      0.00
  -12   19   11    -13.86      0.00
  -11   19   11      7.39      0.00
  -10   19   11     -0.13      0.00
   -9   19   11    -11.91      0.00
   -8   19   11     22.20      0.00
   -7   19   11    -11.69      0.00
   -6   19   11      8.15      0.00
   -5   19   11     14.43      0.00
   -4   19   11     -5.10      0.00
   -3   19   11     -3.82      0.00
   -2   19   11     13.99      0.00
   -1   19   11    -15.47      0.00
    0   19   11    -19.75      0.00
    1   19   11    -13.93      0.00
    2   19   11    -40.56      0.00
    3   19   11     -0.24      0.00
    4   19   11    -19.39      0.00
    5   19   11    -14.00      0.00
    6   19   11     12.39      0.00
    7   19   11      6.75      0.00
    8   19   11      9.75      0.00
    9   19   11      2.02      0.00
   10   19   11     10.93      0.00
   11   19   11      2.04      0.00
   12   19   11      0.56      0.00
   13   19   11      4.34      0.00
   14   19   11     -5.89      0.00
   15   19   11      4.05      0.00
   16   19   11     -3.52      0.00
  -16   20   11      3.63      0.00
  -15   20   11      1.14      0.00
  -14   20   11     -2.45      0.00
  -13   20   11     10.52      0.00
  -12   20   11    -10.38      0.00
  -11   20   11      3.75      0.00
  -10   20   11     16.99      0.00
   -9   20   11     -5.48      0.00
   -8   20   11     13.09      0.00
   -7   20   11     -3.79      0.00
   -6   20   11     -3.40      0.00
   -5   20   11     28.26      0.00
   -4   20   11     -9.36      0.00
   -3   20   11    -21.07      0.00
   -2   20   11      7.16      0.00
   -1   20   11    -10.50      0.00
    0   20   11      8.59      0.00
    1   20   11    -12.27      0.00
    2   20   11     -9.58      0.00
    3   20   11    -49.81      0.00
    4   20   11     15.55      0.00
    5   20   11     23.24      0.00
    6   20   11     -5.24      0.00
    7   20   11      2.72      0.00
    8   20   11     13.00      0.00
    9   20   11      1.69      0.00
   10   20   11      8.43      0.00
   11   20   11      5.90      0.00
   12   20   11     14.51      0.00
   13   20   11     -1.11      0.00
   14   20   11      1.01      0.00
   15   20   11     -5.75      0.00
  -15   21   11      4.93      0.00
  -14   21   11     -5.41      0.00
  -13   21   11     -4.50      0.00
  -12   21   11     -1.53      0.00
  -11   21   11      1.64      0.00
  -10   21   11     -3.80      0.00
   -9   21   11      7.85      0.00
   -8   21   11    -11.37      0.00
   -7   21   11    -18.03      0.00
   -6   21   11     -7.79      0.00
   -5   21   11      4.45      0.00
   -4   21   11     -7.44      0.00
   -3   21   11     24.86      0.00
   -2   21   11    -14.48      0.00
   -1   21   11     15.58      0.00
    0   21   11      3.93      0.00
    1   21   11     29.56      0.00
    2   21   11     -6.92      0.00
    3   21   11    -22.88      0.00
    4   21   11     13.05      0.00
    5   21   11    -23.47      0.00
    6   21   11      4.84      0.00
    7   21   11      9.29      0.00
    8   21   11     -2.78      0.00
    9   21   11     -5.45      0.00
   10   21   11    -13.95      0.00
   11   21   11      4.75      0.00
   12   21   11      4.18      0.00
   13   21   11      4.77      0.00
   14   21   11     -3.33      0.00
   15   21   11      5.83      0.00
  -15   22   11     -8.17      0.00
  -14   22   11      2.15      0.00
  -13   22   11      0.54      0.00
  -12   22   11     -1.17      0.00
  -11   22   11     -0.06      0.00
  -10   22   11     -7.07      0.00
   -9   22   11    -10.93      0.00
   -8   22   11     -6.84      0.00
   -7   22   11      3.05      0.00
   -6   22   11      3.50      0.00
   -5   22   11     18.60      0.00
   -4   22   11     -9.65      0.00
   -3   22   11     18.32      0.00
   -2   22   11      0.79      0.00
   -1   22   11     31.61      0.00
    0   22   11     45.47      0.00
    1   22   11      9.06      0.00
    2   22   11    -26.31      0.00
    3   22   11     13.62      0.00
    4   22   11    -26.18      0.00
    5   22   11    -26.30      0.00
    6   22   11      6.41      0.00
    7   22   11      7.71      0.00
    8   22   11    -11.56      0.00
    9   22   11     -3.77      0.00
   10   22   11     -8.92      0.00
   11   22   11     -2.06      0.00
   12   22   11     -1.53      0.00
   13   22   11      1.45      0.00
   14   22   11      8.11      0.00
  -14   23   11     -0.91      0.00
  -13   23   11     -8.31      0.00
  -12   23   11      6.67      0.00
  -11   23   11     -0.82      0.00
  -10   23   11      8.77      0.00
   -9   23   11     -9.39      0.00
   -8   23   11      1.16      0.00
   -7   23   11     10.15      0.00
   -6   23   11      9.59      0.00
   -5   23   11    -23.37      0.00
   -4   23   11      8.28      0.00
   -3   23   11     -8.50      0.00
   -2   23   11      1.43      0.00
   -1   23   11      3.28      0.00
    0   23   11     11.96      0.00
    1   23   11      2.46      0.00
    2   23   11     28.79      0.00
    3   23   11     -5.38      0.00
    4   23   11     11.43      0.00
    5   23   11    -17.43      0.00
    6   23   11    -14.90      0.00
    7   23   11     -4.74      0.00
    8   23   11     -9.52      0.00
    9   23   11      4.71      0.00
   10   23   11     -6.32      0.00
   11   23   11     -1.97      0.00
   12   23   11      7.81      0.00
   13   23   11     -2.12      0.00
  -13   24   11     -1.21      0.00
  -12   24   11      5.11      0.00
  -11   24   11     14.66      0.00
  -10   24   11      1.99      0.00
   -9   24   11      2.34      0.00
   -8   24   11     -5.33      0.00
   -7   24   11    -10.99      0.00
   -6   24   11     10.59      0.00
   -5   24   11    -17.09      0.00
   -4   24   11      4.57      0.00
   -3   24   11     -6.16      0.00
   -2   24   11     -1.98      0.00
   -1   24   11     11.29      0.00
    0   24   11    -15.68      0.00
    1   24   11     26.83      0.00
    2   24   11     17.02      0.00
    3   24   11    -10.13      0.00
    4   24   11     18.72      0.00
    5   24   11      0.94      0.00
    6   24   11     -2.80      0.00
    7   24   11      9.78      0.00
    8   24   11     -0.06      0.00
    9   24   11     -3.54      0.00
   10   24   11      2.19      0.00
   11   24   11      0.88      0.00
   12   24   11     -5.46      0.00
   13   24   11      3.14      0.00
  -12   25   11    -10.94      0.00
  -11   25   11     -7.14      0.00
  -10   25   11     -7.25      0.00
   -9   25   11      1.55      0.00
   -8   25   11    -10.93      0.00
   -7   25   11     20.78      0.00
   -6   25   11     -2.56      0.00
   -5   25   11    -11.39      0.00
   -4   25   11    -24.19      0.00
   -3   25   11     15.06      0.00
   -2   25   11     10.68      0.00
   -1   25   11     -5.73      0.00
    0   25   11     -1.47      0.00
    1   25   11     15.80      0.00
    2   25   11    -16.59      0.00
    3   25   11     14.33      0.00
    4   25   11     10.62      0.00
    5   25   11     21.30      0.00
    6   25   11      0.66      0.00
    7   25   11     -3.52      0.00
    8   25   11     -9.62      0.00
    9   25   11     12.41      0.00
   10   25   11    -13.43      0.00
   11   25   11     -5.68      0.00
   12   25   11     -2.62      0.00
  -12   26   11      0.30      0.00
  -11   26   11     12.50      0.00
  -10   26   11     -8.34      0.00
   -9   26   11     -1.81      0.00
   -8   26   11      2.49      0.00
   -7   26   11    -11.00      0.00
   -6   26   11      7.22      0.00
   -5   26   11    -12.36      0.00
   -4   26   11     -1.80      0.00
   -3   26   11     -8.26      0.00
   -2   26   11     -6.72      0.00
   -1   26   11      3.67      0.00
    0   26   11     -0.02      0.00
    1   26   11      8.06      0.00
    2   26   11     16.84      0.00
    3   26   11      6.08      0.00
    4   26   11     -4.31      0.00
    5   26   11     13.87      0.00
    6   26   11     12.22      0.00
    7   26   11      4.95      0.00
    8   26   11      2.60      0.00
    9   26   11     -3.33      0.00
   10   26   11      1.77      0.00
   11   26   11     -7.95      0.00
  -11   27   11      1.79      0.00
  -10   27   11     -1.51      0.00
   -9   27   11     -0.65      0.00
   -8   27   11      9.10      0.00
   -7   27   11     -1.76      0.00
   -6   27   11     -3.45      0.00
   -5   27   11    -19.59      0.00
   -4   27   11     18.14      0.00
   -3   27   11    -18.23      0.00
   -2   27   11      4.65      0.00
   -1   27   11     -5.10      0.00
    0   27   11      7.18      0.00
    1   27   11    -10.48      0.00
    2   27   11     -5.81      0.00
    3   27   11      6.35      0.00
    4   27   11     11.60      0.00
    5   27   11     -7.19      0.00
    6   27   11     -0.84      0.00
    7   27   11     -2.81      0.00
    8   27   11      3.12      0.00
    9   27   11      4.34      0.00
   10   27   11      0.09      0.00
   -9   28   11      2.97      0.00
   -8   28   11      4.17      0.00
   -7   28   11     -7.19      0.00
   -6   28   11     -6.37      0.00
   -5   28   11      8.36      0.00
   -4   28   11      8.92      0.00
   -3   28   11      1.50      0.00
   -2   28   11     -1.83      0.00
   -1   28   11     -6.79      0.00
    0   28   11     10.54      0.00
    1   28   11     -5.35      0.00
    2   28   11      2.62      0.00
    3   28   11    -14.82      0.00
    4   28   11      7.34      0.00
    5   28   11     -3.75      0.00
    6   28   11     -8.97      0.00
    7   28   11      5.21      0.00
    8   28   11     -8.59      0.00
    9   28   11     -7.35      0.00
   -8   29   11     -5.24      0.00
   -7   29   11     14.63      0.00
   -6   29   11     -8.45      0.00
   -5   29   11      1.24      0.00
   -4   29   11     -0.47      0.00
   -3   29   11     -7.99      0.00
   -2   29   11    -11.00      0.00
   -1   29   11     -3.23      0.00
    0   29   11    -11.80      0.00
    1   29   11      0.73      0.00
    2   29   11     -1.45      0.00
    3   29   11     -3.21      0.00
    4   29   11     -9.18      0.00
    5   29   11      1.71      0.00
    6   29   11     11.43      0.00
    7   29   11      7.54      0.00
   -6   30   11     -7.01      0.00
   -5   30   11     12.07      0.00
   -4   30   11     -7.37      0.00
   -3   30   11      0.42      0.00
   -2   30   11      5.72      0.00
   -1   30   11     -7.17      0.00
    0   30   11    -10.70      0.00
    1   30   11     -4.14      0.00
    2   30   11     -4.34      0.00
    3   30   11      0.17      0.00
    4   30   11     -4.92      0.00
    5   30   11     11.71      0.00
    6   30   11     -4.57      0.00
   -4   31   11     -1.83      0.00
   -3   31   11     -0.67      0.00
   -2   31   11      4.08      0.00
   -1   31   11     -2.24      0.00
    0   31   11      0.47      0.00
    1   31   11     15.18      0.00
    2   31   11     -0.96      0.00
    3   31   11     -7.12      0.00
  -20    0   12     11.00      0.00
  -19    0   12     -8.21      0.00
  -18    0   12     -6.92      0.00
  -17    0   12    -11.22      0.00
  -16    0   12     -7.51      0.00
  -15    0   12      9.59      0.00
  -14    0   12      5.73      0.00
  -13    0   12     18.81      0.00
  -12    0   12    -15.74      0.00
  -11    0   12      4.39      0.00
  -10    0   12     -3.58      0.00
   -9    0   12     -4.46      0.00
   -8    0   12     65.09      0.00
   -7    0   12     -5.95      0.00
   -6    0   12     43.61      0.00
   -5    0   12    -24.10      0.00
   -4    0   12    -32.47      0.00
   -3    0   12     37.97      0.00
   -2    0   12     56.88      0.00
   -1    0   12    -26.48      0.00
    0    0   12     52.91      0.00
    1    0   12    -25.46      0.00
    2    0   12    -92.27      0.00
    3    0   12    -31.37      0.00
    4    0   12      2.70      0.00
    5    0   12     22.51      0.00
    6    0   12     54.72      0.00
    7    0   12    -12.22      0.00
    8    0   12    -12.13      0.00
    9    0   12    -34.61      0.00
   10    0   12      7.93      0.00
   11    0   12     -2.10      0.00
   12    0   12      5.28      0.00
   13    0   12     14.71      0.00
   14    0   12     -1.91      0.00
   15    0   12     -7.34      0.00
   16    0   12     14.65      0.00
   17    0   12     15.05      0.00
   18    0   12      6.49      0.00
   19    0   12     -7.85      0.00
  -20    1   12      3.36      0.00
  -19    1   12      3.86      0.00
  -18    1   12    -11.81      0.00
  -17    1   12     -2.54      0.00
  -16    1   12     -0.53      0.00
  -15    1   12     -6.30      0.00
  -14    1   12      9.14      0.00
  -13    1   12     -3.26      0.00
  -12    1   12      5.81      0.00
  -11    1   12    -25.46      0.00
  -10    1   12    -33.83      0.00
   -9    1   12      5.36      0.00
   -8    1   12     48.38      0.00
   -7    1   12     36.42      0.00
   -6    1   12     13.94      0.00
   -5    1   12    -39.78      0.00
   -4    1   12      0.69      0.00
   -3    1   12     43.73      0.00
   -2    1   12     68.49      0.00
   -1    1   12    -29.76      0.00
    0    1   12    -34.11      0.00
    1    1   12    -35.13      0.00
    2    1   12     15.14      0.00
    3    1   12    -40.05      0.00
    4    1   12    -20.24      0.00
    5    1   12     25.23      0.00
    6    1   12     20.59      0.00
    7    1   12    -13.64      0.00
    8    1   12     11.41      0.00
    9    1   12     25.12      0.00
   10    1   12    -17.45      0.00
   11    1   12     17.83      0.00
   12    1   12     -2.82      0.00
   13    1   12     -9.44      0.00
   14    1   12      1.21      0.00
   15    1   12      4.23      0.00
   16    1   12    -13.59      0.00
   17    1   12      0.93      0.00
   18    1   12     -4.04      0.00
   19    1   12     -5.25      0.00
  -20    2   12     -8.17      0.00
  -19    2   12     13.08      0.00
  -18    2   12     -1.21      0.00
  -17    2   12     -6.10      0.00
  -16    2   12      3.96      0.00
  -15    2   12      3.45      0.00
  -14    2   12    -32.63      0.00
  -13    2   12    -31.57      0.00
  -12    2   12     13.96      0.00
  -11    2   12      8.13      0.00
  -10    2   12     17.12      0.00
   -9    2   12    -24.90      0.00
   -8    2   12    -13.60      0.00
   -7    2   12      3.93      0.00
   -6    2   12    -26.65      0.00
   -5    2   12     12.45      0.00
   -4    2   12    -11.42      0.00
   -3    2   12     34.44      0.00
   -2    2   12     22.19      0.00
   -1    2   12    -25.55      0.00
    0    2   12    -12.12      0.00
    1    2   12    -13.59      0.00
    2    2   12     -2.69      0.00
    3    2   12     43.42      0.00
    4    2   12    -50.97      0.00
    5    2   12    -16.17      0.00
    6    2   12      0.37      0.00
    7    2   12     17.27      0.00
    8    2   12     23.33      0.00
    9    2   12     28.23      0.00
   10    2   12    -24.57      0.00
   11    2   12    -14.56      0.00
   12    2   12    -11.40      0.00
   13    2   12     -7.32      0.00
   14    2   12     13.42      0.00
   15    2   12     10.16      0.00
   16    2   12      7.33      0.00
   17    2   12     -3.79      0.00
   18    2   12     -4.07      0.00
   19    2   12     -6.18      0.00
  -20    3   12     -5.80      0.00
  -19    3   12     -4.91      0.00
  -18    3   12     -7.38      0.00
  -17    3   12     15.80      0.00
  -16    3   12      1.22      0.00
  -15    3   12      3.18      0.00
  -14    3   12      3.45      0.00
  -13    3   12    -27.52      0.00
  -12    3   12     -5.17      0.00
  -11    3   12     -7.74      0.00
  -10    3   12     19.73      0.00
   -9    3   12     14.74      0.00
   -8    3   12    -24.40      0.00
   -7    3   12      6.03      0.00
   -6    3   12     37.13      0.00
   -5    3   12    -17.09      0.00
   -4    3   12    -18.55      0.00
   -3    3   12    -25.00      0.00
   -2    3   12     26.17      0.00
   -1    3   12    -26.66      0.00
    0    3   12     -2.06      0.00
    1    3   12     -7.14      0.00
    2    3   12    -34.48      0.00
    3    3   12     36.82      0.00
    4    3   12      3.51      0.00
    5    3   12    -13.67      0.00
    6    3   12     47.28      0.00
    7    3   12     19.33      0.00
    8    3   12    -11.17      0.00
    9    3   12     12.20      0.00
   10    3   12      4.40      0.00
   11    3   12     12.18      0.00
   12    3   12      4.64      0.00
   13    3   12    -17.64      0.00
   14    3   12     -8.68      0.00
   15    3   12      9.34      0.00
   16    3   12      3.87      0.00
   17    3   12     -2.86      0.00
   18    3   12      8.07      0.00
   19    3   12     -1.88      0.00
  -20    4   12      3.67      0.00
  -19    4   12      4.59      0.00
  -18    4   12      0.29      0.00
  -17    4   12      6.16      0.00
  -16    4   12      3.32      0.00
  -15    4   12     22.29      0.00
  -14    4   12     -1.26      0.00
  -13    4   12     -9.10      0.00
  -12    4   12    -18.05      0.00
  -11    4   12      8.47      0.00
  -10    4   12      4.58      0.00
   -9    4   12     20.98      0.00
   -8    4   12     16.59      0.00
   -7    4   12     -9.72      0.00
   -6    4   12    -22.61      0.00
   -5    4   12      7.24      0.00
   -4    4   12     11.95      0.00
   -3    4   12     34.40      0.00
   -2    4   12    -10.08      0.00
   -1    4   12      4.16      0.00
    0    4   12     -8.17      0.00
    1    4   12     16.00      0.00
    2    4   12     42.96      0.00
    3    4   12    -23.72      0.00
    4    4   12     -6.67      0.00
    5    4   12     -1.97      0.00
    6    4   12      8.10      0.00
    7    4   12     27.33      0.00
    8    4   12     26.60      0.00
    9    4   12      6.43      0.00
   10    4   12     12.15      0.00
   11    4   12     24.41      0.00
   12    4   12    -11.02      0.00
   13    4   12    -14.55      0.00
   14    4   12    -17.96      0.00
   15    4   12    -11.37      0.00
   16    4   12      2.88      0.00
   17    4   12      2.76      0.00
   18    4   12     -2.15      0.00
   19    4   12      2.91      0.00
  -19    5   12      1.55      0.00
  -18    5   12     -0.70      0.00
  -17    5   12      6.65      0.00
  -16    5   12     -2.25      0.00
  -15    5   12     -8.35      0.00
  -14    5   12     -4.47      0.00
  -13    5   12     -0.38      0.00
  -12    5   12     -5.07      0.00
  -11    5   12     -0.96      0.00
  -10    5   12     -5.38      0.00
   -9    5   12      5.37      0.00
   -8    5   12    -28.77      0.00
   -7    5   12     -5.33      0.00
   -6    5   12     13.95      0.00
   -5    5   12     42.43      0.00
   -4    5   12      7.58      0.00
   -3    5   12     -2.19      0.00
   -2    5   12     -2.55      0.00
   -1    5   12    -14.93      0.00
    0    5   12      8.29      0.00
    1    5   12     73.40      0.00
    2    5   12     30.52      0.00
    3    5   12    -11.99      0.00
    4    5   12     12.06      0.00
    5    5   12     -7.20      0.00
    6    5   12      2.54      0.00
    7    5   12     43.64      0.00
    8    5   12      6.05      0.00
    9    5   12    -29.17      0.00
   10    5   12    -14.63      0.00
   11    5   12    -17.05      0.00
   12    5   12     21.90      0.00
   13    5   12      5.79      0.00
   14    5   12    -20.45      0.00
   15    5   12     -5.93      0.00
   16    5   12    -17.75      0.00
   17    5   12     -0.96      0.00
   18    5   12      8.82      0.00
   19    5   12      3.44      0.00
  -19    6   12      4.30      0.00
  -18    6   12      2.33      0.00
  -17    6   12     13.46      0.00
  -16    6   12      1.30      0.00
  -15    6   12    -21.49      0.00
  -14    6   12      0.62      0.00
  -13    6   12      5.82      0.00
  -12    6   12      6.86      0.00
  -11    6   12      3.15      0.00
  -10    6   12    -26.52      0.00
   -9    6   12    -25.11      0.00
   -8    6   12    -15.53      0.00
   -7    6   12     -7.92      0.00
   -6    6   12    -13.75      0.00
   -5    6   12    -16.98      0.00
   -4    6   12     11.35      0.00
   -3    6   12      2.26      0.00
   -2    6   12    -37.97      0.00
   -1    6   12     16.14      0.00
    0    6   12     -1.78      0.00
    1    6   12    -19.78      0.00
    2    6   12     38.97      0.00
    3    6   12      3.38      0.00
    4    6   12      6.41      0.00
    5    6   12    -47.28      0.00
    6    6   12     26.06      0.00
    7    6   12     -5.84      0.00
    8    6   12    -27.96      0.00
    9    6   12    -14.59      0.00
   10    6   12     -8.73      0.00
   11    6   12     -6.17      0.00
   12    6   12      6.03      0.00
   13    6   12     -0.37      0.00
   14    6   12     -2.10      0.00
   15    6   12     -6.35      0.00
   16    6   12     -5.26      0.00
   17    6   12     -9.38      0.00
   18    6   12      5.71      0.00
   19    6   12      1.14      0.00
  -19    7   12    -13.25      0.00
  -18    7   12      5.79      0.00
  -17    7   12     -4.41      0.00
  -16    7   12     12.05      0.00
  -15    7   12     10.21      0.00
  -14    7   12     -9.55      0.00
  -13    7   12     -0.34      0.00
  -12    7   12    -30.98      0.00
  -11    7   12     -4.22      0.00
  -10    7   12    -11.66      0.00
   -9    7   12      8.11      0.00
   -8    7   12      1.25      0.00
   -7    7   12    -10.06      0.00
   -6    7   12      4.45      0.00
   -5    7   12     12.01      0.00
   -4    7   12     29.41      0.00
   -3    7   12    -17.65      0.00
   -2    7   12    -32.42      0.00
   -1    7   12     21.84      0.00
    0    7   12    -37.45      0.00
    1    7   12     29.88      0.00
    2    7   12     21.36      0.00
    3    7   12      1.94      0.00
    4    7   12    -28.86      0.00
    5    7   12      0.79      0.00
    6    7   12      0.01      0.00
    7    7   12     -0.56      0.00
    8    7   12     11.86      0.00
    9    7   12      9.86      0.00
   10    7   12     -2.39      0.00
   11    7   12      7.11      0.00
   12    7   12    -11.40      0.00
   13    7   12      1.52      0.00
   14    7   12      6.16      0.00
   15    7   12     -8.33      0.00
   16    7   12      5.75      0.00
   17    7   12     -0.24      0.00
   18    7   12    -14.42      0.00
   19    7   12      5.16      0.00
  -19    8   12      4.00      0.00
  -18    8   12     -2.79      0.00
  -17    8   12      6.54      0.00
  -16    8   12      7.06      0.00
  -15    8   12      6.50      0.00
  -14    8   12      0.09      0.00
  -13    8   12      1.66      0.00
  -12    8   12     11.64      0.00
  -11    8   12     -9.96      0.00
  -10    8   12      4.35      0.00
   -9    8   12    -10.87      0.00
   -8    8   12    -12.48      0.00
   -7    8   12    -30.23      0.00
   -6    8   12      6.94      0.00
   -5    8   12     28.41      0.00
   -4    8   12      0.55      0.00
   -3    8   12    -18.93      0.00
   -2    8   12     -1.81      0.00
   -1    8   12     -0.77      0.00
    0    8   12     -2.72      0.00
    1    8   12    -42.90      0.00
    2    8   12     -8.09      0.00
    3    8   12     43.22      0.00
    4    8   12    -24.50      0.00
    5    8   12     18.89      0.00
    6    8   12    -20.52      0.00
    7    8   12     10.42      0.00
    8    8   12    -15.59      0.00
    9    8   12    -26.64      0.00
   10    8   12     -6.75      0.00
   11    8   12     18.55      0.00
   12    8   12     -0.41      0.00
   13    8   12    -13.73      0.00
   14    8   12     -2.92      0.00
   15    8   12      8.10      0.00
   16    8   12      5.96      0.00
   17    8   12      2.74      0.00
   18    8   12      6.64      0.00
  -19    9   12     -7.95      0.00
  -18    9   12      2.71      0.00
  -17    9   12     -4.18      0.00
  -16    9   12     -2.48      0.00
  -15    9   12     -5.79      0.00
  -14    9   12     14.07      0.00
  -13    9   12      7.47      0.00
  -12    9   12    -21.08      0.00
  -11    9   12     14.45      0.00
  -10    9   12     -8.52      0.00
   -9    9   12     -7.08      0.00
   -8    9   12      9.93      0.00
   -7    9   12    -33.21      0.00
   -6    9   12     43.13      0.00
   -5    9   12    -39.03      0.00
   -4    9   12      1.29      0.00
   -3    9   12     23.03      0.00
   -2    9   12    -20.86      0.00
   -1    9   12     19.52      0.00
    0    9   12    -11.25      0.00
    1    9   12    -32.89      0.00
    2    9   12     13.22      0.00
    3    9   12    -13.13      0.00
    4    9   12     -2.94      0.00
    5    9   12     11.39      0.00
    6    9   12     21.92      0.00
    7    9   12    -25.08      0.00
    8    9   12      2.85      0.00
    9    9   12      0.54      0.00
   10    9   12     -4.10      0.00
   11    9   12      9.06      0.00
   12    9   12      5.38      0.00
   13    9   12     -2.73      0.00
   14    9   12     -0.66      0.00
   15    9   12     -5.77      0.00
   16    9   12     -5.01      0.00
   17    9   12      2.39      0.00
   18    9   12      8.75      0.00
  -19   10   12    -10.31      0.00
  -18   10   12      8.08      0.00
  -17   10   12      8.34      0.00
  -16   10   12      6.34      0.00
  -15   10   12     -4.06      0.00
  -14   10   12     -1.47      0.00
  -13   10   12    -11.95      0.00
  -12   10   12      6.36      0.00
  -11   10   12      1.29      0.00
  -10   10   12      9.33      0.00
   -9   10   12     37.11      0.00
   -8   10   12    -15.94      0.00
   -7   10   12      9.38      0.00
   -6   10   12     45.26      0.00
   -5   10   12     -3.21      0.00
   -4   10   12      8.16      0.00
   -3   10   12    -16.26      0.00
   -2   10   12     -8.53      0.00
   -1   10   12     -9.31      0.00
    0   10   12     35.24      0.00
    1   10   12    -10.64      0.00
    2   10   12    -33.90      0.00
    3   10   12     -3.72      0.00
    4   10   12     16.71      0.00
    5   10   12     20.58      0.00
    6   10   12     14.84      0.00
    7   10   12     -0.56      0.00
    8   10   12     16.40      0.00
    9   10   12     -1.59      0.00
   10   10   12     10.19      0.00
   11   10   12    -10.67      0.00
   12   10   12      6.75      0.00
   13   10   12      6.94      0.00
   14   10   12      2.30      0.00
   15   10   12      4.06      0.00
   16   10   12    -12.05      0.00
   17   10   12     -3.90      0.00
   18   10   12     -1.63      0.00
  -18   11   12     -3.73      0.00
  -17   11   12     13.93      0.00
  -16   11   12     -5.95      0.00
  -15   11   12     -5.11      0.00
  -14   11   12     -7.40      0.00
  -13   11   12      7.99      0.00
  -12   11   12      5.32      0.00
  -11   11   12     12.79      0.00
  -10   11   12     20.83      0.00
   -9   11   12     -2.00      0.00
   -8   11   12     13.18      0.00
   -7   11   12    -18.44      0.00
   -6   11   12     -2.71      0.00
   -5   11   12      2.10      0.00
   -4   11   12    -34.58      0.00
   -3   11   12     12.68      0.00
   -2   11   12      6.39      0.00
   -1   11   12     15.49      0.00
    0   11   12    -29.92      0.00
    1   11   12    -45.05      0.00
    2   11   12     29.59      0.00
    3   11   12     -1.50      0.00
    4   11   12     38.39      0.00
    5   11   12     37.98      0.00
    6   11   12     14.55      0.00
    7   11   12     16.54      0.00
    8   11   12    -24.30      0.00
    9   11   12      7.93      0.00
   10   11   12      8.00      0.00
   11   11   12     -9.82      0.00
   12   11   12     -9.53      0.00
   13   11   12      1.55      0.00
   14   11   12     -5.08      0.00
   15   11   12      2.03      0.00
   16   11   12      3.90      0.00
   17   11   12     10.46      0.00
   18   11   12     -3.86      0.00
  -18   12   12      2.80      0.00
  -17   12   12     -5.79      0.00
  -16   12   12     -1.54      0.00
  -15   12   12    -12.99      0.00
  -14   12   12     -4.14      0.00
  -13   12   12     -0.96      0.00
  -12   12   12      2.60      0.00
  -11   12   12     17.03      0.00
  -10   12   12      2.20      0.00
   -9   12   12     17.75      0.00
   -8   12   12    -20.05      0.00
   -7   12   12     30.67      0.00
   -6   12   12      7.08      0.00
   -5   12   12      0.96      0.00
   -4   12   12     30.43      0.00
   -3   12   12     -5.05      0.00
   -2   12   12    -25.62      0.00
   -1   12   12     -8.33      0.00
    0   12   12    -10.96      0.00
    1   12   12     22.02      0.00
    2   12   12    -47.22      0.00
    3   12   12     -6.04      0.00
    4   12   12    -12.12      0.00
    5   12   12    -48.93      0.00
    6   12   12     18.77      0.00
    7   12   12     -8.99      0.00
    8   12   12    -12.79      0.00
    9   12   12     10.51      0.00
   10   12   12     -4.45      0.00
   11   12   12     -5.25      0.00
   12   12   12      4.94      0.00
   13   12   12    -10.80      0.00
   14   12   12     -6.94      0.00
   15   12   12     -3.45      0.00
   16   12   12     -9.56      0.00
   17   12   12      7.52      0.00
  -18   13   12     15.23      0.00
  -17   13   12     -1.87      0.00
  -16   13   12     -4.26      0.00
  -15   13   12     -6.92      0.00
  -14   13   12     -1.99      0.00
  -13   13   12    -13.25      0.00
  -12   13   12     28.74      0.00
  -11   13   12      5.07      0.00
  -10   13   12    -10.61      0.00
   -9   13   12     15.37      0.00
   -8   13   12    -26.57      0.00
   -7   13   12     -1.34      0.00
   -6   13   12     -3.26      0.00
   -5   13   12      7.00      0.00
   -4   13   12      0.65      0.00
   -3   13   12      8.61      0.00
   -2   13   12     -7.77      0.00
   -1   13   12     18.50      0.00
    0   13   12     33.50      0.00
    1   13   12     -7.41      0.00
    2   13   12     -7.06      0.00
    3   13   12    -16.18      0.00
    4   13   12    -42.65      0.00
    5   13   12     -8.87      0.00
    6   13   12    -11.43      0.00
    7   13   12     -0.02      0.00
    8   13   12     -5.67      0.00
    9   13   12    -14.04      0.00
   10   13   12     13.09      0.00
   11   13   12      2.28      0.00
   12   13   12      9.20      0.00
   13   13   12     22.23      0.00
   14   13   12     -3.61      0.00
   15   13   12     -3.25      0.00
   16   13   12      4.17      0.00
   17   13   12     -7.46      0.00
  -18   14   12      1.76      0.00
  -17   14   12     11.11      0.00
  -16   14   12     -3.93      0.00
  -15   14   12     -8.60      0.00
  -14   14   12     -2.44      0.00
  -13   14   12     -5.67      0.00
  -12   14   12    -24.16      0.00
  -11   14   12     12.01      0.00
  -10   14   12     -7.06      0.00
   -9   14   12    -19.14      0.00
   -8   14   12     10.03      0.00
   -7   14   12     -3.58      0.00
   -6   14   12     -3.23      0.00
   -5   14   12     -5.42      0.00
   -4   14   12      2.04      0.00
   -3   14   12      0.99      0.00
   -2   14   12    -11.60      0.00
   -1   14   12     23.35      0.00
    0   14   12      1.83      0.00
    1   14   12     27.32      0.00
    2   14   12     -0.08      0.00
    3   14   12    -12.84      0.00
    4   14   12     23.91      0.00
    5   14   12     11.44      0.00
    6   14   12    -14.30      0.00
    7   14   12      9.38      0.00
    8   14   12     -9.51      0.00
    9   14   12    -16.47      0.00
   10   14   12      1.26      0.00
   11   14   12      7.44      0.00
   12   14   12      6.04      0.00
   13   14   12      5.41      0.00
   14   14   12     -6.49      0.00
   15   14   12      0.88      0.00
   16   14   12     -1.93      0.00
   17   14   12      8.46      0.00
  -17   15   12      0.63      0.00
  -16   15   12     -4.68      0.00
  -15   15   12      6.98      0.00
  -14   15   12     -0.07      0.00
  -13   15   12     -3.41      0.00
  -12   15   12      1.45      0.00
  -11   15   12    -16.00      0.00
  -10   15   12     -6.53      0.00
   -9   15   12     -0.22      0.00
   -8   15   12    -10.80      0.00
   -7   15   12      7.67      0.00
   -6   15   12     22.75      0.00
   -5   15   12     -7.59      0.00
   -4   15   12      4.03      0.00
   -3   15   12      2.83      0.00
   -2   15   12    -11.74      0.00
   -1   15   12     27.78      0.00
    0   15   12     22.31      0.00
    1   15   12    -13.60      0.00
    2   15   12    -17.61      0.00
    3   15   12     19.68      0.00
    4   15   12     54.07      0.00
    5   15   12      2.10      0.00
    6   15   12    -39.10      0.00
    7   15   12    -15.33      0.00
    8   15   12     14.64      0.00
    9   15   12     -3.39      0.00
   10   15   12     -2.16      0.00
   11   15   12     -1.10      0.00
   12   15   12     -8.21      0.00
   13   15   12     11.05      0.00
   14   15   12      4.08      0.00
   15   15   12     -1.80      0.00
   16   15   12      8.83      0.00
   17   15   12    -16.57      0.00
  -17   16   12     -4.67      0.00
  -16   16   12      5.17      0.00
  -15   16   12      3.51      0.00
  -14   16   12     12.56      0.00
  -13   16   12      9.70      0.00
  -12   16   12     10.76      0.00
  -11   16   12     -7.32      0.00
  -10   16   12      1.14      0.00
   -9   16   12    -13.16      0.00
   -8   16   12     -3.28      0.00
   -7   16   12     -5.54      0.00
   -6   16   12     15.98      0.00
   -5   16   12    -18.59      0.00
   -4   16   12     17.20      0.00
   -3   16   12    -34.26      0.00
   -2   16   12    -13.46      0.00
   -1   16   12      3.98      0.00
    0   16   12     23.14      0.00
    1   16   12      3.98      0.00
    2   16   12     16.05      0.00
    3   16   12     23.44      0.00
    4   16   12     29.95      0.00
    5   16   12      8.27      0.00
    6   16   12     18.14      0.00
    7   16   12    -23.06      0.00
    8   16   12    -15.29      0.00
    9   16   12     -4.05      0.00
   10   16   12     -6.75      0.00
   11   16   12      2.45      0.00
   12   16   12    -13.30      0.00
   13   16   12      4.05      0.00
   14   16   12      8.23      0.00
   15   16   12      3.21      0.00
   16   16   12     15.71      0.00
  -16   17   12     -0.49      0.00
  -15   17   12     -7.25      0.00
  -14   17   12     -9.46      0.00
  -13   17   12      5.95      0.00
  -12   17   12      0.43      0.00
  -11   17   12     10.54      0.00
  -10   17   12     -1.44      0.00
   -9   17   12      2.61      0.00
   -8   17   12      3.53      0.00
   -7   17   12      3.95      0.00
   -6   17   12    -11.34      0.00
   -5   17   12    -10.05      0.00
   -4   17   12     -6.32      0.00
   -3   17   12    -20.82      0.00
   -2   17   12     27.67      0.00
   -1   17   12     19.21      0.00
    0   17   12     -3.16      0.00
    1   17   12     -1.34      0.00
    2   17   12     22.96      0.00
    3   17   12     24.56      0.00
    4   17   12      7.92      0.00
    5   17   12     18.19      0.00
    6   17   12      4.26      0.00
    7   17   12     -2.24      0.00
    8   17   12     -3.18      0.00
    9   17   12     -5.09      0.00
   10   17   12     -1.31      0.00
   11   17   12      3.58      0.00
   12   17   12     -2.16      0.00
   13   17   12     -8.56      0.00
   14   17   12    -13.36      0.00
   15   17   12     -3.95      0.00
   16   17   12      2.16      0.00
  -16   18   12     -3.59      0.00
  -15   18   12     11.72      0.00
  -14   18   12    -15.72      0.00
  -13   18   12     -2.66      0.00
  -12   18   12     10.50      0.00
  -11   18   12     -9.51      0.00
  -10   18   12    -15.06      0.00
   -9   18   12     -5.85      0.00
   -8   18   12      9.43      0.00
   -7   18   12     16.35      0.00
   -6   18   12     -8.81      0.00
   -5   18   12     -7.11      0.00
   -4   18   12    -20.02      0.00
   -3   18   12      5.71      0.00
   -2   18   12     -7.82      0.00
   -1   18   12    -31.25      0.00
    0   18   12      7.93      0.00
    1   18   12      8.38      0.00
    2   18   12      0.50      0.00
    3   18   12     35.33      0.00
    4   18   12      5.92      0.00
    5   18   12      9.98      0.00
    6   18   12     -8.42      0.00
    7   18   12      6.87      0.00
    8   18   12     24.79      0.00
    9   18   12     -0.49      0.00
   10   18   12     -4.34      0.00
   11   18   12      6.12      0.00
   12   18   12    -11.32      0.00
   13   18   12     -4.39      0.00
   14   18   12      0.70      0.00
   15   18   12     -6.88      0.00
  -15   19   12      0.96      0.00
  -14   19   12     16.45      0.00
  -13   19   12     -5.60      0.00
  -12   19   12     13.82      0.00
  -11   19   12     12.22      0.00
  -10   19   12     -7.52      0.00
   -9   19   12    -23.09      0.00
   -8   19   12      1.68      0.00
   -7   19   12      5.36      0.00
   -6   19   12    -26.17      0.00
   -5   19   12      6.86      0.00
   -4   19   12    -15.75      0.00
   -3   19   12    -31.16      0.00
   -2   19   12      9.47      0.00
   -1   19   12     -8.90      0.00
    0   19   12     48.82      0.00
    1   19   12      8.57      0.00
    2   19   12    -22.64      0.00
    3   19   12     57.36      0.00
    4   19   12    -15.93      0.00
    5   19   12     -1.05      0.00
    6   19   12     15.74      0.00
    7   19   12    -21.45      0.00
    8   19   12     15.69      0.00
    9   19   12     -0.54      0.00
   10   19   12    -22.21      0.00
   11   19   12     -1.80      0.00
   12   19   12      8.06      0.00
   13   19   12     -5.47      0.00
   14   19   12      8.73      0.00
   15   19   12      9.07      0.00
  -15   20   12    -10.35      0.00
  -14   20   12      0.17      0.00
  -13   20   12      3.61      0.00
  -12   20   12      2.49      0.00
  -11   20   12     -6.03      0.00
  -10   20   12      0.35      0.00
   -9   20   12      4.36      0.00
   -8   20   12     -7.97      0.00
   -7   20   12     22.07      0.00
   -6   20   12    -17.67      0.00
   -5   20   12      9.47      0.00
   -4   20   12      5.94      0.00
   -3   20   12      5.55      0.00
   -2   20   12    -11.09      0.00
   -1   20   12    -34.17      0.00
    0   20   12    -19.78      0.00
    1   20   12      6.67      0.00
    2   20   12     11.17      0.00
    3   20   12    -13.30      0.00
    4   20   12     -8.89      0.00
    5   20   12      9.55      0.00
    6   20   12    -16.90      0.00
    7   20   12     -1.14      0.00
    8   20   12      3.06      0.00
    9   20   12      8.97      0.00
   10   20   12     18.11      0.00
   11   20   12      6.33      0.00
   12   20   12     11.16      0.00
   13   20   12     -3.65      0.00
   14   20   12     -8.29      0.00
  -14   21   12      0.19      0.00
  -13   21   12      2.88      0.00
  -12   21   12      1.07      0.00
  -11   21   12      4.79      0.00
  -10   21   12      1.86      0.00
   -9   21   12     12.20      0.00
   -8   21   12    -11.19      0.00
   -7   21   12     -2.49      0.00
   -6   21   12     -6.02      0.00
   -5   21   12     14.71      0.00
   -4   21   12      3.82      0.00
   -3   21   12    -14.24      0.00
   -2   21   12      1.86      0.00
   -1   21   12     -4.25      0.00
    0   21   12    -21.64      0.00
    1   21   12     -5.62      0.00
    2   21   12     -8.87      0.00
    3   21   12     -3.93      0.00
    4   21   12     30.29      0.00
    5   21   12      5.86      0.00
    6   21   12     15.27      0.00
    7   21   12    -10.39      0.00
    8   21   12    -11.56      0.00
    9   21   12      0.91      0.00
   10   21   12     -4.96      0.00
   11   21   12      6.84      0.00
   12   21   12      8.15      0.00
   13   21   12      4.78      0.00
   14   21   12     -1.67      0.00
  -14   22   12     -9.39      0.00
  -13   22   12     -7.62      0.00
  -12   22   12     11.24      0.00
  -11   22   12     -2.93      0.00
  -10   22   12      8.65      0.00
   -9   22   12      0.88      0.00
   -8   22   12     -2.92      0.00
   -7   22   12      1.45      0.00
   -6   22   12     -6.49      0.00
   -5   22   12      5.85      0.00
   -4   22   12    -13.28      0.00
   -3   22   12     -5.14      0.00
   -2   22   12     20.92      0.00
   -1   22   12     -0.88      0.00
    0   22   12      3.74      0.00
    1   22   12      1.49      0.00
    2   22   12     -0.80      0.00
    3   22   12     -3.03      0.00
    4   22   12     -9.60      0.00
    5   22   12     -7.68      0.00
    6   22   12     31.68      0.00
    7   22   12      4.87      0.00
    8   22   12    -24.38      0.00
    9   22   12      9.98      0.00
   10   22   12      6.39      0.00
   11   22   12     -8.22      0.00
   12   22   12      3.99      0.00
   13   22   12     -0.06      0.00
  -13   23   12      4.57      0.00
  -12   23   12     -2.28      0.00
  -11   23   12     -3.07      0.00
  -10   23   12     12.21      0.00
   -9   23   12     -5.42      0.00
   -8   23   12     10.46      0.00
   -7   23   12     -0.66      0.00
   -6   23   12     -5.03      0.00
   -5   23   12      7.16      0.00
   -4   23   12     18.17      0.00
   -3   23   12     11.30      0.00
   -2   23   12     -1.42      0.00
   -1   23   12     -3.01      0.00
    0   23   12      3.76      0.00
    1   23   12     -0.36      0.00
    2   23   12     -0.20      0.00
    3   23   12    -10.06      0.00
    4   23   12    -12.75      0.00
    5   23   12      8.26      0.00
    6   23   12     -3.97      0.00
    7   23   12      4.68      0.00
    8   23   12      3.01      0.00
    9   23   12      4.01      0.00
   10   23   12     -3.40      0.00
   11   23   12     -1.54      0.00
   12   23   12     -1.32      0.00
  -12   24   12      5.21      0.00
  -11   24   12      2.39      0.00
  -10   24   12      4.03      0.00
   -9   24   12     -4.99      0.00
   -8   24   12     -8.97      0.00
   -7   24   12     -9.38      0.00
   -6   24   12     24.93      0.00
   -5   24   12     -4.51      0.00
   -4   24   12     -8.40      0.00
   -3   24   12      6.78      0.00
   -2   24   12      9.31      0.00
   -1   24   12      5.56      0.00
    0   24   12     -5.24      0.00
    1   24   12     -3.25      0.00
    2   24   12    -15.31      0.00
    3   24   12    -10.30      0.00
    4   24   12      1.96      0.00
    5   24   12     -2.95      0.00
    6   24   12     -6.55      0.00
    7   24   12      8.16      0.00
    8   24   12      0.85      0.00
    9   24   12     -8.01      0.00
   10   24   12     -1.64      0.00
   11   24   12      1.95      0.00
   12   24   12     -4.33      0.00
  -11   25   12     -5.23      0.00
  -10   25   12      8.02      0.00
   -9   25   12    -15.66      0.00
   -8   25   12      2.24      0.00
   -7   25   12      4.85      0.00
   -6   25   12    -21.48      0.00
   -5   25   12     23.24      0.00
   -4   25   12      7.34      0.00
   -3   25   12     -1.03      0.00
   -2   25   12      3.25      0.00
   -1   25   12     13.75      0.00
    0   25   12     17.98      0.00
    1   25   12     -4.14      0.00
    2   25   12     -1.03      0.00
    3   25   12     -4.51      0.00
    4   25   12     -6.85      0.00
    5   25   12      7.41      0.00
    6   25   12     -3.72      0.00
    7   25   12      4.55      0.00
    8   25   12      2.87      0.00
    9   25   12     -9.33      0.00
   10   25   12      6.74      0.00
   11   25   12     -2.82      0.00
  -10   26   12     -4.38      0.00
   -9   26   12    -12.20      0.00
   -8   26   12    -17.07      0.00
   -7   26   12     -0.57      0.00
   -6   26   12      9.18      0.00
   -5   26   12    -17.14      0.00
   -4   26   12     12.85      0.00
   -3   26   12      8.30      0.00
   -2   26   12     -4.17      0.00
   -1   26   12     10.69      0.00
    0   26   12    -11.51      0.00
    1   26   12     -8.68      0.00
    2   26   12      6.35      0.00
    3   26   12    -14.78      0.00
    4   26   12     -7.65      0.00
    5   26   12      2.04      0.00
    6   26   12      0.52      0.00
    7   26   12     -2.01      0.00
    8   26   12      7.84      0.00
    9   26   12     10.47      0.00
   10   26   12      4.50      0.00
   -9   27   12     -1.17      0.00
   -8   27   12     -5.76      0.00
   -7   27   12    -12.25      0.00
   -6   27   12      7.56      0.00
   -5   27   12    -12.86      0.00
   -4   27   12    -18.31      0.00
   -3   27   12      9.87      0.00
   -2   27   12      7.69      0.00
   -1   27   12     -4.97      0.00
    0   27   12      1.59      0.00
    1   27   12      1.66      0.00
    2   27   12      9.92      0.00
    3   27   12    -14.06      0.00
    4   27   12      3.93      0.00
    5   27   12      4.31      0.00
    6   27   12     16.42      0.00
    7   27   12     -1.68      0.00
    8   27   12     -7.66      0.00
    9   27   12     -1.39      0.00
   -8   28   12     -4.20      0.00
   -7   28   12     -1.59      0.00
   -6   28   12     -5.10      0.00
   -5   28   12     10.13      0.00
   -4   28   12     -3.99      0.00
   -3   28   12     10.23      0.00
   -2   28   12     -6.01      0.00
   -1   28   12      4.16      0.00
    0   28   12      5.63      0.00
    1   28   12     13.59      0.00
    2   28   12      4.42      0.00
    3   28   12      0.11      0.00
    4   28   12     -1.50      0.00
    5   28   12     -1.01      0.00
    6   28   12     -0.59      0.00
    7   28   12     -0.65      0.00
   -6   29   12      8.28      0.00
   -5   29   12    -14.39      0.00
   -4   29   12      3.83      0.00
   -3   29   12      1.29      0.00
   -2   29   12     -3.35      0.00
   -1   29   12     -1.30      0.00
    0   29   12     -9.04      0.00
    1   29   12      2.56      0.00
    2   29   12     -7.80      0.00
    3   29   12     14.47      0.00
    4   29   12     -5.82      0.00
    5   29   12     -3.82      0.00
    6   29   12     -2.89      0.00
   -4   30   12      1.91      0.00
   -3   30   12      0.64      0.00
   -2   30   12     -9.07      0.00
   -1   30   12      3.29      0.00
    0   30   12      2.28      0.00
    1   30   12     -2.99      0.00
    2   30   12     10.85      0.00
    3   30   12     -4.93      0.00
  -19    1   13      4.37      0.00
  -18    1   13      3.23      0.00
  -17    1   13      5.11      0.00
  -16    1   13     -0.85      0.00
  -15    1   13     -2.13      0.00
  -14    1   13     -8.06      0.00
  -13    1   13      0.72      0.00
  -12    1   13      5.37      0.00
  -11    1   13      2.69      0.00
  -10    1   13     13.19      0.00
   -9    1   13    -42.64      0.00
   -8    1   13    -12.58      0.00
   -7    1   13     -6.52      0.00
   -6    1   13     -8.04      0.00
   -5    1   13     24.25      0.00
   -4    1   13     23.77      0.00
   -3    1   13    -30.13      0.00
   -2    1   13     12.67      0.00
   -1    1   13    -19.65      0.00
    0    1   13     16.42      0.00
    1    1   13     36.20      0.00
    2    1   13    -36.29      0.00
    3    1   13     10.58      0.00
    4    1   13     25.64      0.00
    5    1   13    -24.17      0.00
    6    1   13      3.32      0.00
    7    1   13    -12.41      0.00
    8    1   13     -5.27      0.00
    9    1   13    -10.72      0.00
   10    1   13    -28.20      0.00
   11    1   13     12.27      0.00
   12    1   13      9.67      0.00
   13    1   13     -0.87      0.00
   14    1   13      3.91      0.00
   15    1   13      3.29      0.00
   16    1   13      6.84      0.00
   17    1   13      1.21      0.00
   18    1   13     -8.77      0.00
  -19    2   13     -6.41      0.00
  -18    2   13     -1.65      0.00
  -17    2   13     -9.79      0.00
  -16    2   13      2.75      0.00
  -15    2   13    -14.69      0.00
  -14    2   13     -9.50      0.00
  -13    2   13      0.79      0.00
  -12    2   13     10.99      0.00
  -11    2   13     11.97      0.00
  -10    2   13     -1.35      0.00
   -9    2   13     34.66      0.00
   -8    2   13     -3.54      0.00
   -7    2   13     22.16      0.00
   -6    2   13     45.09      0.00
   -5    2   13    -43.46      0.00
   -4    2   13    -38.63      0.00
   -3    2   13      2.71      0.00
   -2    2   13    -19.62      0.00
   -1    2   13     26.46      0.00
    0    2   13     10.77      0.00
    1    2   13    -12.72      0.00
    2    2   13     31.61      0.00
    3    2   13     -3.31      0.00
    4    2   13    -14.11      0.00
    5    2   13    -13.24      0.00
    6    2   13     -0.08      0.00
    7    2   13      2.31      0.00
    8    2   13    -17.65      0.00
    9    2   13     -5.74      0.00
   10    2   13    -20.43      0.00
   11    2   13      2.36      0.00
   12    2   13     -6.48      0.00
   13    2   13     -4.09      0.00
   14    2   13     11.96      0.00
   15    2   13    -15.83      0.00
   16    2   13     -0.94      0.00
   17    2   13      5.07      0.00
   18    2   13     -7.65      0.00
  -19    3   13     -5.12      0.00
  -18    3   13      6.14      0.00
  -17    3   13     -7.94      0.00
  -16    3   13     -4.37      0.00
  -15    3   13      2.89      0.00
  -14    3   13      4.88      0.00
  -13    3   13    -21.18      0.00
  -12    3   13     -0.90      0.00
  -11    3   13     -2.26      0.00
  -10    3   13    -15.61      0.00
   -9    3   13     29.08      0.00
   -8    3   13      6.26      0.00
   -7    3   13     35.38      0.00
   -6    3   13      5.86      0.00
   -5    3   13    -35.74      0.00
   -4    3   13    -30.24      0.00
   -3    3   13      6.52      0.00
   -2    3   13    -24.77      0.00
   -1    3   13    -40.95      0.00
    0    3   13      4.86      0.00
    1    3   13    -38.43      0.00
    2    3   13     -8.52      0.00
    3    3   13     -0.51      0.00
    4    3   13     11.60      0.00
    5    3   13      8.64      0.00
    6    3   13     -6.79      0.00
    7    3   13      9.37      0.00
    8    3   13    -18.75      0.00
    9    3   13    -12.73      0.00
   10    3   13     28.69      0.00
   11    3   13     12.58      0.00
   12    3   13     -5.40      0.00
   13    3   13     -1.30      0.00
   14    3   13      6.16      0.00
   15    3   13      5.71      0.00
   16    3   13     -5.20      0.00
   17    3   13    -11.16      0.00
   18    3   13      3.31      0.00
  -19    4   13      7.64      0.00
  -18    4   13      0.78      0.00
  -17    4   13    -12.84      0.00
  -16    4   13     -6.49      0.00
  -15    4   13      7.86      0.00
  -14    4   13     12.32      0.00
  -13    4   13     10.57      0.00
  -12    4   13    -22.69      0.00
  -11    4   13     15.09      0.00
  -10    4   13      6.18      0.00
   -9    4   13     26.49      0.00
   -8    4   13     35.89      0.00
   -7    4   13     16.60      0.00
   -6    4   13     10.45      0.00
   -5    4   13    -26.78      0.00
   -4    4   13    -10.44      0.00
   -3    4   13    -12.24      0.00
   -2    4   13     17.34      0.00
   -1    4   13     20.20      0.00
    0    4   13     -7.15      0.00
    1    4   13     13.14      0.00
    2    4   13     16.86      0.00
    3    4   13      3.85      0.00
    4    4   13     53.47      0.00
    5    4   13     13.69      0.00
    6    4   13     -0.13      0.00
    7    4   13     42.28      0.00
    8    4   13     28.66      0.00
    9    4   13     -3.62      0.00
   10    4   13      6.00      0.00
   11    4   13      4.11      0.00
   12    4   13      5.79      0.00
   13    4   13    -23.44      0.00
   14    4   13      1.67      0.00
   15    4   13     10.75      0.00
   16    4   13     -6.98      0.00
   17    4   13     -5.04      0.00
   18    4   13      0.50      0.00
  -19    5   13      4.37      0.00
  -18    5   13      1.23      0.00
  -17    5   13      6.64      0.00
  -16    5   13      0.90      0.00
  -15    5   13    -10.01      0.00
  -14    5   13      2.53      0.00
  -13    5   13     12.74      0.00
  -12    5   13     10.86      0.00
  -11    5   13     11.86      0.00
  -10    5   13     -5.66      0.00
   -9    5   13     16.72      0.00
   -8    5   13     -1.40      0.00
   -7    5   13     23.83      0.00
   -6    5   13    -13.22      0.00
   -5    5   13     22.17      0.00
   -4    5   13    -21.30      0.00
   -3    5   13     19.35      0.00
   -2    5   13      5.04      0.00
   -1    5   13    -25.70      0.00
    0    5   13    -21.04      0.00
    1    5   13     47.27      0.00
    2    5   13    -18.47      0.00
    3    5   13     11.65      0.00
    4    5   13     -6.70      0.00
    5    5   13     -3.22      0.00
    6    5   13      5.16      0.00
    7    5   13      7.71      0.00
    8    5   13      9.40      0.00
    9    5   13     10.36      0.00
   10    5   13     -0.44      0.00
   11    5   13    -14.27      0.00
   12    5   13      9.64      0.00
   13    5   13     -3.70      0.00
   14    5   13     -3.46      0.00
   15    5   13      3.33      0.00
   16    5   13     -4.02      0.00
   17    5   13      2.10      0.00
   18    5   13     -4.00      0.00
  -19    6   13      3.20      0.00
  -18    6   13      4.52      0.00
  -17    6   13      9.60      0.00
  -16    6   13      0.42      0.00
  -15    6   13    -20.39      0.00
  -14    6   13      1.34      0.00
  -13    6   13     -7.95      0.00
  -12    6   13      3.92      0.00
  -11    6   13      4.28      0.00
  -10    6   13     12.62      0.00
   -9    6   13    -55.41      0.00
   -8    6   13    -22.89      0.00
   -7    6   13    -34.02      0.00
   -6    6   13     -9.71      0.00
   -5    6   13      7.79      0.00
   -4    6   13    -19.87      0.00
   -3    6   13     -3.52      0.00
   -2    6   13    -30.28      0.00
   -1    6   13     51.97      0.00
    0    6   13    -20.74      0.00
    1    6   13    -20.43      0.00
    2    6   13     -4.00      0.00
    3    6   13     12.36      0.00
    4    6   13     23.13      0.00
    5    6   13    -15.26      0.00
    6    6   13     21.98      0.00
    7    6   13      2.72      0.00
    8    6   13    -20.01      0.00
    9    6   13      7.52      0.00
   10    6   13     12.58      0.00
   11    6   13    -17.68      0.00
   12    6   13     -8.91      0.00
   13    6   13      3.05      0.00
   14    6   13      0.36      0.00
   15    6   13     -4.20      0.00
   16    6   13     -6.04      0.00
   17    6   13     -0.29      0.00
   18    6   13     -0.19      0.00
  -18    7   13     -3.82      0.00
  -17    7   13    -12.37      0.00
  -16    7   13     11.95      0.00
  -15    7   13      3.08      0.00
  -14    7   13     -3.85      0.00
  -13    7   13     -7.27      0.00
  -12    7   13    -24.86      0.00
  -11    7   13     -7.52      0.00
  -10    7   13     16.64      0.00
   -9    7   13      0.44      0.00
   -8    7   13      9.05      0.00
   -7    7   13    -15.69      0.00
   -6    7   13     -4.28      0.00
   -5    7   13      1.69      0.00
   -4    7   13     14.80      0.00
   -3    7   13    -17.69      0.00
   -2    7   13     17.71      0.00
   -1    7   13    -26.37      0.00
    0    7   13     27.35      0.00
    1    7   13      5.33      0.00
    2    7   13     42.56      0.00
    3    7   13    -16.54      0.00
    4    7   13    -47.42      0.00
    5    7   13     -9.41      0.00
    6    7   13     21.34      0.00
    7    7   13     -0.47      0.00
    8    7   13    -13.19      0.00
    9    7   13     -4.36      0.00
   10    7   13      7.91      0.00
   11    7   13     -9.97      0.00
   12    7   13    -15.90      0.00
   13    7   13     -2.46      0.00
   14    7   13      6.73      0.00
   15    7   13      3.88      0.00
   16    7   13      2.30      0.00
   17    7   13      7.48      0.00
   18    7   13     16.64      0.00
  -18    8   13     -4.84      0.00
  -17    8   13      6.43      0.00
  -16    8   13    -13.73      0.00
  -15    8   13      2.04      0.00
  -14    8   13     -1.76      0.00
  -13    8   13    -11.87      0.00
  -12    8   13     -9.22      0.00
  -11    8   13      1.07      0.00
  -10    8   13     11.74      0.00
   -9    8   13    -15.56      0.00
   -8    8   13     17.38      0.00
   -7    8   13      5.91      0.00
   -6    8   13      3.70      0.00
   -5    8   13     28.04      0.00
   -4    8   13    -31.92      0.00
   -3    8   13     17.26      0.00
   -2    8   13     14.60      0.00
   -1    8   13    -22.51      0.00
    0    8   13     -3.49      0.00
    1    8   13     17.17      0.00
    2    8   13     61.88      0.00
    3    8   13     22.67      0.00
    4    8   13    -18.27      0.00
    5    8   13     35.53      0.00
    6    8   13      2.06      0.00
    7    8   13     -7.95      0.00
    8    8   13    -11.67      0.00
    9    8   13      4.74      0.00
   10    8   13      3.41      0.00
   11    8   13      9.51      0.00
   12    8   13      7.58      0.00
   13    8   13     -3.00      0.00
   14    8   13     -9.29      0.00
   15    8   13     -4.45      0.00
   16    8   13      2.88      0.00
   17    8   13      8.81      0.00
   18    8   13      5.30      0.00
  -18    9   13      3.89      0.00
  -17    9   13    -13.66      0.00
  -16    9   13     -0.11      0.00
  -15    9   13      2.41      0.00
  -14    9   13      0.49      0.00
  -13    9   13     13.66      0.00
  -12    9   13     -2.62      0.00
  -11    9   13    -20.10      0.00
  -10    9   13     -8.73      0.00
   -9    9   13    -15.30      0.00
   -8    9   13     38.95      0.00
   -7    9   13      0.06      0.00
   -6    9   13     26.71      0.00
   -5    9   13     -7.90      0.00
   -4    9   13     30.47      0.00
   -3    9   13     13.72      0.00
   -2    9   13     -9.83      0.00
   -1    9   13     20.38      0.00
    0    9   13     -8.36      0.00
    1    9   13     19.36      0.00
    2    9   13     13.64      0.00
    3    9   13     17.11      0.00
    4    9   13    -21.75      0.00
    5    9   13    -16.86      0.00
    6    9   13      9.31      0.00
    7    9   13     -0.17      0.00
    8    9   13    -17.96      0.00
    9    9   13     -4.63      0.00
   10    9   13    -27.43      0.00
   11    9   13     -1.99      0.00
   12    9   13     -7.22      0.00
   13    9   13     16.10      0.00
   14    9   13      1.27      0.00
   15    9   13      2.57      0.00
   16    9   13      3.17      0.00
   17    9   13     -8.99      0.00
  -18   10   13      3.01      0.00
  -17   10   13     -3.65      0.00
  -16   10   13      1.57      0.00
  -15   10   13     -1.66      0.00
  -14   10   13     -6.33      0.00
  -13   10   13     -8.00      0.00
  -12   10   13     -0.08      0.00
  -11   10   13      4.19      0.00
  -10   10   13      9.11      0.00
   -9   10   13     -0.68      0.00
   -8   10   13    -11.55      0.00
   -7   10   13     15.51      0.00
   -6   10   13    -13.25      0.00
   -5   10   13      1.04      0.00
   -4   10   13    -26.51      0.00
   -3   10   13    -30.74      0.00
   -2   10   13     -1.54      0.00
   -1   10   13     -3.32      0.00
    0   10   13     56.96      0.00
    1   10   13    -30.94      0.00
    2   10   13     22.82      0.00
    3   10   13    -17.74      0.00
    4   10   13    -55.97      0.00
    5   10   13    -12.24      0.00
    6   10   13      9.30      0.00
    7   10   13      9.38      0.00
    8   10   13     27.14      0.00
    9   10   13      9.90      0.00
   10   10   13     -1.62      0.00
   11   10   13    -10.64      0.00
   12   10   13     -7.88      0.00
   13   10   13      3.49      0.00
   14   10   13     -1.91      0.00
   15   10   13    -10.04      0.00
   16   10   13     -0.28      0.00
   17   10   13      6.27      0.00
  -18   11   13     -1.02      0.00
  -17   11   13      5.77      0.00
  -16   11   13     -1.72      0.00
  -15   11   13     13.50      0.00
  -14   11   13     -0.07      0.00
  -13   11   13     -1.46      0.00
  -12   11   13     -9.69      0.00
  -11   11   13     14.06      0.00
  -10   11   13    -15.64      0.00
   -9   11   13     -9.92      0.00
   -8   11   13      0.68      0.00
   -7   11   13      8.78      0.00
   -6   11   13      4.27      0.00
   -5   11   13    -13.58      0.00
   -4   11   13    -24.33      0.00
   -3   11   13     33.89      0.00
   -2   11   13    -10.31      0.00
   -1   11   13     -5.47      0.00
    0   11   13    -38.33      0.00
    1   11   13      1.51      0.00
    2   11   13     24.19      0.00
    3   11   13     -5.13      0.00
    4   11   13     10.14      0.00
    5   11   13     -9.26      0.00
    6   11   13     -5.07      0.00
    7   11   13     -2.72      0.00
    8   11   13     -2.77      0.00
    9   11   13      0.34      0.00
   10   11   13     25.45      0.00
   11   11   13      3.80      0.00
   12   11   13     -7.48      0.00
   13   11   13     -9.48      0.00
   14   11   13     -7.85      0.00
   15   11   13     -0.74      0.00
   16   11   13      4.70      0.00
   17   11   13      0.16      0.00
  -17   12   13      7.05      0.00
  -16   12   13     14.21      0.00
  -15   12   13     24.85      0.00
  -14   12   13     20.34      0.00
  -13   12   13     17.03      0.00
  -12   12   13     -3.33      0.00
  -11   12   13     -3.10      0.00
  -10   12   13      2.11      0.00
   -9   12   13     16.63      0.00
   -8   12   13     -6.72      0.00
   -7   12   13     -3.37      0.00
   -6   12   13     -9.67      0.00
   -5   12   13     14.38      0.00
   -4   12   13     -0.13      0.00
   -3   12   13      6.42      0.00
   -2   12   13     -1.82      0.00
   -1   12   13     -1.35      0.00
    0   12   13     32.98      0.00
    1   12   13    -33.38      0.00
    2   12   13    -52.56      0.00
    3   12   13     30.71      0.00
    4   12   13      9.05      0.00
    5   12   13     -1.83      0.00
    6   12   13      0.03      0.00
    7   12   13      2.35      0.00
    8   12   13      4.92      0.00
    9   12   13     20.09      0.00
   10   12   13     14.23      0.00
   11   12   13     -0.86      0.00
   12   12   13     -8.90      0.00
   13   12   13      2.88      0.00
   14   12   13     -0.82      0.00
   15   12   13     -8.22      0.00
   16   12   13     -4.54      0.00
   17   12   13      7.75      0.00
  -17   13   13     -1.82      0.00
  -16   13   13      6.07      0.00
  -15   13   13     11.50      0.00
  -14   13   13      8.45      0.00
  -13   13   13     -2.26      0.00
  -12   13   13     31.35      0.00
  -11   13   13      4.50      0.00
  -10   13   13    -11.56      0.00
   -9   13   13     11.81      0.00
   -8   13   13    -12.05      0.00
   -7   13   13     -5.45      0.00
   -6   13   13      3.05      0.00
   -5   13   13    -11.61      0.00
   -4   13   13     -1.76      0.00
   -3   13   13      8.10      0.00
   -2   13   13     -2.61      0.00
   -1   13   13     11.37      0.00
    0   13   13    -30.54      0.00
    1   13   13     -5.50      0.00
    2   13   13     37.84      0.00
    3   13   13    -21.40      0.00
    4   13   13     14.26      0.00
    5   13   13    -18.13      0.00
    6   13   13      3.78      0.00
    7   13   13     29.22      0.00
    8   13   13     -9.34      0.00
    9   13   13     -0.07      0.00
   10   13   13    -10.65      0.00
   11   13   13     -1.65      0.00
   12   13   13     17.28      0.00
   13   13   13     -5.18      0.00
   14   13   13     -3.57      0.00
   15   13   13     -0.78      0.00
   16   13   13     -7.93      0.00
  -17   14   13      4.79      0.00
  -16   14   13      0.20      0.00
  -15   14   13      2.90      0.00
  -14   14   13      6.58      0.00
  -13   14   13     -9.28      0.00
  -12   14   13     11.20      0.00
  -11   14   13     -2.48      0.00
  -10   14   13     -8.73      0.00
   -9   14   13    -13.21      0.00
   -8   14   13     -9.62      0.00
   -7   14   13    -23.77      0.00
   -6   14   13    -14.03      0.00
   -5   14   13     -5.96      0.00
   -4   14   13     22.45      0.00
   -3   14   13    -14.59      0.00
   -2   14   13      7.25      0.00
   -1   14   13     10.75      0.00
    0   14   13     14.74      0.00
    1   14   13     17.32      0.00
    2   14   13    -16.54      0.00
    3   14   13     34.72      0.00
    4   14   13     -3.60      0.00
    5   14   13    -21.46      0.00
    6   14   13    -27.21      0.00
    7   14   13    -18.28      0.00
    8   14   13     10.05      0.00
    9   14   13      0.90      0.00
   10   14   13      1.83      0.00
   11   14   13     -2.02      0.00
   12   14   13      5.02      0.00
   13   14   13     -5.16      0.00
   14   14   13      3.81      0.00
   15   14   13      2.15      0.00
   16   14   13     -1.18      0.00
  -16   15   13      0.12      0.00
  -15   15   13     -0.78      0.00
  -14   15   13     -6.37      0.00
  -13   15   13    -12.71      0.00
  -12   15   13     -1.18      0.00
  -11   15   13      1.78      0.00
  -10   15   13     -2.36      0.00
   -9   15   13    -19.78      0.00
   -8   15   13    -14.26      0.00
   -7   15   13    -15.78      0.00
   -6   15   13     15.39      0.00
   -5   15   13     17.61      0.00
   -4   15   13    -34.47      0.00
   -3   15   13      5.37      0.00
   -2   15   13      9.30      0.00
   -1   15   13     -5.84      0.00
    0   15   13     14.19      0.00
    1   15   13     18.80      0.00
    2   15   13    -43.10      0.00
    3   15   13      7.62      0.00
    4   15   13     37.85      0.00
    5   15   13     -3.90      0.00
    6   15   13    -20.67      0.00
    7   15   13     -0.15      0.00
    8   15   13     -7.08      0.00
    9   15   13      4.00      0.00
   10   15   13    -10.15      0.00
   11   15   13     -0.45      0.00
   12   15   13     -4.07      0.00
   13   15   13      5.17      0.00
   14   15   13     -0.70      0.00
   15   15   13      0.28      0.00
   16   15   13      6.21      0.00
  -16   16   13      2.65      0.00
  -15   16   13     -8.74      0.00
  -14   16   13    -13.21      0.00
  -13   16   13     -3.93      0.00
  -12   16   13     -6.45      0.00
  -11   16   13      2.21      0.00
  -10   16   13    -12.43      0.00
   -9   16   13     15.26      0.00
   -8   16   13     11.59      0.00
   -7   16   13    -13.62      0.00
   -6   16   13     25.83      0.00
   -5   16   13     19.61      0.00
   -4   16   13     18.62      0.00
   -3   16   13      5.46      0.00
   -2   16   13      1.91      0.00
   -1   16   13    -10.65      0.00
    0   16   13      4.99      0.00
    1   16   13     -5.33      0.00
    2   16   13      1.53      0.00
    3   16   13    -10.79      0.00
    4   16   13    -19.24      0.00
    5   16   13      3.20      0.00
    6   16   13     29.52      0.00
    7   16   13    -14.61      0.00
    8   16   13      3.35      0.00
    9   16   13     -2.91      0.00
   10   16   13     -9.54      0.00
   11   16   13     -2.47      0.00
   12   16   13     -0.21      0.00
   13   16   13      4.40      0.00
   14   16   13      2.91      0.00
   15   16   13     -3.14      0.00
  -16   17   13      5.23      0.00
  -15   17   13     -1.42      0.00
  -14   17   13     -7.46      0.00
  -13   17   13      2.18      0.00
  -12   17   13      8.79      0.00
  -11   17   13     -5.20      0.00
  -10   17   13    -16.96      0.00
   -9   17   13      1.73      0.00
   -8   17   13     16.18      0.00
   -7   17   13     -8.39      0.00
   -6   17   13      6.41      0.00
   -5   17   13     -8.82      0.00
   -4   17   13     -6.54      0.00
   -3   17   13     -9.97      0.00
   -2   17   13      2.26      0.00
   -1   17   13      3.67      0.00
    0   17   13     36.52      0.00
    1   17   13     -8.34      0.00
    2   17   13    -12.77      0.00
    3   17   13    -35.87      0.00
    4   17   13     19.33      0.00
    5   17   13     26.70      0.00
    6   17   13     -4.34      0.00
    7   17   13      8.92      0.00
    8   17   13     -0.19      0.00
    9   17   13    -20.21      0.00
   10   17   13     18.79      0.00
   11   17   13     -3.35      0.00
   12   17   13    -10.06      0.00
   13   17   13     -2.22      0.00
   14   17   13      8.99      0.00
   15   17   13    -11.76      0.00
  -15   18   13      3.81      0.00
  -14   18   13      3.88      0.00
  -13   18   13     -5.26      0.00
  -12   18   13      0.56      0.00
  -11   18   13      1.73      0.00
  -10   18   13     -9.73      0.00
   -9   18   13     -0.94      0.00
   -8   18   13      3.78      0.00
   -7   18   13     11.68      0.00
   -6   18   13     -1.31      0.00
   -5   18   13    -15.30      0.00
   -4   18   13      8.62      0.00
   -3   18   13      7.57      0.00
   -2   18   13    -21.76      0.00
   -1   18   13     21.58      0.00
    0   18   13    -26.01      0.00
    1   18   13     21.28      0.00
    2   18   13    -15.72      0.00
    3   18   13     -7.65      0.00
    4   18   13     30.06      0.00
    5   18   13    -24.47      0.00
    6   18   13     -7.91      0.00
    7   18   13     26.76      0.00
    8   18   13    -14.56      0.00
    9   18   13     -2.40      0.00
   10   18   13      7.98      0.00
   11   18   13     10.61      0.00
   12   18   13    -11.51      0.00
   13   18   13     -2.92      0.00
   14   18   13     -0.29      0.00
  -15   19   13     -5.08      0.00
  -14   19   13      0.77      0.00
  -13   19   13     -0.82      0.00
  -12   19   13      3.71      0.00
  -11   19   13      2.06      0.00
  -10   19   13    -11.88      0.00
   -9   19   13      2.89      0.00
   -8   19   13      0.55      0.00
   -7   19   13     13.58      0.00
   -6   19   13    -22.99      0.00
   -5   19   13    -12.19      0.00
   -4   19   13     -1.19      0.00
   -3   19   13    -11.76      0.00
   -2   19   13      1.11      0.00
   -1   19   13      1.18      0.00
    0   19   13     10.35      0.00
    1   19   13      9.99      0.00
    2   19   13     -4.96      0.00
    3   19   13     22.42      0.00
    4   19   13    -12.08      0.00
    5   19   13     16.52      0.00
    6   19   13     -3.17      0.00
    7   19   13      5.28      0.00
    8   19   13     18.95      0.00
    9   19   13      7.32      0.00
   10   19   13      0.60      0.00
   11   19   13     -0.32      0.00
   12   19   13     -6.09      0.00
   13   19   13      5.49      0.00
   14   19   13      2.05      0.00
  -14   20   13     -2.36      0.00
  -13   20   13      9.65      0.00
  -12   20   13      4.27      0.00
  -11   20   13     -8.85      0.00
  -10   20   13     -4.23      0.00
   -9   20   13    -12.45      0.00
   -8   20   13     -8.69      0.00
   -7   20   13     -7.53      0.00
   -6   20   13    -14.56      0.00
   -5   20   13     -4.94      0.00
   -4   20   13      7.75      0.00
   -3   20   13      2.47      0.00
   -2   20   13     11.40      0.00
   -1   20   13     26.11      0.00
    0   20   13     16.70      0.00
    1   20   13     19.68      0.00
    2   20   13     10.05      0.00
    3   20   13    -24.18      0.00
    4   20   13     20.40      0.00
    5   20   13      5.04      0.00
    6   20   13    -10.29      0.00
    7   20   13    -22.41      0.00
    8   20   13      6.76      0.00
    9   20   13      5.59      0.00
   10   20   13     -5.67      0.00
   11   20   13      4.38      0.00
   12   20   13      4.06      0.00
   13   20   13     -0.46      0.00
  -13   21   13      0.33      0.00
  -12   21   13      5.04      0.00
  -11   21   13      6.54      0.00
  -10   21   13     -2.93      0.00
   -9   21   13     -0.10      0.00
   -8   21   13    -14.71      0.00
   -7   21   13      1.37      0.00
   -6   21   13      5.06      0.00
   -5   21   13     -2.68      0.00
   -4   21   13     -6.47      0.00
   -3   21   13     16.58      0.00
   -2   21   13     -0.50      0.00
   -1   21   13      2.17      0.00
    0   21   13      6.17      0.00
    1   21   13     28.63      0.00
    2   21   13     -0.20      0.00
    3   21   13     -5.16      0.00
    4   21   13     -6.20      0.00
    5   21   13     -2.38      0.00
    6   21   13     -9.65      0.00
    7   21   13    -14.48      0.00
    8   21   13     20.04      0.00
    9   21   13     -3.04      0.00
   10   21   13     -3.56      0.00
   11   21   13     -0.46      0.00
   12   21   13     -6.19      0.00
   13   21   13     -1.73      0.00
  -13   22   13      8.83      0.00
  -12   22   13      4.39      0.00
  -11   22   13     -4.99      0.00
  -10   22   13     11.33      0.00
   -9   22   13      3.42      0.00
   -8   22   13     -0.54      0.00
   -7   22   13      7.07      0.00
   -6   22   13      9.35      0.00
   -5   22   13      8.02      0.00
   -4   22   13      0.73      0.00
   -3   22   13     -9.83      0.00
   -2   22   13      0.94      0.00
   -1   22   13     10.81      0.00
    0   22   13      8.80      0.00
    1   22   13      0.74      0.00
    2   22   13      0.10      0.00
    3   22   13     29.06      0.00
    4   22   13     -0.52      0.00
    5   22   13      1.73      0.00
    6   22   13    -11.88      0.00
    7   22   13    -10.45      0.00
    8   22   13     -6.91      0.00
    9   22   13      7.02      0.00
   10   22   13     -4.81      0.00
   11   22   13     -1.18      0.00
   12   22   13     10.66      0.00
  -12   23   13      6.82      0.00
  -11   23   13     -1.82      0.00
  -10   23   13     10.97      0.00
   -9   23   13      1.31      0.00
   -8   23   13     -0.06      0.00
   -7   23   13    -14.41      0.00
   -6   23   13     11.63      0.00
   -5   23   13    -19.11      0.00
   -4   23   13      1.69      0.00
   -3   23   13    -24.95      0.00
   -2   23   13    -10.89      0.00
   -1   23   13      4.33      0.00
    0   23   13      0.24      0.00
    1   23   13    -10.06      0.00
    2   23   13      5.01      0.00
    3   23   13      5.23      0.00
    4   23   13     15.43      0.00
    5   23   13     13.79      0.00
    6   23   13     11.54      0.00
    7   23   13     -8.68      0.00
    8   23   13     -9.85      0.00
    9   23   13     -7.07      0.00
   10   23   13     -2.45      0.00
   11   23   13     -5.66      0.00
  -11   24   13     -2.35      0.00
  -10   24   13     -1.11      0.00
   -9   24   13     -2.91      0.00
   -8   24   13      3.35      0.00
   -7   24   13      4.63      0.00
   -6   24   13      8.67      0.00
   -5   24   13    -17.15      0.00
   -4   24   13     -0.13      0.00
   -3   24   13    -15.68      0.00
   -2   24   13      1.08      0.00
   -1   24   13    -13.99      0.00
    0   24   13      4.38      0.00
    1   24   13      0.24      0.00
    2   24   13      0.33      0.00
    3   24   13      5.66      0.00
    4   24   13     18.53      0.00
    5   24   13     -6.45      0.00
    6   24   13      9.88      0.00
    7   24   13     11.31      0.00
    8   24   13     -5.10      0.00
    9   24   13     -5.99      0.00
   10   24   13     -1.10      0.00
  -10   25   13     -0.49      0.00
   -9   25   13     -8.03      0.00
   -8   25   13     -2.29      0.00
   -7   25   13     18.27      0.00
   -6   25   13     -3.92      0.00
   -5   25   13      4.89      0.00
   -4   25   13     -7.13      0.00
   -3   25   13     12.41      0.00
   -2   25   13     11.88      0.00
   -1   25   13     -5.31      0.00
    0   25   13     -4.23      0.00
    1   25   13      3.28      0.00
    2   25   13     -2.98      0.00
    3   25   13      0.78      0.00
    4   25   13     -0.54      0.00
    5   25   13     13.41      0.00
    6   25   13     10.07      0.00
    7   25   13     -3.77      0.00
    8   25   13     -4.71      0.00
    9   25   13     -1.10      0.00
   -9   26   13      9.27      0.00
   -8   26   13    -14.64      0.00
   -7   26   13      7.31      0.00
   -6   26   13      0.77      0.00
   -5   26   13      9.06      0.00
   -4   26   13     -6.70      0.00
   -3   26   13     15.71      0.00
   -2   26   13      3.05      0.00
   -1   26   13      3.68      0.00
    0   26   13     -7.08      0.00
    1   26   13      5.23      0.00
    2   26   13    -11.44      0.00
    3   26   13      8.54      0.00
    4   26   13    -15.42      0.00
    5   26   13     -1.19      0.00
    6   26   13      3.04      0.00
    7   26   13     11.63      0.00
    8   26   13      7.76      0.00
   -8   27   13     -2.06      0.00
   -7   27   13      5.09      0.00
   -6   27   13      4.10      0.00
   -5   27   13     -0.80      0.00
   -4   27   13     14.05      0.00
   -3   27   13      0.72      0.00
   -2   27   13     -3.40      0.00
   -1   27   13    -11.72      0.00
    0   27   13      1.99      0.00
    1   27   13    -14.51      0.00
    2   27   13     -8.83      0.00
    3   27   13    -15.10      0.00
    4   27   13     -2.67      0.00
    5   27   13     -8.87      0.00
    6   27   13      1.37      0.00
    7   27   13     13.65      0.00
   -6   28   13      4.75      0.00
   -5   28   13     -3.74      0.00
   -4   28   13      1.07      0.00
   -3   28   13     -2.45      0.00
   -2   28   13     -4.94      0.00
   -1   28   13     -4.85      0.00
    0   28   13      4.42      0.00
    1   28   13    -14.33      0.00
    2   28   13      5.61      0.00
    3   28   13    -14.47      0.00
    4   28   13      5.78      0.00
    5   28   13     -1.93      0.00
   -3   29   13      1.16      0.00
   -2   29   13     -4.08      0.00
   -1   29   13     -3.05      0.00
    0   29   13      0.08      0.00
    1   29   13     -1.48      0.00
    2   29   13     -4.91      0.00
    3   29   13     11.75      0.00
  -18    0   14      4.04      0.00
  -17    0   14     -6.88      0.00
  -16    0   14     -1.33      0.00
  -15    0   14      3.77      0.00
  -14    0   14     -3.31      0.00
  -13    0   14      8.75      0.00
  -12    0   14     -7.13      0.00
  -11    0   14     -0.42      0.00
  -10    0   14    -16.55      0.00
   -9    0   14    -22.43      0.00
   -8    0   14     30.78      0.00
   -7    0   14     15.04      0.00
   -6    0   14     23.49      0.00
   -5    0   14     -0.25      0.00
   -4    0   14     27.96      0.00
   -3    0   14     -0.69      0.00
   -2    0   14      0.99      0.00
   -1    0   14    -42.44      0.00
    0    0   14    -44.24      0.00
    1    0   14    -24.98      0.00
    2    0   14     52.67      0.00
    3    0   14    -36.63      0.00
    4    0   14    -17.41      0.00
    5    0   14     -0.72      0.00
    6    0   14     -3.75      0.00
    7    0   14     28.21      0.00
    8    0   14     31.53      0.00
    9    0   14     21.19      0.00
   10    0   14     13.00      0.00
   11    0   14    -12.54      0.00
   12    0   14      0.00      0.00
   13    0   14      0.72      0.00
   14    0   14    -13.22      0.00
   15    0   14     16.25      0.00
   16    0   14      3.63      0.00
   17    0   14     -7.15      0.00
  -18    1   14     -3.18      0.00
  -17    1   14      8.76      0.00
  -16    1   14     16.88      0.00
  -15    1   14     -2.25      0.00
  -14    1   14    -12.69      0.00
  -13    1   14    -13.44      0.00
  -12    1   14     -8.47      0.00
  -11    1   14     21.76      0.00
  -10    1   14     29.42      0.00
   -9    1   14     -2.50      0.00
   -8    1   14     26.67      0.00
   -7    1   14      6.54      0.00
   -6    1   14    -12.88      0.00
   -5    1   14     17.44      0.00
   -4    1   14    -11.98      0.00
   -3    1   14      1.90      0.00
   -2    1   14     24.28      0.00
   -1    1   14    -19.18      0.00
    0    1   14      9.97      0.00
    1    1   14      8.51      0.00
    2    1   14     62.87      0.00
    3    1   14     10.73      0.00
    4    1   14    -17.57      0.00
    5    1   14     -7.17      0.00
    6    1   14      3.21      0.00
    7    1   14    -17.31      0.00
    8    1   14     -5.89      0.00
    9    1   14      1.48      0.00
   10    1   14     19.13      0.00
   11    1   14    -20.68      0.00
   12    1   14    -17.13      0.00
   13    1   14     -3.96      0.00
   14    1   14    -19.02      0.00
   15    1   14      0.75      0.00
   16    1   14     -5.19      0.00
   17    1   14      3.21      0.00
  -18    2   14     -8.07      0.00
  -17    2   14      0.53      0.00
  -16    2   14      7.28      0.00
  -15    2   14      1.20      0.00
  -14    2   14     -0.75      0.00
  -13    2   14    -14.32      0.00
  -12    2   14     -1.14      0.00
  -11    2   14     -3.38      0.00
  -10    2   14     -2.01      0.00
   -9    2   14     -0.52      0.00
   -8    2   14    -33.60      0.00
   -7    2   14    -10.90      0.00
   -6    2   14     -1.51      0.00
   -5    2   14    -11.29      0.00
   -4    2   14     -1.21      0.00
   -3    2   14      1.70      0.00
   -2    2   14     15.38      0.00
   -1    2   14      5.00      0.00
    0    2   14    -24.84      0.00
    1    2   14     36.61      0.00
    2    2   14    -38.01      0.00
    3    2   14    -23.23      0.00
    4    2   14     14.04      0.00
    5    2   14    -34.62      0.00
    6    2   14    -11.92      0.00
    7    2   14     14.47      0.00
    8    2   14    -52.82      0.00
    9    2   14     -7.25      0.00
   10    2   14     20.00      0.00
   11    2   14     19.86      0.00
   12    2   14      7.23      0.00
   13    2   14     -8.58      0.00
   14    2   14      8.80      0.00
   15    2   14     -8.58      0.00
   16    2   14     -1.25      0.00
   17    2   14      4.62      0.00
  -18    3   14     -1.14      0.00
  -17    3   14      3.60      0.00
  -16    3   14     -4.69      0.00
  -15    3   14      7.15      0.00
  -14    3   14     -7.80      0.00
  -13    3   14     17.01      0.00
  -12    3   14      6.88      0.00
  -11    3   14      6.18      0.00
  -10    3   14    -17.37      0.00
   -9    3   14     -2.61      0.00
   -8    3   14      2.92      0.00
   -7    3   14     -7.58      0.00
   -6    3   14    -47.52      0.00
   -5    3   14      2.78      0.00
   -4    3   14     -0.00      0.00
   -3    3   14     21.59      0.00
   -2    3   14    -14.02      0.00
   -1    3   14      9.05      0.00
    0    3   14     -1.28      0.00
    1    3   14     -9.20      0.00
    2    3   14      5.58      0.00
    3    3   14     22.60      0.00
    4    3   14      2.45      0.00
    5    3   14      3.69      0.00
    6    3   14     10.21      0.00
    7    3   14     16.93      0.00
    8    3   14     14.46      0.00
    9    3   14    -15.21      0.00
   10    3   14     -3.89      0.00
   11    3   14     -1.80      0.00
   12    3   14      5.55      0.00
   13    3   14      0.79      0.00
   14    3   14    -12.13      0.00
   15    3   14     -1.33      0.00
   16    3   14     -8.32      0.00
   17    3   14     -8.08      0.00
  -18    4   14      0.64      0.00
  -17    4   14     10.66      0.00
  -16    4   14     -7.07      0.00
  -15    4   14     -5.00      0.00
  -14    4   14     -1.74      0.00
  -13    4   14    -13.48      0.00
  -12    4   14      5.77      0.00
  -11    4   14     18.30      0.00
  -10    4   14     17.02      0.00
   -9    4   14      6.82      0.00
   -8    4   14     -4.67      0.00
   -7    4   14      9.11      0.00
   -6    4   14     -9.58      0.00
   -5    4   14    -24.05      0.00
   -4    4   14     29.69      0.00
   -3    4   14      6.84      0.00
   -2    4   14      9.77      0.00
   -1    4   14     47.18      0.00
    0    4   14    -32.48      0.00
    1    4   14     33.25      0.00
    2    4   14      7.23      0.00
    3    4   14    -37.39      0.00
    4    4   14    -12.42      0.00
    5    4   14    -24.00      0.00
    6    4   14     -5.99      0.00
    7    4   14    -32.60      0.00
    8    4   14      9.74      0.00
    9    4   14      6.05      0.00
   10    4   14     -3.27      0.00
   11    4   14      8.90      0.00
   12    4   14    -15.23      0.00
   13    4   14      2.52      0.00
   14    4   14      3.37      0.00
   15    4   14    -19.34      0.00
   16    4   14     -5.74      0.00
   17    4   14      2.75      0.00
  -18    5   14     -1.85      0.00
  -17    5   14     -3.79      0.00
  -16    5   14     -3.91      0.00
  -15    5   14      3.95      0.00
  -14    5   14     -4.56      0.00
  -13    5   14      2.14      0.00
  -12    5   14      7.41      0.00
  -11    5   14    -27.97      0.00
  -10    5   14     -5.87      0.00
   -9    5   14    -27.88      0.00
   -8    5   14     -5.20      0.00
   -7    5   14     10.67      0.00
   -6    5   14    -22.62      0.00
   -5    5   14    -15.74      0.00
   -4    5   14      9.20      0.00
   -3    5   14      0.14      0.00
   -2    5   14     14.01      0.00
   -1    5   14      2.91      0.00
    0    5   14     20.62      0.00
    1    5   14      4.31      0.00
    2    5   14      5.60      0.00
    3    5   14    -22.47      0.00
    4    5   14     20.57      0.00
    5    5   14     28.82      0.00
    6    5   14    -28.24      0.00
    7    5   14    -21.72      0.00
    8    5   14    -21.60      0.00
    9    5   14      8.56      0.00
   10    5   14      6.82      0.00
   11    5   14     10.64      0.00
   12    5   14     -3.63      0.00
   13    5   14      0.71      0.00
   14    5   14      4.51      0.00
   15    5   14      2.25      0.00
   16    5   14     -3.55      0.00
   17    5   14     -2.94      0.00
  -18    6   14     13.24      0.00
  -17    6   14     -5.91      0.00
  -16    6   14     -0.24      0.00
  -15    6   14     -1.50      0.00
  -14    6   14      3.98      0.00
  -13    6   14      8.51      0.00
  -12    6   14    -11.01      0.00
  -11    6   14     -4.91      0.00
  -10    6   14      5.43      0.00
   -9    6   14     22.33      0.00
   -8    6   14      9.62      0.00
   -7    6   14     25.15      0.00
   -6    6   14    -20.84      0.00
   -5    6   14     10.51      0.00
   -4    6   14     -2.21      0.00
   -3    6   14    -17.50      0.00
   -2    6   14      5.53      0.00
   -1    6   14     -8.17      0.00
    0    6   14     -8.05      0.00
    1    6   14    -13.62      0.00
    2    6   14     10.65      0.00
    3    6   14      2.80      0.00
    4    6   14    -31.78      0.00
    5    6   14     32.30      0.00
    6    6   14     14.25      0.00
    7    6   14    -38.51      0.00
    8    6   14     12.26      0.00
    9    6   14      0.61      0.00
   10    6   14      7.07      0.00
   11    6   14     -1.80      0.00
   12    6   14      1.84      0.00
   13    6   14      8.12      0.00
   14    6   14     -0.36      0.00
   15    6   14      7.41      0.00
   16    6   14     -1.26      0.00
   17    6   14     -9.98      0.00
  -18    7   14      2.71      0.00
  -17    7   14     -5.47      0.00
  -16    7   14     15.80      0.00
  -15    7   14     -9.74      0.00
  -14    7   14     -5.43      0.00
  -13    7   14     -8.38      0.00
  -12    7   14     14.29      0.00
  -11    7   14      4.96      0.00
  -10    7   14     -8.32      0.00
   -9    7   14    -25.45      0.00
   -8    7   14     12.26      0.00
   -7    7   14     22.25      0.00
   -6    7   14      2.45      0.00
   -5    7   14     -5.33      0.00
   -4    7   14     17.73      0.00
   -3    7   14    -35.14      0.00
   -2    7   14    -23.71      0.00
   -1    7   14     -6.89      0.00
    0    7   14     44.81      0.00
    1    7   14      5.83      0.00
    2    7   14    -32.78      0.00
    3    7   14    -32.18      0.00
    4    7   14      7.24      0.00
    5    7   14     25.90      0.00
    6    7   14      5.48      0.00
    7    7   14     14.81      0.00
    8    7   14      3.56      0.00
    9    7   14      3.15      0.00
   10    7   14      7.81      0.00
   11    7   14     -1.49      0.00
   12    7   14      5.22      0.00
   13    7   14     -0.71      0.00
   14    7   14     -0.60      0.00
   15    7   14    -10.74      0.00
   16    7   14      2.79      0.00
   17    7   14      9.42      0.00
  -17    8   14     -0.86      0.00
  -16    8   14     -1.87      0.00
  -15    8   14     14.16      0.00
  -14    8   14    -11.59      0.00
  -13    8   14      2.71      0.00
  -12    8   14     -3.60      0.00
  -11    8   14      2.35      0.00
  -10    8   14     19.46      0.00
   -9    8   14    -19.15      0.00
   -8    8   14     -0.67      0.00
   -7    8   14    -21.59      0.00
   -6    8   14      2.33      0.00
   -5    8   14     11.11      0.00
   -4    8   14    -21.54      0.00
   -3    8   14    -15.86      0.00
   -2    8   14     15.78      0.00
   -1    8   14    -36.85      0.00
    0    8   14     31.04      0.00
    1    8   14      0.71      0.00
    2    8   14    -23.00      0.00
    3    8   14     31.58      0.00
    4    8   14     -4.76      0.00
    5    8   14     21.11      0.00
    6    8   14     -9.63      0.00
    7    8   14      1.64      0.00
    8    8   14     -7.10      0.00
    9    8   14      3.37      0.00
   10    8   14    -14.44      0.00
   11    8   14    -12.51      0.00
   12    8   14     -0.67      0.00
   13    8   14     -3.29      0.00
   14    8   14      4.98      0.00
   15    8   14      4.14      0.00
   16    8   14     -3.87      0.00
   17    8   14      5.27      0.00
  -17    9   14      2.12      0.00
  -16    9   14     10.02      0.00
  -15    9   14    -11.32      0.00
  -14    9   14     -2.68      0.00
  -13    9   14     -3.58      0.00
  -12    9   14    -12.84      0.00
  -11    9   14     27.90      0.00
  -10    9   14     -0.19      0.00
   -9    9   14     21.01      0.00
   -8    9   14     -7.25      0.00
   -7    9   14     -2.99      0.00
   -6    9   14     -1.75      0.00
   -5    9   14      6.84      0.00
   -4    9   14    -10.94      0.00
   -3    9   14      8.61      0.00
   -2    9   14      2.62      0.00
   -1    9   14    -14.47      0.00
    0    9   14     30.65      0.00
    1    9   14    -13.99      0.00
    2    9   14    -58.56      0.00
    3    9   14     63.00      0.00
    4    9   14      5.44      0.00
    5    9   14     -4.61      0.00
    6    9   14      6.83      0.00
    7    9   14     -4.74      0.00
    8    9   14     41.82      0.00
    9    9   14     13.44      0.00
   10    9   14    -18.50      0.00
   11    9   14    -12.98      0.00
   12    9   14     -5.28      0.00
   13    9   14     -5.92      0.00
   14    9   14     -3.99      0.00
   15    9   14     10.63      0.00
   16    9   14      8.86      0.00
  -17   10   14      5.54      0.00
  -16   10   14     -0.17      0.00
  -15   10   14     -3.09      0.00
  -14   10   14     -8.48      0.00
  -13   10   14    -17.99      0.00
  -12   10   14      5.82      0.00
  -11   10   14     -5.52      0.00
  -10   10   14     -0.15      0.00
   -9   10   14     15.28      0.00
   -8   10   14     17.29      0.00
   -7   10   14    -23.83      0.00
   -6   10   14     -1.40      0.00
   -5   10   14     16.22      0.00
   -4   10   14     -4.48      0.00
   -3   10   14     35.42      0.00
   -2   10   14    -14.03      0.00
   -1   10   14    -18.42      0.00
    0   10   14    -13.94      0.00
    1   10   14      7.67      0.00
    2   10   14     79.44      0.00
    3   10   14    -33.89      0.00
    4   10   14     17.31      0.00
    5   10   14     52.67      0.00
    6   10   14     -4.47      0.00
    7   10   14    -16.86      0.00
    8   10   14      1.98      0.00
    9   10   14     -1.67      0.00
   10   10   14     -4.58      0.00
   11   10   14     -8.47      0.00
   12   10   14      4.33      0.00
   13   10   14     -0.73      0.00
   14   10   14     -4.40      0.00
   15   10   14     -6.50      0.00
   16   10   14      5.69      0.00
  -17   11   14      7.76      0.00
  -16   11   14     -7.38      0.00
  -15   11   14      0.78      0.00
  -14   11   14    -15.84      0.00
  -13   11   14      5.49      0.00
  -12   11   14      6.23      0.00
  -11   11   14     -2.89      0.00
  -10   11   14     11.19      0.00
   -9   11   14    -10.09      0.00
   -8   11   14      6.62      0.00
   -7   11   14     13.70      0.00
   -6   11   14    -22.69      0.00
   -5   11   14     -4.01      0.00
   -4   11   14    -10.02      0.00
   -3   11   14      0.72      0.00
   -2   11   14     45.49      0.00
   -1   11   14    -12.39      0.00
    0   11   14    -22.83      0.00
    1   11   14     23.46      0.00
    2   11   14    -14.75      0.00
    3   11   14      4.22      0.00
    4   11   14      3.13      0.00
    5   11   14    -24.12      0.00
    6   11   14     22.42      0.00
    7   11   14      8.77      0.00
    8   11   14      9.36      0.00
    9   11   14      4.22      0.00
   10   11   14    -22.21      0.00
   11   11   14     -7.63      0.00
   12   11   14     -6.45      0.00
   13   11   14      9.04      0.00
   14   11   14      2.98      0.00
   15   11   14     -3.29      0.00
   16   11   14      6.14      0.00
  -16   12   14      5.95      0.00
  -15   12   14      2.69      0.00
  -14   12   14     -9.31      0.00
  -13   12   14     -1.61      0.00
  -12   12   14     -0.58      0.00
  -11   12   14      1.84      0.00
  -10   12   14     10.92      0.00
   -9   12   14      7.70      0.00
   -8   12   14     19.92      0.00
   -7   12   14     30.23      0.00
   -6   12   14    -24.12      0.00
   -5   12   14     34.32      0.00
   -4   12   14     -5.33      0.00
   -3   12   14      8.81      0.00
   -2   12   14      3.27      0.00
   -1   12   14     -6.69      0.00
    0   12   14     -4.30      0.00
    1   12   14    -12.82      0.00
    2   12   14    -13.34      0.00
    3   12   14      6.55      0.00
    4   12   14     -8.63      0.00
    5   12   14    -48.42      0.00
    6   12   14    -12.62      0.00
    7   12   14     29.37      0.00
    8   12   14     -4.42      0.00
    9   12   14      1.52      0.00
   10   12   14     14.16      0.00
   11   12   14      6.17      0.00
   12   12   14      5.01      0.00
   13   12   14      1.57      0.00
   14   12   14      6.65      0.00
   15   12   14      0.20      0.00
   16   12   14     -7.71      0.00
  -16   13   14      1.81      0.00
  -15   13   14     -0.22      0.00
  -14   13   14      3.20      0.00
  -13   13   14      5.90      0.00
  -12   13   14      8.18      0.00
  -11   13   14    -13.23      0.00
  -10   13   14    -10.51      0.00
   -9   13   14     -5.05      0.00
   -8   13   14      2.76      0.00
   -7   13   14     -8.63      0.00
   -6   13   14     22.12      0.00
   -5   13   14     -1.45      0.00
   -4   13   14      2.80      0.00
   -3   13   14     13.28      0.00
   -2   13   14      2.47      0.00
   -1   13   14     10.52      0.00
    0   13   14      4.22      0.00
    1   13   14     -0.54      0.00
    2   13   14     -5.57      0.00
    3   13   14      3.06      0.00
    4   13   14      9.51      0.00
    5   13   14    -23.96      0.00
    6   13   14    -16.12      0.00
    7   13   14     12.93      0.00
    8   13   14      6.54      0.00
    9   13   14    -11.79      0.00
   10   13   14      1.65      0.00
   11   13   14      4.62      0.00
   12   13   14     -1.33      0.00
   13   13   14      7.08      0.00
   14   13   14     -1.28      0.00
   15   13   14     -5.57      0.00
  -16   14   14     -3.80      0.00
  -15   14   14     -6.02      0.00
  -14   14   14     -9.41      0.00
  -13   14   14      3.06      0.00
  -12   14   14     -5.72      0.00
  -11   14   14     -4.38      0.00
  -10   14   14    -10.80      0.00
   -9   14   14    -15.52      0.00
   -8   14   14     14.65      0.00
   -7   14   14    -10.19      0.00
   -6   14   14      4.20      0.00
   -5   14   14     -3.23      0.00
   -4   14   14    -28.06      0.00
   -3   14   14    -40.59      0.00
   -2   14   14     16.80      0.00
   -1   14   14     -0.80      0.00
    0   14   14      2.17      0.00
    1   14   14      9.73      0.00
    2   14   14     10.26      0.00
    3   14   14     18.83      0.00
    4   14   14     17.48      0.00
    5   14   14     24.19      0.00
    6   14   14     -8.53      0.00
    7   14   14      4.54      0.00
    8   14   14     -4.96      0.00
    9   14   14    -16.82      0.00
   10   14   14     11.02      0.00
   11   14   14      9.33      0.00
   12   14   14     -3.41      0.00
   13   14   14     -8.64      0.00
   14   14   14     -3.26      0.00
   15   14   14      7.12      0.00
  -15   15   14      9.70      0.00
  -14   15   14     -0.23      0.00
  -13   15   14    -10.71      0.00
  -12   15   14      0.57      0.00
  -11   15   14      4.23      0.00
  -10   15   14     -3.20      0.00
   -9   15   14      4.62      0.00
   -8   15   14      2.96      0.00
   -7   15   14    -24.29      0.00
   -6   15   14      9.50      0.00
   -5   15   14     14.61      0.00
   -4   15   14     15.25      0.00
   -3   15   14      0.50      0.00
   -2   15   14    -22.02      0.00
   -1   15   14     16.85      0.00
    0   15   14     -7.54      0.00
    1   15   14     -0.21      0.00
    2   15   14     22.20      0.00
    3   15   14     11.35      0.00
    4   15   14     13.93      0.00
    5   15   14     -8.15      0.00
    6   15   14     -9.24      0.00
    7   15   14     -4.50      0.00
    8   15   14    -26.91      0.00
    9   15   14      7.53      0.00
   10   15   14      4.17      0.00
   11   15   14     -9.44      0.00
   12   15   14     -3.08      0.00
   13   15   14     -1.75      0.00
   14   15   14      3.39      0.00
   15   15   14      0.27      0.00
  -15   16   14      1.88      0.00
  -14   16   14     14.83      0.00
  -13   16   14      2.77      0.00
  -12   16   14     -3.77      0.00
  -11   16   14      1.92      0.00
  -10   16   14    -21.50      0.00
   -9   16   14     19.30      0.00
   -8   16   14      1.41      0.00
   -7   16   14    -17.10      0.00
   -6   16   14      6.78      0.00
   -5   16   14    -16.32      0.00
   -4   16   14     18.73      0.00
   -3   16   14    -10.11      0.00
   -2   16   14    -14.40      0.00
   -1   16   14     28.15      0.00
    0   16   14     -0.13      0.00
    1   16   14    -18.99      0.00
    2   16   14     24.42      0.00
    3   16   14     18.40      0.00
    4   16   14      9.06      0.00
    5   16   14      2.81      0.00
    6   16   14    -10.19      0.00
    7   16   14     -6.06      0.00
    8   16   14      4.62      0.00
    9   16   14    -11.90      0.00
   10   16   14     -9.53      0.00
   11   16   14     -5.75      0.00
   12   16   14     -0.84      0.00
   13   16   14     -0.05      0.00
   14   16   14      4.60      0.00
  -14   17   14     -5.80      0.00
  -13   17   14      3.35      0.00
  -12   17   14     -7.02      0.00
  -11   17   14      0.81      0.00
  -10   17   14     -0.85      0.00
   -9   17   14     -0.55      0.00
   -8   17   14     -5.54      0.00
   -7   17   14     -8.84      0.00
   -6   17   14     21.06      0.00
   -5   17   14     10.09      0.00
   -4   17   14     -9.59      0.00
   -3   17   14    -10.14      0.00
   -2   17   14    -11.67      0.00
   -1   17   14      8.23      0.00
    0   17   14    -11.67      0.00
    1   17   14    -18.85      0.00
    2   17   14     11.00      0.00
    3   17   14    -11.97      0.00
    4   17   14     27.64      0.00
    5   17   14      1.81      0.00
    6   17   14    -14.93      0.00
    7   17   14      8.98      0.00
    8   17   14      1.71      0.00
    9   17   14      5.01      0.00
   10   17   14     -4.76      0.00
   11   17   14    -15.56      0.00
   12   17   14     -5.82      0.00
   13   17   14     -6.67      0.00
   14   17   14     -2.35      0.00
  -14   18   14      0.77      0.00
  -13   18   14     -2.60      0.00
  -12   18   14     -3.17      0.00
  -11   18   14     -0.98      0.00
  -10   18   14    -19.34      0.00
   -9   18   14     -6.74      0.00
   -8   18   14      0.30      0.00
   -7   18   14     -8.46      0.00
   -6   18   14      2.33      0.00
   -5   18   14      9.39      0.00
   -4   18   14     -2.00      0.00
   -3   18   14     16.59      0.00
   -2   18   14      3.98      0.00
   -1   18   14     -9.95      0.00
    0   18   14      6.68      0.00
    1   18   14    -14.79      0.00
    2   18   14    -20.37      0.00
    3   18   14     35.19      0.00
    4   18   14     -6.76      0.00
    5   18   14    -14.62      0.00
    6   18   14    -15.21      0.00
    7   18   14     -1.20      0.00
    8   18   14     12.24      0.00
    9   18   14     -3.96      0.00
   10   18   14      7.54      0.00
   11   18   14      4.11      0.00
   12   18   14    -10.33      0.00
   13   18   14      6.60      0.00
  -13   19   14     -2.55      0.00
  -12   19   14     -7.09      0.00
  -11   19   14      9.24      0.00
  -10   19   14     -0.20      0.00
   -9   19   14     -1.24      0.00
   -8   19   14     -6.49      0.00
   -7   19   14     12.95      0.00
   -6   19   14    -15.13      0.00
   -5   19   14      7.78      0.00
   -4   19   14    -12.70      0.00
   -3   19   14      8.95      0.00
   -2   19   14      1.46      0.00
   -1   19   14      1.18      0.00
    0   19   14      2.42      0.00
    1   19   14    -13.55      0.00
    2   19   14    -10.19      0.00
    3   19   14     -4.82      0.00
    4   19   14     -0.41      0.00
    5   19   14     13.53      0.00
    6   19   14    -15.88      0.00
    7   19   14     10.25      0.00
    8   19   14      8.71      0.00
    9   19   14     -1.00      0.00
   10   19   14      6.02      0.00
   11   19   14      4.33      0.00
   12   19   14      6.70      0.00
   13   19   14     -1.64      0.00
  -13   20   14     -7.65      0.00
  -12   20   14      0.62      0.00
  -11   20   14     -4.10      0.00
  -10   20   14      1.70      0.00
   -9   20   14     14.04      0.00
   -8   20   14      5.06      0.00
   -7   20   14      1.73      0.00
   -6   20   14      6.69      0.00
   -5   20   14    -18.18      0.00
   -4   20   14     -0.11      0.00
   -3   20   14     16.25      0.00
   -2   20   14      1.75      0.00
   -1   20   14    -12.65      0.00
    0   20   14    -22.02      0.00
    1   20   14     19.98      0.00
    2   20   14      1.13      0.00
    3   20   14    -21.48      0.00
    4   20   14     22.09      0.00
    5   20   14      0.13      0.00
    6   20   14     -0.01      0.00
    7   20   14      2.61      0.00
    8   20   14      7.27      0.00
    9   20   14     -2.99      0.00
   10   20   14     -8.68      0.00
   11   20   14      6.37      0.00
   12   20   14      4.31      0.00
  -12   21   14     -1.94      0.00
  -11   21   14     -6.49      0.00
  -10   21   14     -5.38      0.00
   -9   21   14      7.75      0.00
   -8   21   14      7.91      0.00
   -7   21   14     -1.85      0.00
   -6   21   14     -4.77      0.00
   -5   21   14      4.32      0.00
   -4   21   14     -2.01      0.00
   -3   21   14     -4.33      0.00
   -2   21   14     28.31      0.00
   -1   21   14     11.58      0.00
    0   21   14     15.08      0.00
    1   21   14      4.49      0.00
    2   21   14     18.69      0.00
    3   21   14     -6.72      0.00
    4   21   14    -12.06      0.00
    5   21   14      5.74      0.00
    6   21   14     -4.87      0.00
    7   21   14     -6.51      0.00
    8   21   14     -0.58      0.00
    9   21   14     -0.21      0.00
   10   21   14      0.85      0.00
   11   21   14      5.18      0.00
  -11   22   14     -0.93      0.00
  -10   22   14     -8.18      0.00
   -9   22   14     -3.65      0.00
   -8   22   14     -0.59      0.00
   -7   22   14     -7.37      0.00
   -6   22   14    -11.48      0.00
   -5   22   14     -4.74      0.00
   -4   22   14     11.49      0.00
   -3   22   14      7.94      0.00
   -2   22   14    -10.21      0.00
   -1   22   14     15.87      0.00
    0   22   14     -0.35      0.00
    1   22   14      4.51      0.00
    2   22   14      5.52      0.00
    3   22   14    -13.79      0.00
    4   22   14     14.29      0.00
    5   22   14    -18.40      0.00
    6   22   14      6.62      0.00
    7   22   14     -9.95      0.00
    8   22   14    -10.90      0.00
    9   22   14      2.17      0.00
   10   22   14     -5.62      0.00
   11   22   14      8.19      0.00
  -10   23   14      6.93      0.00
   -9   23   14      0.92      0.00
   -8   23   14     -8.98      0.00
   -7   23   14    -21.54      0.00
   -6   23   14     17.45      0.00
   -5   23   14     -0.39      0.00
   -4   23   14     -2.14      0.00
   -3   23   14      7.44      0.00
   -2   23   14     -0.40      0.00
   -1   23   14     -1.41      0.00
    0   23   14     13.21      0.00
    1   23   14      4.10      0.00
    2   23   14      5.26      0.00
    3   23   14     -1.60      0.00
    4   23   14     -1.26      0.00
    5   23   14      3.70      0.00
    6   23   14      5.59      0.00
    7   23   14     -5.61      0.00
    8   23   14     -0.22      0.00
    9   23   14      1.28      0.00
   10   23   14      0.61      0.00
   -9   24   14    -12.98      0.00
   -8   24   14      0.87      0.00
   -7   24   14      4.38      0.00
   -6   24   14      0.98      0.00
   -5   24   14     -3.12      0.00
   -4   24   14     -4.93      0.00
   -3   24   14     11.91      0.00
   -2   24   14      1.35      0.00
   -1   24   14      2.22      0.00
    0   24   14     14.77      0.00
    1   24   14     14.04      0.00
    2   24   14     -6.05      0.00
    3   24   14     -3.20      0.00
    4   24   14     -2.47      0.00
    5   24   14      7.73      0.00
    6   24   14    -10.00      0.00
    7   24   14     -9.37      0.00
    8   24   14     -3.25      0.00
    9   24   14      2.37      0.00
   -8   25   14    -10.79      0.00
   -7   25   14      2.66      0.00
   -6   25   14      3.48      0.00
   -5   25   14      6.62      0.00
   -4   25   14     -1.31      0.00
   -3   25   14    -10.23      0.00
   -2   25   14    -14.39      0.00
   -1   25   14     10.81      0.00
    0   25   14     -0.51      0.00
    1   25   14     11.37      0.00
    2   25   14     -0.49      0.00
    3   25   14     -0.32      0.00
    4   25   14     -0.21      0.00
    5   25   14      8.71      0.00
    6   25   14      0.24      0.00
    7   25   14     -1.75      0.00
    8   25   14     -1.03      0.00
   -7   26   14      1.53      0.00
   -6   26   14    -11.28      0.00
   -5   26   14     -1.26      0.00
   -4   26   14     -3.12      0.00
   -3   26   14     -7.29      0.00
   -2   26   14     16.53      0.00
   -1   26   14    -10.25      0.00
    0   26   14     -3.05      0.00
    1   26   14     -2.59      0.00
    2   26   14      3.65      0.00
    3   26   14     12.28      0.00
    4   26   14      6.72      0.00
    5   26   14      2.84      0.00
    6   26   14    -10.10      0.00
   -5   27   14     -4.53      0.00
   -4   27   14      3.08      0.00
   -3   27   14     -5.13      0.00
   -2   27   14      3.98      0.00
   -1   27   14     -0.84      0.00
    0   27   14      2.29      0.00
    1   27   14      1.32      0.00
    2   27   14     -7.84      0.00
    3   27   14      9.22      0.00
    4   27   14     -0.06      0.00
   -2   28   14      2.11      0.00
   -1   28   14      3.82      0.00
    0   28   14     -3.94      0.00
    1   28   14     -3.38      0.00
  -17    1   15      1.24      0.00
  -16    1   15     -6.94      0.00
  -15    1   15     -8.42      0.00
  -14    1   15     -3.64      0.00
  -13    1   15      8.89      0.00
  -12    1   15      7.35      0.00
  -11    1   15     -8.66      0.00
  -10    1   15    -15.32      0.00
   -9    1   15     22.68      0.00
   -8    1   15      1.09      0.00
   -7    1   15     16.27      0.00
   -6    1   15      4.97      0.00
   -5    1   15      8.64      0.00
   -4    1   15     15.67      0.00
   -3    1   15    -16.93      0.00
   -2    1   15      2.41      0.00
   -1    1   15      6.05      0.00
    0    1   15    -44.57      0.00
    1    1   15    -31.16      0.00
    2    1   15     -3.07      0.00
    3    1   15    -30.26      0.00
    4    1   15      1.54      0.00
    5    1   15     -0.35      0.00
    6    1   15     14.29      0.00
    7    1   15      8.70      0.00
    8    1   15     -9.02      0.00
    9    1   15      3.34      0.00
   10    1   15     12.52      0.00
   11    1   15     -1.64      0.00
   12    1   15      0.17      0.00
   13    1   15     -6.26      0.00
   14    1   15      5.76      0.00
   15    1   15      6.89      0.00
   16    1   15      0.62      0.00
  -17    2   15    -11.11      0.00
  -16    2   15     -3.14      0.00
  -15    2   15      1.80      0.00
  -14    2   15     17.77      0.00
  -13    2   15      4.86      0.00
  -12    2   15      1.63      0.00
  -11    2   15     -2.18      0.00
  -10    2   15    -13.64      0.00
   -9    2   15     42.52      0.00
   -8    2   15     10.92      0.00
   -7    2   15     -6.67      0.00
   -6    2   15    -25.40      0.00
   -5    2   15    -14.23      0.00
   -4    2   15    -57.45      0.00
   -3    2   15     10.17      0.00
   -2    2   15     -6.24      0.00
   -1    2   15      4.67      0.00
    0    2   15    -27.39      0.00
    1    2   15    -27.95      0.00
    2    2   15     22.59      0.00
    3    2   15     32.82      0.00
    4    2   15     -5.35      0.00
    5    2   15      3.23      0.00
    6    2   15     26.44      0.00
    7    2   15    -17.93      0.00
    8    2   15      1.59      0.00
    9    2   15     26.88      0.00
   10    2   15     -5.41      0.00
   11    2   15      4.23      0.00
   12    2   15     -1.45      0.00
   13    2   15    -18.68      0.00
   14    2   15     -2.51      0.00
   15    2   15     -4.23      0.00
   16    2   15     -2.26      0.00
  -17    3   15     -5.26      0.00
  -16    3   15      0.46      0.00
  -15    3   15     -7.53      0.00
  -14    3   15      3.67      0.00
  -13    3   15      3.16      0.00
  -12    3   15     -2.84      0.00
  -11    3   15      5.50      0.00
  -10    3   15     -0.18      0.00
   -9    3   15     -5.57      0.00
   -8    3   15     22.63      0.00
   -7    3   15    -18.90      0.00
   -6    3   15      5.41      0.00
   -5    3   15      7.30      0.00
   -4    3   15     10.07      0.00
   -3    3   15     20.81      0.00
   -2    3   15    -25.47      0.00
   -1    3   15      0.52      0.00
    0    3   15    -26.44      0.00
    1    3   15    -52.10      0.00
    2    3   15     52.64      0.00
    3    3   15     23.06      0.00
    4    3   15    -43.38      0.00
    5    3   15     14.15      0.00
    6    3   15      8.55      0.00
    7    3   15     17.86      0.00
    8    3   15     18.22      0.00
    9    3   15     -7.58      0.00
   10    3   15    -11.65      0.00
   11    3   15      5.29      0.00
   12    3   15    -12.72      0.00
   13    3   15      5.40      0.00
   14    3   15     11.61      0.00
   15    3   15      3.55      0.00
   16    3   15     -1.61      0.00
  -17    4   15     -7.27      0.00
  -16    4   15      3.83      0.00
  -15    4   15      1.27      0.00
  -14    4   15      2.28      0.00
  -13    4   15      0.30      0.00
  -12    4   15     -7.71      0.00
  -11    4   15    -20.06      0.00
  -10    4   15    -14.63      0.00
   -9    4   15     15.72      0.00
   -8    4   15     -9.95      0.00
   -7    4   15      0.44      0.00
   -6    4   15     20.02      0.00
   -5    4   15      2.87      0.00
   -4    4   15      9.09      0.00
   -3    4   15    -14.26      0.00
   -2    4   15     13.09      0.00
   -1    4   15     -9.15      0.00
    0    4   15     23.86      0.00
    1    4   15     41.25      0.00
    2    4   15    -21.05      0.00
    3    4   15     -5.46      0.00
    4    4   15     31.29      0.00
    5    4   15      0.12      0.00
    6    4   15     -7.76      0.00
    7    4   15     28.29      0.00
    8    4   15     19.57      0.00
    9    4   15     -4.95      0.00
   10    4   15     -3.71      0.00
   11    4   15    -10.78      0.00
   12    4   15     -0.30      0.00
   13    4   15      0.50      0.00
   14    4   15     -6.76      0.00
   15    4   15     -1.56      0.00
   16    4   15     -4.54      0.00
  -17    5   15     12.02      0.00
  -16    5   15     -1.97      0.00
  -15    5   15     -1.87      0.00
  -14    5   15     -6.29      0.00
  -13    5   15     -4.26      0.00
  -12    5   15    -10.81      0.00
  -11    5   15     -6.72      0.00
  -10    5   15      5.12      0.00
   -9    5   15     -2.39      0.00
   -8    5   15     13.99      0.00
   -7    5   15     -7.40      0.00
   -6    5   15     16.93      0.00
   -5    5   15      2.81      0.00
   -4    5   15     -6.57      0.00
   -3    5   15     22.84      0.00
   -2    5   15      1.25      0.00
   -1    5   15      5.22      0.00
    0    5   15      2.27      0.00
    1    5   15     17.52      0.00
    2    5   15     -2.47      0.00
    3    5   15    -10.67      0.00
    4    5   15    -11.39      0.00
    5    5   15    -38.95      0.00
    6    5   15    -13.41      0.00
    7    5   15    -19.11      0.00
    8    5   15      2.31      0.00
    9    5   15     13.14      0.00
   10    5   15     -7.33      0.00
   11    5   15    -14.18      0.00
   12    5   15      0.62      0.00
   13    5   15     -4.07      0.00
   14    5   15    -14.48      0.00
   15    5   15     -0.57      0.00
   16    5   15      1.66      0.00
  -17    6   15     -3.61      0.00
  -16    6   15      1.20      0.00
  -15    6   15     -2.38      0.00
  -14    6   15     -2.32      0.00
  -13    6   15     -4.60      0.00
  -12    6   15      5.04      0.00
  -11    6   15    -14.34      0.00
  -10    6   15     -7.84      0.00
   -9    6   15     -5.32      0.00
   -8    6   15      6.64      0.00
   -7    6   15     -8.55      0.00
   -6    6   15     -7.44      0.00
   -5    6   15     -1.95      0.00
   -4    6   15     59.39      0.00
   -3    6   15     -4.51      0.00
   -2    6   15    -13.29      0.00
   -1    6   15      3.67      0.00
    0    6   15     -9.30      0.00
    1    6   15    -25.90      0.00
    2    6   15     -3.85      0.00
    3    6   15      5.29      0.00
    4    6   15    -15.95      0.00
    5    6   15     -3.10      0.00
    6    6   15    -26.67      0.00
    7    6   15     -5.06      0.00
    8    6   15      1.07      0.00
    9    6   15     -5.99      0.00
   10    6   15     -1.11      0.00
   11    6   15     11.42      0.00
   12    6   15      7.91      0.00
   13    6   15      5.02      0.00
   14    6   15      0.06      0.00
   15    6   15     -0.72      0.00
   16    6   15      5.95      0.00
  -17    7   15     -4.53      0.00
  -16    7   15     -9.44      0.00
  -15    7   15      4.91      0.00
  -14    7   15      2.77      0.00
  -13    7   15      3.76      0.00
  -12    7   15     13.77      0.00
  -11    7   15      4.18      0.00
  -10    7   15     -1.13      0.00
   -9    7   15      0.51      0.00
   -8    7   15    -17.00      0.00
   -7    7   15      8.38      0.00
   -6    7   15      5.15      0.00
   -5    7   15      2.51      0.00
   -4    7   15     12.53      0.00
   -3    7   15    -26.83      0.00
   -2    7   15    -27.92      0.00
   -1    7   15      6.74      0.00
    0    7   15     24.46      0.00
    1    7   15     -1.24      0.00
    2    7   15     -2.05      0.00
    3    7   15     -0.71      0.00
    4    7   15    -15.23      0.00
    5    7   15    -21.69      0.00
    6    7   15      1.46      0.00
    7    7   15     16.75      0.00
    8    7   15     -4.49      0.00
    9    7   15    -13.48      0.00
   10    7   15     -4.52      0.00
   11    7   15     -2.65      0.00
   12    7   15      3.48      0.00
   13    7   15      7.26      0.00
   14    7   15    -10.89      0.00
   15    7   15    -11.35      0.00
   16    7   15      1.72      0.00
  -16    8   15    -16.14      0.00
  -15    8   15      1.28      0.00
  -14    8   15     -5.92      0.00
  -13    8   15      6.97      0.00
  -12    8   15     -1.52      0.00
  -11    8   15     23.85      0.00
  -10    8   15     20.56      0.00
   -9    8   15     -3.75      0.00
   -8    8   15     17.88      0.00
   -7    8   15      9.09      0.00
   -6    8   15    -24.26      0.00
   -5    8   15     -2.93      0.00
   -4    8   15     -2.12      0.00
   -3    8   15    -11.59      0.00
   -2    8   15     18.17      0.00
   -1    8   15    -10.42      0.00
    0    8   15    -36.68      0.00
    1    8   15     42.54      0.00
    2    8   15    -18.86      0.00
    3    8   15    -19.02      0.00
    4    8   15     18.19      0.00
    5    8   15     -7.43      0.00
    6    8   15     -0.54      0.00
    7    8   15      3.14      0.00
    8    8   15      7.70      0.00
    9    8   15     -5.12      0.00
   10    8   15     -7.19      0.00
   11    8   15     -1.51      0.00
   12    8   15      7.02      0.00
   13    8   15     -5.10      0.00
   14    8   15      6.38      0.00
   15    8   15      6.29      0.00
   16    8   15     -2.46      0.00
  -16    9   15      6.06      0.00
  -15    9   15      0.89      0.00
  -14    9   15      0.85      0.00
  -13    9   15      1.22      0.00
  -12    9   15      7.15      0.00
  -11    9   15     16.30      0.00
  -10    9   15      6.51      0.00
   -9    9   15     -3.79      0.00
   -8    9   15    -23.31      0.00
   -7    9   15     -6.79      0.00
   -6    9   15    -13.06      0.00
   -5    9   15     -2.90      0.00
   -4    9   15     17.45      0.00
   -3    9   15    -30.52      0.00
   -2    9   15    -18.31      0.00
   -1    9   15      5.92      0.00
    0    9   15     10.05      0.00
    1    9   15     24.98      0.00
    2    9   15      3.22      0.00
    3    9   15    -17.36      0.00
    4    9   15     -5.14      0.00
    5    9   15     25.45      0.00
    6    9   15     -5.79      0.00
    7    9   15     -3.95      0.00
    8    9   15     12.27      0.00
    9    9   15     -2.16      0.00
   10    9   15     -6.14      0.00
   11    9   15     -0.17      0.00
   12    9   15     -0.22      0.00
   13    9   15      1.83      0.00
   14    9   15     -1.74      0.00
   15    9   15     -5.78      0.00
  -16   10   15      2.48      0.00
  -15   10   15      1.93      0.00
  -14   10   15      6.92      0.00
  -13   10   15      1.87      0.00
  -12   10   15     -0.29      0.00
  -11   10   15    -11.35      0.00
  -10   10   15    -17.02      0.00
   -9   10   15      2.94      0.00
   -8   10   15    -16.11      0.00
   -7   10   15     -5.19      0.00
   -6   10   15     14.86      0.00
   -5   10   15    -15.87      0.00
   -4   10   15    -23.54      0.00
   -3   10   15      2.20      0.00
   -2   10   15    -25.44      0.00
   -1   10   15     24.38      0.00
    0   10   15      6.76      0.00
    1   10   15     -8.96      0.00
    2   10   15     10.01      0.00
    3   10   15     -5.53      0.00
    4   10   15     28.51      0.00
    5   10   15      1.12      0.00
    6   10   15     14.95      0.00
    7   10   15      4.71      0.00
    8   10   15     -5.20      0.00
    9   10   15     -3.63      0.00
   10   10   15     -6.22      0.00
   11   10   15      1.94      0.00
   12   10   15      8.61      0.00
   13   10   15     -2.46      0.00
   14   10   15     -8.34      0.00
   15   10   15     -6.40      0.00
  -16   11   15      8.05      0.00
  -15   11   15     -4.86      0.00
  -14   11   15      5.48      0.00
  -13   11   15     -9.10      0.00
  -12   11   15     -3.29      0.00
  -11   11   15      2.79      0.00
  -10   11   15     -1.64      0.00
   -9   11   15      2.92      0.00
   -8   11   15    -15.35      0.00
   -7   11   15     21.86      0.00
   -6   11   15      4.38      0.00
   -5   11   15     -0.94      0.00
   -4   11   15     22.69      0.00
   -3   11   15     10.20      0.00
   -2   11   15     10.72      0.00
   -1   11   15    -25.93      0.00
    0   11   15      9.17      0.00
    1   11   15     20.99      0.00
    2   11   15     -8.74      0.00
    3   11   15     17.34      0.00
    4   11   15     -2.44      0.00
    5   11   15     12.27      0.00
    6   11   15     20.61      0.00
    7   11   15    -10.18      0.00
    8   11   15      7.87      0.00
    9   11   15     -0.92      0.00
   10   11   15     -7.89      0.00
   11   11   15     -2.54      0.00
   12   11   15      3.22      0.00
   13   11   15     -4.38      0.00
   14   11   15     -3.91      0.00
   15   11   15      6.00      0.00
  -15   12   15      4.87      0.00
  -14   12   15     -0.27      0.00
  -13   12   15      5.19      0.00
  -12   12   15     10.68      0.00
  -11   12   15    -13.46      0.00
  -10   12   15     -0.24      0.00
   -9   12   15     24.99      0.00
   -8   12   15    -18.32      0.00
   -7   12   15      9.72      0.00
   -6   12   15     -1.45      0.00
   -5   12   15     -1.46      0.00
   -4   12   15     -5.76      0.00
   -3   12   15      0.91      0.00
   -2   12   15     13.00      0.00
   -1   12   15     19.35      0.00
    0   12   15      3.18      0.00
    1   12   15    -19.17      0.00
    2   12   15      6.59      0.00
    3   12   15      2.97      0.00
    4   12   15    -16.79      0.00
    5   12   15      0.47      0.00
    6   12   15      2.70      0.00
    7   12   15      8.38      0.00
    8   12   15    -11.80      0.00
    9   12   15     -3.42      0.00
   10   12   15      3.03      0.00
   11   12   15    -11.32      0.00
   12   12   15     -8.00      0.00
   13   12   15      7.11      0.00
   14   12   15      3.26      0.00
   15   12   15      1.94      0.00
  -15   13   15      5.08      0.00
  -14   13   15      0.10      0.00
  -13   13   15    -10.17      0.00
  -12   13   15     11.64      0.00
  -11   13   15     -3.69      0.00
  -10   13   15     -1.25      0.00
   -9   13   15     -3.49      0.00
   -8   13   15      8.95      0.00
   -7   13   15    -12.20      0.00
   -6   13   15    -16.76      0.00
   -5   13   15     -8.55      0.00
   -4   13   15      1.47      0.00
   -3   13   15     -7.08      0.00
   -2   13   15     22.27      0.00
   -1   13   15     26.40      0.00
    0   13   15     -4.99      0.00
    1   13   15      8.08      0.00
    2   13   15     21.72      0.00
    3   13   15    -17.07      0.00
    4   13   15    -18.79      0.00
    5   13   15    -15.94      0.00
    6   13   15    -20.57      0.00
    7   13   15      0.52      0.00
    8   13   15     17.54      0.00
    9   13   15      8.02      0.00
   10   13   15      6.62      0.00
   11   13   15      3.93      0.00
   12   13   15     -4.79      0.00
   13   13   15     -0.10      0.00
   14   13   15      9.06      0.00
  -15   14   15      0.12      0.00
  -14   14   15     -1.92      0.00
  -13   14   15     -6.13      0.00
  -12   14   15     -1.92      0.00
  -11   14   15     -9.40      0.00
  -10   14   15      8.18      0.00
   -9   14   15    -20.10      0.00
   -8   14   15      3.68      0.00
   -7   14   15      9.83      0.00
   -6   14   15     -2.85      0.00
   -5   14   15     10.25      0.00
   -4   14   15     26.00      0.00
   -3   14   15    -34.03      0.00
   -2   14   15     -0.61      0.00
   -1   14   15     -5.92      0.00
    0   14   15     12.12      0.00
    1   14   15     31.82      0.00
    2   14   15    -10.08      0.00
    3   14   15    -11.77      0.00
    4   14   15      7.48      0.00
    5   14   15     -4.18      0.00
    6   14   15    -11.93      0.00
    7   14   15     -5.16      0.00
    8   14   15      2.75      0.00
    9   14   15     -8.38      0.00
   10   14   15     -5.02      0.00
   11   14   15      4.97      0.00
   12   14   15      9.15      0.00
   13   14   15      0.55      0.00
   14   14   15      3.36      0.00
  -14   15   15     -2.30      0.00
  -13   15   15     11.52      0.00
  -12   15   15     -5.15      0.00
  -11   15   15     -5.86      0.00
  -10   15   15     22.00      0.00
   -9   15   15    -16.51      0.00
   -8   15   15     -7.80      0.00
   -7   15   15      0.77      0.00
   -6   15   15     -3.05      0.00
   -5   15   15     14.30      0.00
   -4   15   15    -21.15      0.00
   -3   15   15    -10.30      0.00
   -2   15   15      4.43      0.00
   -1   15   15      9.42      0.00
    0   15   15      8.42      0.00
    1   15   15     20.19      0.00
    2   15   15    -12.38      0.00
    3   15   15     19.86      0.00
    4   15   15     13.85      0.00
    5   15   15     -2.08      0.00
    6   15   15     19.65      0.00
    7   15   15      3.51      0.00
    8   15   15     -1.09      0.00
    9   15   15      2.80      0.00
   10   15   15     -7.80      0.00
   11   15   15     -0.42      0.00
   12   15   15     -0.97      0.00
   13   15   15      6.85      0.00
  -14   16   15     -5.60      0.00
  -13   16   15      2.41      0.00
  -12   16   15     -2.40      0.00
  -11   16   15      0.70      0.00
  -10   16   15      2.42      0.00
   -9   16   15      6.55      0.00
   -8   16   15     10.48      0.00
   -7   16   15      5.83      0.00
   -6   16   15      7.51      0.00
   -5   16   15     32.60      0.00
   -4   16   15     -6.65      0.00
   -3   16   15     -4.32      0.00
   -2   16   15     -0.06      0.00
   -1   16   15     -0.87      0.00
    0   16   15      3.07      0.00
    1   16   15     -4.21      0.00
    2   16   15      5.29      0.00
    3   16   15     14.68      0.00
    4   16   15     -9.84      0.00
    5   16   15     -7.02      0.00
    6   16   15      2.72      0.00
    7   16   15     -0.81      0.00
    8   16   15      0.63      0.00
    9   16   15      2.58      0.00
   10   16   15    -13.39      0.00
   11   16   15     -3.43      0.00
   12   16   15     -2.51      0.00
   13   16   15      0.49      0.00
  -13   17   15      7.81      0.00
  -12   17   15     -1.30      0.00
  -11   17   15      1.26      0.00
  -10   17   15    -10.13      0.00
   -9   17   15     -7.12      0.00
   -8   17   15      1.10      0.00
   -7   17   15      8.81      0.00
   -6   17   15     -2.87      0.00
   -5   17   15     -1.66      0.00
   -4   17   15    -10.57      0.00
   -3   17   15      4.03      0.00
   -2   17   15    -10.11      0.00
   -1   17   15    -12.83      0.00
    0   17   15      4.36      0.00
    1   17   15      4.74      0.00
    2   17   15     10.01      0.00
    3   17   15     -0.60      0.00
    4   17   15     -5.28      0.00
    5   17   15      0.03      0.00
    6   17   15     11.38      0.00
    7   17   15     -6.44      0.00
    8   17   15     -1.28      0.00
    9   17   15      6.68      0.00
   10   17   15     -9.35      0.00
   11   17   15     -1.73      0.00
   12   17   15      3.33      0.00
  -13   18   15     -9.66      0.00
  -12   18   15      2.67      0.00
  -11   18   15     -3.41      0.00
  -10   18   15    -11.79      0.00
   -9   18   15      4.23      0.00
   -8   18   15      5.96      0.00
   -7   18   15      1.70      0.00
   -6   18   15     -4.79      0.00
   -5   18   15     -7.14      0.00
   -4   18   15    -10.98      0.00
   -3   18   15     -6.40      0.00
   -2   18   15      5.63      0.00
   -1   18   15      5.24      0.00
    0   18   15     15.77      0.00
    1   18   15     -8.51      0.00
    2   18   15     -1.30      0.00
    3   18   15     18.45      0.00
    4   18   15      1.80      0.00
    5   18   15     18.00      0.00
    6   18   15     -5.74      0.00
    7   18   15     -2.90      0.00
    8   18   15     10.32      0.00
    9   18   15    -10.53      0.00
   10   18   15      5.87      0.00
   11   18   15    -12.81      0.00
   12   18   15      1.09      0.00
  -12   19   15     -7.09      0.00
  -11   19   15      1.02      0.00
  -10   19   15      0.32      0.00
   -9   19   15     -7.87      0.00
   -8   19   15     12.07      0.00
   -7   19   15      0.45      0.00
   -6   19   15     -8.50      0.00
   -5   19   15      3.29      0.00
   -4   19   15     -0.71      0.00
   -3   19   15      7.50      0.00
   -2   19   15     15.24      0.00
   -1   19   15     -4.80      0.00
    0   19   15     -3.14      0.00
    1   19   15    -12.68      0.00
    2   19   15      1.17      0.00
    3   19   15     -2.50      0.00
    4   19   15     -9.61      0.00
    5   19   15     -7.55      0.00
    6   19   15    -16.17      0.00
    7   19   15      4.45      0.00
    8   19   15     -7.86      0.00
    9   19   15      8.80      0.00
   10   19   15      2.84      0.00
   11   19   15     -0.76      0.00
  -11   20   15     -4.76      0.00
  -10   20   15      0.75      0.00
   -9   20   15     -4.79      0.00
   -8   20   15     -1.91      0.00
   -7   20   15      7.13      0.00
   -6   20   15      4.12      0.00
   -5   20   15      1.01      0.00
   -4   20   15      9.26      0.00
   -3   20   15     -3.86      0.00
   -2   20   15     10.63      0.00
   -1   20   15      6.89      0.00
    0   20   15      9.57      0.00
    1   20   15     -1.80      0.00
    2   20   15    -19.63      0.00
    3   20   15      3.04      0.00
    4   20   15     -2.73      0.00
    5   20   15      1.61      0.00
    6   20   15     -2.63      0.00
    7   20   15    -12.17      0.00
    8   20   15     10.05      0.00
    9   20   15    -10.72      0.00
   10   20   15     -3.75      0.00
   11   20   15      3.02      0.00
  -11   21   15     10.39      0.00
  -10   21   15      1.84      0.00
   -9   21   15      3.92      0.00
   -8   21   15      5.45      0.00
   -7   21   15     -1.85      0.00
   -6   21   15      3.67      0.00
   -5   21   15      0.88      0.00
   -4   21   15     -7.05      0.00
   -3   21   15      8.23      0.00
   -2   21   15     12.29      0.00
   -1   21   15      1.88      0.00
    0   21   15      3.62      0.00
    1   21   15    -18.79      0.00
    2   21   15      9.52      0.00
    3   21   15      3.10      0.00
    4   21   15     -9.55      0.00
    5   21   15      4.61      0.00
    6   21   15     -3.62      0.00
    7   21   15     -6.40      0.00
    8   21   15     12.32      0.00
    9   21   15      2.11      0.00
   10   21   15      4.52      0.00
  -10   22   15     -1.13      0.00
   -9   22   15     -6.03      0.00
   -8   22   15     11.21      0.00
   -7   22   15     -3.15      0.00
   -6   22   15      4.67      0.00
   -5   22   15      5.31      0.00
   -4   22   15      6.00      0.00
   -3   22   15     -2.74      0.00
   -2   22   15     -2.79      0.00
   -1   22   15     17.97      0.00
    0   22   15    -15.43      0.00
    1   22   15      8.11      0.00
    2   22   15      3.45      0.00
    3   22   15      2.18      0.00
    4   22   15      5.04      0.00
    5   22   15     -6.97      0.00
    6   22   15     -1.72      0.00
    7   22   15      0.30      0.00
    8   22   15     -7.13      0.00
    9   22   15      6.58      0.00
   -9   23   15     -2.78      0.00
   -8   23   15    -13.81      0.00
   -7   23   15     -5.51      0.00
   -6   23   15     -1.79      0.00
   -5   23   15     -1.56      0.00
   -4   23   15      1.62      0.00
   -3   23   15    -14.93      0.00
   -2   23   15     -6.42      0.00
   -1   23   15     18.62      0.00
    0   23   15      2.82      0.00
    1   23   15    -13.05      0.00
    2   23   15     -2.46      0.00
    3   23   15     15.40      0.00
    4   23   15      1.74      0.00
    5   23   15      7.93      0.00
    6   23   15     -9.14      0.00
    7   23   15      6.49      0.00
    8   23   15      1.45      0.00
   -8   24   15     13.40      0.00
   -7   24   15     -4.96      0.00
   -6   24   15      8.16      0.00
   -5   24   15      1.66      0.00
   -4   24   15      5.30      0.00
   -3   24   15      8.02      0.00
   -2   24   15     -3.74      0.00
   -1   24   15     -9.13      0.00
    0   24   15     18.18      0.00
    1   24   15     -9.33      0.00
    2   24   15      3.83      0.00
    3   24   15     -3.76      0.00
    4   24   15      7.40      0.00
    5   24   15      2.01      0.00
    6   24   15     -0.25      0.00
    7   24   15     -4.58      0.00
   -6   25   15     -2.50      0.00
   -5   25   15     21.11      0.00
   -4   25   15      6.82      0.00
   -3   25   15      3.05      0.00
   -2   25   15     10.31      0.00
   -1   25   15      1.41      0.00
    0   25   15      0.97      0.00
    1   25   15     -0.49      0.00
    2   25   15      1.73      0.00
    3   25   15    -14.94      0.00
    4   25   15     -2.66      0.00
    5   25   15      3.10      0.00
   -4   26   15    -15.17      0.00
   -3   26   15      8.10      0.00
   -2   26   15     -3.81      0.00
   -1   26   15     -1.51      0.00
    0   26   15     -5.65      0.00
    1   26   15     -4.33      0.00
    2   26   15      2.41      0.00
    3   26   15     -0.65      0.00
  -16    0   16     -3.72      0.00
  -15    0   16      9.39      0.00
  -14    0   16     -0.08      0.00
  -13    0   16     14.05      0.00
  -12    0   16     -6.22      0.00
  -11    0   16     38.86      0.00
  -10    0   16     14.25      0.00
   -9    0   16     19.70      0.00
   -8    0   16     26.44      0.00
   -7    0   16     -0.10      0.00
   -6    0   16     -6.21      0.00
   -5    0   16     26.18      0.00
   -4    0   16      2.98      0.00
   -3    0   16     18.99      0.00
   -2    0   16    -21.98      0.00
   -1    0   16    -13.94      0.00
    0    0   16      9.09      0.00
    1    0   16     33.93      0.00
    2    0   16     53.43      0.00
    3    0   16     -7.21      0.00
    4    0   16     16.41      0.00
    5    0   16     16.38      0.00
    6    0   16    -12.68      0.00
    7    0   16    -25.59      0.00
    8    0   16    -19.13      0.00
    9    0   16     -6.74      0.00
   10    0   16    -10.19      0.00
   11    0   16      4.51      0.00
   12    0   16     -0.18      0.00
   13    0   16      2.27      0.00
   14    0   16     -0.92      0.00
   15    0   16    -10.96      0.00
  -16    1   16      4.12      0.00
  -15    1   16     -5.07      0.00
  -14    1   16      1.38      0.00
  -13    1   16      6.12      0.00
  -12    1   16      4.64      0.00
  -11    1   16     -3.14      0.00
  -10    1   16      8.02      0.00
   -9    1   16     -9.90      0.00
   -8    1   16     -7.11      0.00
   -7    1   16     16.47      0.00
   -6    1   16     15.39      0.00
   -5    1   16     -0.41      0.00
   -4    1   16     -7.74      0.00
   -3    1   16    -36.08      0.00
   -2    1   16     33.27      0.00
   -1    1   16     46.84      0.00
    0    1   16     -4.46      0.00
    1    1   16      5.23      0.00
    2    1   16    -15.61      0.00
    3    1   16    -30.72      0.00
    4    1   16    -32.84      0.00
    5    1   16    -12.43      0.00
    6    1   16     12.49      0.00
    7    1   16     -7.43      0.00
    8    1   16    -11.39      0.00
    9    1   16    -11.37      0.00
   10    1   16     -7.02      0.00
   11    1   16    -13.74      0.00
   12    1   16      8.39      0.00
   13    1   16     19.10      0.00
   14    1   16     -5.72      0.00
   15    1   16    -13.10      0.00
  -16    2   16     -6.64      0.00
  -15    2   16     -0.33      0.00
  -14    2   16      5.68      0.00
  -13    2   16     -5.31      0.00
  -12    2   16     -6.82      0.00
  -11    2   16     -9.18      0.00
  -10    2   16    -11.72      0.00
   -9    2   16      6.84      0.00
   -8    2   16     -5.07      0.00
   -7    2   16    -13.23      0.00
   -6    2   16     -0.23      0.00
   -5    2   16     -4.37      0.00
   -4    2   16     -7.57      0.00
   -3    2   16      7.09      0.00
   -2    2   16    -32.63      0.00
   -1    2   16    -27.70      0.00
    0    2   16      6.87      0.00
    1    2   16    -23.73      0.00
    2    2   16    -17.72      0.00
    3    2   16     23.56      0.00
    4    2   16     -9.79      0.00
    5    2   16    -24.89      0.00
    6    2   16     -3.26      0.00
    7    2   16      8.19      0.00
    8    2   16    -12.06      0.00
    9    2   16      3.74      0.00
   10    2   16     14.48      0.00
   11    2   16      5.59      0.00
   12    2   16      2.29      0.00
   13    2   16     -4.49      0.00
   14    2   16     13.84      0.00
   15    2   16      2.84      0.00
  -16    3   16     -3.73      0.00
  -15    3   16      1.17      0.00
  -14    3   16     -9.32      0.00
  -13    3   16     -2.28      0.00
  -12    3   16     -1.77      0.00
  -11    3   16     23.79      0.00
  -10    3   16    -12.20      0.00
   -9    3   16      2.14      0.00
   -8    3   16     -0.34      0.00
   -7    3   16    -17.48      0.00
   -6    3   16     -4.20      0.00
   -5    3   16     -6.95      0.00
   -4    3   16     -2.18      0.00
   -3    3   16      1.85      0.00
   -2    3   16    -16.61      0.00
   -1    3   16     30.66      0.00
    0    3   16    -16.20      0.00
    1    3   16     -9.33      0.00
    2    3   16    -17.25      0.00
    3    3   16      1.33      0.00
    4    3   16     40.09      0.00
    5    3   16     18.44      0.00
    6    3   16    -28.69      0.00
    7    3   16      5.95      0.00
    8    3   16     38.13      0.00
    9    3   16     -0.89      0.00
   10    3   16      1.16      0.00
   11    3   16      7.13      0.00
   12    3   16     -2.95      0.00
   13    3   16    -11.44      0.00
   14    3   16     -3.71      0.00
   15    3   16     -3.28      0.00
  -16    4   16     -2.08      0.00
  -15    4   16      2.36      0.00
  -14    4   16      5.18      0.00
  -13    4   16    -12.95      0.00
  -12    4   16      6.86      0.00
  -11    4   16    -10.04      0.00
  -10    4   16     19.41      0.00
   -9    4   16     -9.17      0.00
   -8    4   16     30.10      0.00
   -7    4   16     15.18      0.00
   -6    4   16     22.84      0.00
   -5    4   16    -28.55      0.00
   -4    4   16      1.16      0.00
   -3    4   16     22.76      0.00
   -2    4   16     17.72      0.00
   -1    4   16     -8.16      0.00
    0    4   16      4.03      0.00
    1    4   16    -24.26      0.00
    2    4   16      5.64      0.00
    3    4   16      9.14      0.00
    4    4   16    -17.01      0.00
    5    4   16      7.22      0.00
    6    4   16     11.62      0.00
    7    4   16    -23.07      0.00
    8    4   16     -5.35      0.00
    9    4   16      3.33      0.00
   10    4   16     -8.45      0.00
   11    4   16     19.37      0.00
   12    4   16     11.80      0.00
   13    4   16     -1.18      0.00
   14    4   16     -2.60      0.00
   15    4   16      4.30      0.00
  -16    5   16     -7.05      0.00
  -15    5   16     11.81      0.00
  -14    5   16      2.37      0.00
  -13    5   16     -9.34      0.00
  -12    5   16     -0.80      0.00
  -11    5   16     -6.75      0.00
  -10    5   16      6.92      0.00
   -9    5   16     12.20      0.00
   -8    5   16      1.47      0.00
   -7    5   16    -13.71      0.00
   -6    5   16     11.92      0.00
   -5    5   16     -1.73      0.00
   -4    5   16     19.36      0.00
   -3    5   16    -10.03      0.00
   -2    5   16    -17.20      0.00
   -1    5   16     16.94      0.00
    0    5   16      2.72      0.00
    1    5   16    -16.25      0.00
    2    5   16     29.31      0.00
    3    5   16     20.59      0.00
    4    5   16     14.01      0.00
    5    5   16     -7.21      0.00
    6    5   16     -6.11      0.00
    7    5   16     19.77      0.00
    8    5   16      4.39      0.00
    9    5   16     12.86      0.00
   10    5   16      4.28      0.00
   11    5   16     -4.15      0.00
   12    5   16      1.75      0.00
   13    5   16      8.61      0.00
   14    5   16      3.29      0.00
   15    5   16      7.69      0.00
  -16    6   16      4.65      0.00
  -15    6   16     -5.07      0.00
  -14    6   16     -7.01      0.00
  -13    6   16      1.70      0.00
  -12    6   16      3.72      0.00
  -11    6   16      9.81      0.00
  -10    6   16      9.64      0.00
   -9    6   16     10.28      0.00
   -8    6   16    -17.81      0.00
   -7    6   16     10.33      0.00
   -6    6   16    -14.01      0.00
   -5    6   16      7.50      0.00
   -4    6   16    -13.97      0.00
   -3    6   16     -4.31      0.00
   -2    6   16     -6.70      0.00
   -1    6   16    -20.00      0.00
    0    6   16    -26.27      0.00
    1    6   16      3.04      0.00
    2    6   16     -4.08      0.00
    3    6   16     19.83      0.00
    4    6   16     -4.29      0.00
    5    6   16     -7.28      0.00
    6    6   16     -1.07      0.00
    7    6   16     15.05      0.00
    8    6   16     14.31      0.00
    9    6   16     -8.67      0.00
   10    6   16     -8.64      0.00
   11    6   16     -4.81      0.00
   12    6   16     -3.25      0.00
   13    6   16     -0.96      0.00
   14    6   16     -2.55      0.00
   15    6   16      1.31      0.00
  -16    7   16     -0.14      0.00
  -15    7   16      0.86      0.00
  -14    7   16     -5.85      0.00
  -13    7   16     -8.68      0.00
  -12    7   16      2.16      0.00
  -11    7   16    -15.09      0.00
  -10    7   16     -7.51      0.00
   -9    7   16      9.22      0.00
   -8    7   16      4.20      0.00
   -7    7   16    -15.68      0.00
   -6    7   16     -3.80      0.00
   -5    7   16     -1.50      0.00
   -4    7   16      2.39      0.00
   -3    7   16      6.74      0.00
   -2    7   16      2.50      0.00
   -1    7   16      4.53      0.00
    0    7   16     -5.54      0.00
    1    7   16    -18.13      0.00
    2    7   16     -2.11      0.00
    3    7   16     -3.22      0.00
    4    7   16      2.36      0.00
    5    7   16    -26.91      0.00
    6    7   16      3.35      0.00
    7    7   16     -6.83      0.00
    8    7   16     -6.27      0.00
    9    7   16      3.07      0.00
   10    7   16      3.07      0.00
   11    7   16      0.12      0.00
   12    7   16      1.28      0.00
   13    7   16      0.12      0.00
   14    7   16     -4.86      0.00
   15    7   16      0.84      0.00
  -15    8   16      9.41      0.00
  -14    8   16      7.62      0.00
  -13    8   16     -8.25      0.00
  -12    8   16     -2.29      0.00
  -11    8   16     -3.71      0.00
  -10    8   16     -1.39      0.00
   -9    8   16      2.61      0.00
   -8    8   16    -10.80      0.00
   -7    8   16     11.88      0.00
   -6    8   16    -13.94      0.00
   -5    8   16      2.64      0.00
   -4    8   16     10.56      0.00
   -3    8   16    -28.47      0.00
   -2    8   16      2.86      0.00
   -1    8   16     14.49      0.00
    0    8   16     21.49      0.00
    1    8   16      1.06      0.00
    2    8   16    -24.86      0.00
    3    8   16      0.18      0.00
    4    8   16     12.41      0.00
    5    8   16     -6.40      0.00
    6    8   16      5.84      0.00
    7    8   16     10.83      0.00
    8    8   16     -9.11      0.00
    9    8   16     -8.26      0.00
   10    8   16      4.26      0.00
   11    8   16     -9.20      0.00
   12    8   16     -3.37      0.00
   13    8   16     -2.67      0.00
   14    8   16     -6.77      0.00
  -15    9   16     -6.20      0.00
  -14    9   16     -0.34      0.00
  -13    9   16      4.36      0.00
  -12    9   16      0.32      0.00
  -11    9   16     11.15      0.00
  -10    9   16      1.69      0.00
   -9    9   16     14.46      0.00
   -8    9   16     14.88      0.00
   -7    9   16     15.21      0.00
   -6    9   16    -19.71      0.00
   -5    9   16      7.28      0.00
   -4    9   16     -6.64      0.00
   -3    9   16      1.85      0.00
   -2    9   16     -9.85      0.00
   -1    9   16      1.34      0.00
    0    9   16     14.08      0.00
    1    9   16    -13.84      0.00
    2    9   16    -16.07      0.00
    3    9   16     16.73      0.00
    4    9   16    -15.74      0.00
    5    9   16     -6.04      0.00
    6    9   16    -10.04      0.00
    7    9   16     13.74      0.00
    8    9   16     12.53      0.00
    9    9   16     -9.84      0.00
   10    9   16     -5.50      0.00
   11    9   16     19.30      0.00
   12    9   16     -5.46      0.00
   13    9   16    -12.98      0.00
   14    9   16     -8.63      0.00
  -15   10   16     -8.05      0.00
  -14   10   16      1.46      0.00
  -13   10   16      9.44      0.00
  -12   10   16     -8.73      0.00
  -11   10   16      0.76      0.00
  -10   10   16     -6.06      0.00
   -9   10   16      6.44      0.00
   -8   10   16     24.83      0.00
   -7   10   16     -7.62      0.00
   -6   10   16     22.33      0.00
   -5   10   16      6.30      0.00
   -4   10   16     -8.67      0.00
   -3   10   16     21.70      0.00
   -2   10   16     13.09      0.00
   -1   10   16     15.70      0.00
    0   10   16    -18.11      0.00
    1   10   16     -6.84      0.00
    2   10   16     31.73      0.00
    3   10   16     -7.38      0.00
    4   10   16      2.04      0.00
    5   10   16     17.31      0.00
    6   10   16      3.96      0.00
    7   10   16     -6.87      0.00
    8   10   16      6.80      0.00
    9   10   16      0.03      0.00
   10   10   16     -3.18      0.00
   11   10   16     -1.04      0.00
   12   10   16      4.90      0.00
   13   10   16      4.75      0.00
   14   10   16     -3.62      0.00
  -15   11   16      4.05      0.00
  -14   11   16      2.48      0.00
  -13   11   16     -6.33      0.00
  -12   11   16     17.57      0.00
  -11   11   16      7.84      0.00
  -10   11   16     12.74      0.00
   -9   11   16     -3.57      0.00
   -8   11   16     10.76      0.00
   -7   11   16     -3.56      0.00
   -6   11   16     -8.83      0.00
   -5   11   16      7.50      0.00
   -4   11   16     10.21      0.00
   -3   11   16    -34.14      0.00
   -2   11   16     -5.48      0.00
   -1   11   16      1.73      0.00
    0   11   16      0.01      0.00
    1   11   16    -16.51      0.00
    2   11   16      4.82      0.00
    3   11   16    -24.42      0.00
    4   11   16    -10.94      0.00
    5   11   16     -2.43      0.00
    6   11   16    -11.64      0.00
    7   11   16     15.35      0.00
    8   11   16      9.59      0.00
    9   11   16      5.69      0.00
   10   11   16      5.35      0.00
   11   11   16    -15.45      0.00
   12   11   16     -4.07      0.00
   13   11   16      2.09      0.00
   14   11   16      4.31      0.00
  -14   12   16     -4.06      0.00
  -13   12   16     11.32      0.00
  -12   12   16     -3.37      0.00
  -11   12   16     -0.76      0.00
  -10   12   16      5.34      0.00
   -9   12   16      7.40      0.00
   -8   12   16      1.78      0.00
   -7   12   16      3.36      0.00
   -6   12   16      2.05      0.00
   -5   12   16    -26.40      0.00
   -4   12   16     -1.43      0.00
   -3   12   16     14.63      0.00
   -2   12   16     -8.54      0.00
   -1   12   16      8.68      0.00
    0   12   16    -18.05      0.00
    1   12   16    -32.59      0.00
    2   12   16    -10.23      0.00
    3   12   16      8.32      0.00
    4   12   16     -2.99      0.00
    5   12   16     -7.61      0.00
    6   12   16     -1.56      0.00
    7   12   16      7.66      0.00
    8   12   16    -13.84      0.00
    9   12   16      3.16      0.00
   10   12   16     12.00      0.00
   11   12   16      7.46      0.00
   12   12   16     -3.32      0.00
   13   12   16     -0.87      0.00
  -14   13   16     -0.37      0.00
  -13   13   16     -7.58      0.00
  -12   13   16    -11.48      0.00
  -11   13   16      7.78      0.00
  -10   13   16    -13.01      0.00
   -9   13   16     -6.41      0.00
   -8   13   16     -9.40      0.00
   -7   13   16    -25.57      0.00
   -6   13   16     -1.27      0.00
   -5   13   16    -16.17      0.00
   -4   13   16      9.69      0.00
   -3   13   16     25.32      0.00
   -2   13   16    -18.14      0.00
   -1   13   16      4.19      0.00
    0   13   16     33.12      0.00
    1   13   16     34.89      0.00
    2   13   16      3.82      0.00
    3   13   16      4.45      0.00
    4   13   16     13.58      0.00
    5   13   16     -8.87      0.00
    6   13   16    -20.12      0.00
    7   13   16    -25.47      0.00
    8   13   16      7.47      0.00
    9   13   16     -0.52      0.00
   10   13   16     -8.61      0.00
   11   13   16     -0.68      0.00
   12   13   16      5.44      0.00
   13   13   16     -0.80      0.00
  -13   14   16      0.54      0.00
  -12   14   16      0.93      0.00
  -11   14   16    -28.49      0.00
  -10   14   16      5.44      0.00
   -9   14   16     -8.28      0.00
   -8   14   16    -17.39      0.00
   -7   14   16     11.45      0.00
   -6   14   16      5.19      0.00
   -5   14   16     -7.12      0.00
   -4   14   16      6.47      0.00
   -3   14   16     -8.20      0.00
   -2   14   16     11.52      0.00
   -1   14   16     -3.86      0.00
    0   14   16      7.43      0.00
    1   14   16     14.71      0.00
    2   14   16     22.57      0.00
    3   14   16     12.47      0.00
    4   14   16     -9.99      0.00
    5   14   16     -1.56      0.00
    6   14   16      6.11      0.00
    7   14   16     -2.29      0.00
    8   14   16      1.69      0.00
    9   14   16     -6.91      0.00
   10   14   16    -11.28      0.00
   11   14   16     -2.15      0.00
   12   14   16      9.59      0.00
  -13   15   16      0.81      0.00
  -12   15   16     -7.82      0.00
  -11   15   16      1.58      0.00
  -10   15   16      1.37      0.00
   -9   15   16     12.99      0.00
   -8   15   16     -0.16      0.00
   -7   15   16      3.28      0.00
   -6   15   16      5.75      0.00
   -5   15   16     11.78      0.00
   -4   15   16     15.81      0.00
   -3   15   16     21.98      0.00
   -2   15   16     14.66      0.00
   -1   15   16     10.38      0.00
    0   15   16    -12.81      0.00
    1   15   16      0.87      0.00
    2   15   16     -5.13      0.00
    3   15   16      8.25      0.00
    4   15   16      7.76      0.00
    5   15   16      4.82      0.00
    6   15   16    -14.82      0.00
    7   15   16    -11.29      0.00
    8   15   16     -7.81      0.00
    9   15   16     15.54      0.00
   10   15   16     -5.29      0.00
   11   15   16     -4.98      0.00
   12   15   16     -4.13      0.00
  -12   16   16    -14.31      0.00
  -11   16   16      0.69      0.00
  -10   16   16     -1.97      0.00
   -9   16   16      7.49      0.00
   -8   16   16     -5.03      0.00
   -7   16   16      2.44      0.00
   -6   16   16    -13.45      0.00
   -5   16   16      7.29      0.00
   -4   16   16     -7.78      0.00
   -3   16   16     -0.03      0.00
   -2   16   16     -8.09      0.00
   -1   16   16      4.42      0.00
    0   16   16      1.32      0.00
    1   16   16      5.90      0.00
    2   16   16      3.06      0.00
    3   16   16    -12.53      0.00
    4   16   16     13.99      0.00
    5   16   16      4.14      0.00
    6   16   16      3.87      0.00
    7   16   16     -0.58      0.00
    8   16   16     -9.46      0.00
    9   16   16      6.46      0.00
   10   16   16     -0.60      0.00
   11   16   16    -12.56      0.00
   12   16   16    -10.94      0.00
  -12   17   16     -2.83      0.00
  -11   17   16    -13.38      0.00
  -10   17   16      7.86      0.00
   -9   17   16      8.97      0.00
   -8   17   16      5.52      0.00
   -7   17   16     -0.00      0.00
   -6   17   16     21.66      0.00
   -5   17   16    -19.15      0.00
   -4   17   16    -11.73      0.00
   -3   17   16     -2.85      0.00
   -2   17   16     -7.05      0.00
   -1   17   16     -2.23      0.00
    0   17   16      7.40      0.00
    1   17   16     -4.39      0.00
    2   17   16      9.55      0.00
    3   17   16    -20.42      0.00
    4   17   16      9.67      0.00
    5   17   16      4.21      0.00
    6   17   16     -0.72      0.00
    7   17   16     -4.39      0.00
    8   17   16      4.09      0.00
    9   17   16     -1.74      0.00
   10   17   16     -2.62      0.00
   11   17   16     10.93      0.00
  -11   18   16      1.65      0.00
  -10   18   16     -4.80      0.00
   -9   18   16      1.20      0.00
   -8   18   16     -0.70      0.00
   -7   18   16     -8.31      0.00
   -6   18   16      3.84      0.00
   -5   18   16     10.10      0.00
   -4   18   16     -6.21      0.00
   -3   18   16    -16.38      0.00
   -2   18   16     11.78      0.00
   -1   18   16     -6.29      0.00
    0   18   16     -1.90      0.00
    1   18   16      1.74      0.00
    2   18   16     -4.19      0.00
    3   18   16     19.19      0.00
    4   18   16      1.84      0.00
    5   18   16    -15.00      0.00
    6   18   16      7.64      0.00
    7   18   16      7.80      0.00
    8   18   16      0.77      0.00
    9   18   16      2.79      0.00
   10   18   16     -3.52      0.00
  -11   19   16     10.01      0.00
  -10   19   16      8.26      0.00
   -9   19   16     -4.83      0.00
   -8   19   16     -3.26      0.00
   -7   19   16     19.90      0.00
   -6   19   16    -15.14      0.00
   -5   19   16    -12.35      0.00
   -4   19   16      2.94      0.00
   -3   19   16     14.22      0.00
   -2   19   16    -19.97      0.00
   -1   19   16      6.10      0.00
    0   19   16     -7.44      0.00
    1   19   16      8.39      0.00
    2   19   16     29.90      0.00
    3   19   16     10.52      0.00
    4   19   16     -0.72      0.00
    5   19   16     -5.76      0.00
    6   19   16     -2.41      0.00
    7   19   16     -9.04      0.00
    8   19   16      2.16      0.00
    9   19   16      7.88      0.00
   10   19   16      0.57      0.00
  -10   20   16      6.34      0.00
   -9   20   16      0.52      0.00
   -8   20   16     -1.56      0.00
   -7   20   16      8.06      0.00
   -6   20   16     18.88      0.00
   -5   20   16    -18.93      0.00
   -4   20   16      5.19      0.00
   -3   20   16     10.81      0.00
   -2   20   16     15.26      0.00
   -1   20   16      5.14      0.00
    0   20   16    -13.60      0.00
    1   20   16     -6.93      0.00
    2   20   16      0.77      0.00
    3   20   16     14.58      0.00
    4   20   16    -13.72      0.00
    5   20   16     -7.02      0.00
    6   20   16     -1.56      0.00
    7   20   16     -2.57      0.00
    8   20   16      7.27      0.00
    9   20   16     -6.96      0.00
   -9   21   16     -7.95      0.00
   -8   21   16      7.22      0.00
   -7   21   16      0.52      0.00
   -6   21   16     -8.21      0.00
   -5   21   16     11.31      0.00
   -4   21   16      2.44      0.00
   -3   21   16     -5.04      0.00
   -2   21   16      7.39      0.00
   -1   21   16     -6.60      0.00
    0   21   16      4.86      0.00
    1   21   16      3.04      0.00
    2   21   16     -6.65      0.00
    3   21   16     -1.06      0.00
    4   21   16    -11.73      0.00
    5   21   16     -2.67      0.00
    6   21   16      0.77      0.00
    7   21   16     -9.02      0.00
    8   21   16     -7.47      0.00
   -8   22   16      4.09      0.00
   -7   22   16      5.41      0.00
   -6   22   16     -6.65      0.00
   -5   22   16     -0.81      0.00
   -4   22   16     18.07      0.00
   -3   22   16      1.12      0.00
   -2   22   16    -15.01      0.00
   -1   22   16      7.22      0.00
    0   22   16      3.81      0.00
    1   22   16      3.61      0.00
    2   22   16     -3.51      0.00
    3   22   16      6.02      0.00
    4   22   16      8.07      0.00
    5   22   16    -16.81      0.00
    6   22   16      7.15      0.00
    7   22   16      6.92      0.00
   -6   23   16     10.41      0.00
   -5   23   16     -1.53      0.00
   -4   23   16     -6.33      0.00
   -3   23   16      2.46      0.00
   -2   23   16      4.53      0.00
   -1   23   16     -3.99      0.00
    0   23   16      6.71      0.00
    1   23   16     -5.44      0.00
    2   23   16    -11.00      0.00
    3   23   16     13.88      0.00
    4   23   16      0.80      0.00
    5   23   16    -10.79      0.00
   -5   24   16      3.43      0.00
   -4   24   16      9.05      0.00
   -3   24   16     -4.01      0.00
   -2   24   16     -7.40      0.00
   -1   24   16     10.47      0.00
    0   24   16      0.80      0.00
    1   24   16      2.56      0.00
    2   24   16     -3.09      0.00
    3   24   16     -2.53      0.00
    4   24   16      9.59      0.00
  -15    1   17      9.21      0.00
  -14    1   17      6.82      0.00
  -13    1   17      7.95      0.00
  -12    1   17     13.10      0.00
  -11    1   17     -5.92      0.00
  -10    1   17      6.57      0.00
   -9    1   17      0.68      0.00
   -8    1   17    -21.89      0.00
   -7    1   17     20.10      0.00
   -6    1   17    -18.06      0.00
   -5    1   17     -1.42      0.00
   -4    1   17    -10.64      0.00
   -3    1   17     13.77      0.00
   -2    1   17     24.53      0.00
   -1    1   17    -17.35      0.00
    0    1   17      9.50      0.00
    1    1   17     13.51      0.00
    2    1   17     -4.64      0.00
    3    1   17     11.70      0.00
    4    1   17    -12.93      0.00
    5    1   17     -2.56      0.00
    6    1   17      4.25      0.00
    7    1   17      0.79      0.00
    8    1   17     -1.42      0.00
    9    1   17    -13.82      0.00
   10    1   17      7.19      0.00
   11    1   17    -14.23      0.00
   12    1   17     -1.02      0.00
   13    1   17      6.97      0.00
   14    1   17     -1.27      0.00
  -15    2   17     -3.56      0.00
  -14    2   17      4.29      0.00
  -13    2   17      1.72      0.00
  -12    2   17      4.90      0.00
  -11    2   17      8.10      0.00
  -10    2   17      9.66      0.00
   -9    2   17    -15.44      0.00
   -8    2   17      0.31      0.00
   -7    2   17    -26.76      0.00
   -6    2   17     12.80      0.00
   -5    2   17     23.23      0.00
   -4    2   17    -15.24      0.00
   -3    2   17      1.75      0.00
   -2    2   17     -2.43      0.00
   -1    2   17     12.74      0.00
    0    2   17     10.14      0.00
    1    2   17      9.58      0.00
    2    2   17      3.64      0.00
    3    2   17      5.37      0.00
    4    2   17      4.09      0.00
    5    2   17    -42.41      0.00
    6    2   17     -1.99      0.00
    7    2   17     -2.16      0.00
    8    2   17    -19.58      0.00
    9    2   17      9.45      0.00
   10    2   17     -1.83      0.00
   11    2   17     -1.90      0.00
   12    2   17      4.12      0.00
   13    2   17     -4.73      0.00
   14    2   17      3.23      0.00
  -15    3   17      0.08      0.00
  -14    3   17     -4.71      0.00
  -13    3   17    -12.82      0.00
  -12    3   17     -1.32      0.00
  -11    3   17      6.66      0.00
  -10    3   17     -2.72      0.00
   -9    3   17     -2.26      0.00
   -8    3   17     23.28      0.00
   -7    3   17    -11.21      0.00
   -6    3   17     11.46      0.00
   -5    3   17     14.43      0.00
   -4    3   17     15.02      0.00
   -3    3   17     -4.40      0.00
   -2    3   17      0.66      0.00
   -1    3   17    -24.48      0.00
    0    3   17    -12.33      0.00
    1    3   17      2.31      0.00
    2    3   17     -6.79      0.00
    3    3   17    -10.50      0.00
    4    3   17    -14.19      0.00
    5    3   17    -18.98      0.00
    6    3   17      4.96      0.00
    7    3   17     19.22      0.00
    8    3   17    -13.71      0.00
    9    3   17      7.68      0.00
   10    3   17    -14.48      0.00
   11    3   17      3.52      0.00
   12    3   17      9.51      0.00
   13    3   17     -8.86      0.00
   14    3   17      2.97      0.00
  -15    4   17     -8.76      0.00
  -14    4   17      9.14      0.00
  -13    4   17     -2.90      0.00
  -12    4   17     -5.75      0.00
  -11    4   17     -5.81      0.00
  -10    4   17      4.97      0.00
   -9    4   17      8.62      0.00
   -8    4   17      9.40      0.00
   -7    4   17     20.33      0.00
   -6    4   17      9.58      0.00
   -5    4   17     -3.98      0.00
   -4    4   17      5.55      0.00
   -3    4   17     19.92      0.00
   -2    4   17      5.93      0.00
   -1    4   17    -10.01      0.00
    0    4   17     -4.24      0.00
    1    4   17     21.63      0.00
    2    4   17    -10.43      0.00
    3    4   17      2.32      0.00
    4    4   17     26.56      0.00
    5    4   17     -1.30      0.00
    6    4   17    -19.40      0.00
    7    4   17     -9.44      0.00
    8    4   17      8.52      0.00
    9    4   17      2.12      0.00
   10    4   17    -10.28      0.00
   11    4   17      2.34      0.00
   12    4   17      7.81      0.00
   13    4   17      4.10      0.00
   14    4   17    -11.49      0.00
  -15    5   17      0.04      0.00
  -14    5   17     -2.22      0.00
  -13    5   17      9.24      0.00
  -12    5   17      0.80      0.00
  -11    5   17      9.02      0.00
  -10    5   17      2.83      0.00
   -9    5   17     -0.88      0.00
   -8    5   17      5.14      0.00
   -7    5   17     -2.05      0.00
   -6    5   17     21.23      0.00
   -5    5   17      0.93      0.00
   -4    5   17    -14.71      0.00
   -3    5   17     -1.25      0.00
   -2    5   17     10.67      0.00
   -1    5   17     -4.19      0.00
    0    5   17    -16.69      0.00
    1    5   17     -1.67      0.00
    2    5   17     -4.56      0.00
    3    5   17    -32.57      0.00
    4    5   17      0.94      0.00
    5    5   17     -0.33      0.00
    6    5   17     -1.45      0.00
    7    5   17    -11.68      0.00
    8    5   17      0.47      0.00
    9    5   17      0.46      0.00
   10    5   17     -0.47      0.00
   11    5   17      9.26      0.00
   12    5   17      7.27      0.00
   13    5   17      3.22      0.00
   14    5   17      1.12      0.00
  -14    6   17      0.61      0.00
  -13    6   17     -0.44      0.00
  -12    6   17     -2.06      0.00
  -11    6   17     12.70      0.00
  -10    6   17     -3.06      0.00
   -9    6   17    -14.20      0.00
   -8    6   17     -6.64      0.00
   -7    6   17     -9.33      0.00
   -6    6   17    -14.15      0.00
   -5    6   17     -0.12      0.00
   -4    6   17     -1.30      0.00
   -3    6   17      9.92      0.00
   -2    6   17    -11.71      0.00
   -1    6   17    -20.42      0.00
    0    6   17      0.02      0.00
    1    6   17    -36.05      0.00
    2    6   17     11.31      0.00
    3    6   17    -11.97      0.00
    4    6   17     -0.86      0.00
    5    6   17     36.60      0.00
    6    6   17      3.79      0.00
    7    6   17      1.88      0.00
    8    6   17      1.17      0.00
    9    6   17      1.32      0.00
   10    6   17      4.15      0.00
   11    6   17      4.98      0.00
   12    6   17      4.73      0.00
   13    6   17     -3.84      0.00
  -14    7   17      0.75      0.00
  -13    7   17     -0.94      0.00
  -12    7   17     -4.31      0.00
  -11    7   17      7.50      0.00
  -10    7   17     -9.62      0.00
   -9    7   17      0.93      0.00
   -8    7   17    -12.74      0.00
   -7    7   17    -22.73      0.00
   -6    7   17    -18.06      0.00
   -5    7   17     -1.54      0.00
   -4    7   17     -2.91      0.00
   -3    7   17      1.00      0.00
   -2    7   17    -17.18      0.00
   -1    7   17      9.95      0.00
    0    7   17     15.59      0.00
    1    7   17     10.12      0.00
    2    7   17     -1.85      0.00
    3    7   17     37.62      0.00
    4    7   17      3.30      0.00
    5    7   17     -8.49      0.00
    6    7   17      2.45      0.00
    7    7   17     15.52      0.00
    8    7   17     13.12      0.00
    9    7   17    -18.54      0.00
   10    7   17      5.96      0.00
   11    7   17      0.44      0.00
   12    7   17    -13.14      0.00
   13    7   17      3.83      0.00
  -14    8   17      9.10      0.00
  -13    8   17     12.57      0.00
  -12    8   17    -15.19      0.00
  -11    8   17     10.88      0.00
  -10    8   17      6.93      0.00
   -9    8   17     -0.05      0.00
   -8    8   17      3.15      0.00
   -7    8   17     -0.35      0.00
   -6    8   17     -7.66      0.00
   -5    8   17     11.80      0.00
   -4    8   17      6.62      0.00
   -3    8   17     -0.73      0.00
   -2    8   17      0.99      0.00
   -1    8   17     -2.81      0.00
    0    8   17    -11.56      0.00
    1    8   17      9.30      0.00
    2    8   17     -2.74      0.00
    3    8   17     -2.81      0.00
    4    8   17      8.99      0.00
    5    8   17     -6.56      0.00
    6    8   17      1.22      0.00
    7    8   17     20.05      0.00
    8    8   17     -3.67      0.00
    9    8   17     -2.13      0.00
   10    8   17      2.06      0.00
   11    8   17    -14.03      0.00
   12    8   17      8.49      0.00
   13    8   17      7.96      0.00
  -14    9   17     -2.59      0.00
  -13    9   17      1.19      0.00
  -12    9   17     -2.27      0.00
  -11    9   17      0.04      0.00
  -10    9   17      1.66      0.00
   -9    9   17     -5.65      0.00
   -8    9   17      2.21      0.00
   -7    9   17     -5.77      0.00
   -6    9   17      9.20      0.00
   -5    9   17      9.98      0.00
   -4    9   17     -1.69      0.00
   -3    9   17     12.85      0.00
   -2    9   17      3.82      0.00
   -1    9   17     -1.33      0.00
    0    9   17     -5.99      0.00
    1    9   17      8.63      0.00
    2    9   17     25.43      0.00
    3    9   17      0.28      0.00
    4    9   17     14.25      0.00
    5    9   17      7.48      0.00
    6    9   17     14.13      0.00
    7    9   17      0.54      0.00
    8    9   17      1.30      0.00
    9    9   17     -6.44      0.00
   10    9   17     -4.92      0.00
   11    9   17     -2.69      0.00
   12    9   17     -3.86      0.00
   13    9   17     -0.86      0.00
  -13   10   17     -8.00      0.00
  -12   10   17      1.75      0.00
  -11   10   17      1.68      0.00
  -10   10   17      4.00      0.00
   -9   10   17      6.36      0.00
   -8   10   17      6.88      0.00
   -7   10   17    -13.44      0.00
   -6   10   17     21.26      0.00
   -5   10   17      0.53      0.00
   -4   10   17      4.58      0.00
   -3   10   17     -1.16      0.00
   -2   10   17    -14.45      0.00
   -1   10   17     -6.13      0.00
    0   10   17      1.35      0.00
    1   10   17     -8.45      0.00
    2   10   17    -13.57      0.00
    3   10   17     13.48      0.00
    4   10   17     -9.70      0.00
    5   10   17      5.09      0.00
    6   10   17     13.92      0.00
    7   10   17     -6.32      0.00
    8   10   17     10.07      0.00
    9   10   17      4.51      0.00
   10   10   17    -16.69      0.00
   11   10   17    -11.53      0.00
   12   10   17     -7.76      0.00
   13   10   17      6.36      0.00
  -13   11   17      1.82      0.00
  -12   11   17      4.85      0.00
  -11   11   17      0.10      0.00
  -10   11   17     12.64      0.00
   -9   11   17      9.11      0.00
   -8   11   17     -5.37      0.00
   -7   11   17     16.08      0.00
   -6   11   17      7.46      0.00
   -5   11   17     -8.11      0.00
   -4   11   17     -5.48      0.00
   -3   11   17     -6.22      0.00
   -2   11   17      6.32      0.00
   -1   11   17     -4.51      0.00
    0   11   17      4.98      0.00
    1   11   17    -15.23      0.00
    2   11   17    -22.33      0.00
    3   11   17     -1.32      0.00
    4   11   17      9.09      0.00
    5   11   17    -12.57      0.00
    6   11   17      6.18      0.00
    7   11   17      4.22      0.00
    8   11   17     -9.00      0.00
    9   11   17     11.59      0.00
   10   11   17     -3.41      0.00
   11   11   17      3.31      0.00
   12   11   17      6.88      0.00
  -13   12   17     10.14      0.00
  -12   12   17     17.62      0.00
  -11   12   17     -3.61      0.00
  -10   12   17     -9.06      0.00
   -9   12   17      2.99      0.00
   -8   12   17    -15.76      0.00
   -7   12   17     -2.96      0.00
   -6   12   17     13.55      0.00
   -5   12   17     -4.48      0.00
   -4   12   17     -4.87      0.00
   -3   12   17     14.40      0.00
   -2   12   17      5.39      0.00
   -1   12   17     14.44      0.00
    0   12   17      4.80      0.00
    1   12   17    -24.00      0.00
    2   12   17    -17.32      0.00
    3   12   17      1.49      0.00
    4   12   17    -19.82      0.00
    5   12   17    -13.05      0.00
    6   12   17      7.52      0.00
    7   12   17      9.27      0.00
    8   12   17      2.77      0.00
    9   12   17     -6.86      0.00
   10   12   17     11.34      0.00
   11   12   17      6.12      0.00
   12   12   17     -4.11      0.00
  -12   13   17     -0.20      0.00
  -11   13   17     10.99      0.00
  -10   13   17     -4.44      0.00
   -9   13   17      4.40      0.00
   -8   13   17      3.57      0.00
   -7   13   17    -17.25      0.00
   -6   13   17     -8.98      0.00
   -5   13   17    -18.43      0.00
   -4   13   17     -0.77      0.00
   -3   13   17     -4.14      0.00
   -2   13   17     -8.37      0.00
   -1   13   17      7.20      0.00
    0   13   17     -3.23      0.00
    1   13   17     -9.99      0.00
    2   13   17     -9.00      0.00
    3   13   17     12.83      0.00
    4   13   17     -1.95      0.00
    5   13   17      0.44      0.00
    6   13   17    -13.03      0.00
    7   13   17     11.74      0.00
    8   13   17      9.74      0.00
    9   13   17      8.05      0.00
   10   13   17      3.70      0.00
   11   13   17      0.26      0.00
  -12   14   17     -4.81      0.00
  -11   14   17      4.15      0.00
  -10   14   17    -12.02      0.00
   -9   14   17    -12.86      0.00
   -8   14   17      7.44      0.00
   -7   14   17      5.87      0.00
   -6   14   17     -1.08      0.00
   -5   14   17      8.24      0.00
   -4   14   17      4.49      0.00
   -3   14   17     17.50      0.00
   -2   14   17      3.32      0.00
   -1   14   17      2.36      0.00
    0   14   17     27.13      0.00
    1   14   17     15.76      0.00
    2   14   17     11.83      0.00
    3   14   17      0.55      0.00
    4   14   17     -5.25      0.00
    5   14   17      9.37      0.00
    6   14   17     -0.62      0.00
    7   14   17     -2.16      0.00
    8   14   17      5.04      0.00
    9   14   17    -17.47      0.00
   10   14   17     -9.72      0.00
   11   14   17     -3.11      0.00
  -11   15   17     -3.47      0.00
  -10   15   17     15.13      0.00
   -9   15   17      9.20      0.00
   -8   15   17     -6.93      0.00
   -7   15   17     -3.32      0.00
   -6   15   17     -1.51      0.00
   -5   15   17    -13.23      0.00
   -4   15   17     13.39      0.00
   -3   15   17     11.13      0.00
   -2   15   17      1.61      0.00
   -1   15   17      4.31      0.00
    0   15   17     -1.35      0.00
    1   15   17      9.78      0.00
    2   15   17      9.38      0.00
    3   15   17    -12.51      0.00
    4   15   17     -3.05      0.00
    5   15   17     -0.55      0.00
    6   15   17     -2.74      0.00
    7   15   17     -6.06      0.00
    8   15   17      0.83      0.00
    9   15   17     -4.39      0.00
   10   15   17     -6.34      0.00
  -11   16   17     -5.33      0.00
  -10   16   17      6.42      0.00
   -9   16   17      9.86      0.00
   -8   16   17      5.13      0.00
   -7   16   17      7.04      0.00
   -6   16   17     -7.92      0.00
   -5   16   17     12.42      0.00
   -4   16   17     -4.88      0.00
   -3   16   17    -15.75      0.00
   -2   16   17      4.92      0.00
   -1   16   17      2.09      0.00
    0   16   17      5.50      0.00
    1   16   17    -18.32      0.00
    2   16   17     -9.27      0.00
    3   16   17     10.39      0.00
    4   16   17    -16.10      0.00
    5   16   17     -9.15      0.00
    6   16   17     -0.94      0.00
    7   16   17     -2.51      0.00
    8   16   17     -3.33      0.00
    9   16   17      1.95      0.00
   10   16   17    -10.31      0.00
  -10   17   17     -9.63      0.00
   -9   17   17     -5.02      0.00
   -8   17   17    -12.38      0.00
   -7   17   17     12.27      0.00
   -6   17   17     -4.35      0.00
   -5   17   17     -5.16      0.00
   -4   17   17      8.41      0.00
   -3   17   17     11.09      0.00
   -2   17   17     -7.98      0.00
   -1   17   17     16.01      0.00
    0   17   17     20.21      0.00
    1   17   17     11.10      0.00
    2   17   17     18.35      0.00
    3   17   17     -2.48      0.00
    4   17   17    -13.11      0.00
    5   17   17      1.26      0.00
    6   17   17     -4.02      0.00
    7   17   17      5.20      0.00
    8   17   17      4.18      0.00
    9   17   17    -13.87      0.00
   -9   18   17      4.01      0.00
   -8   18   17      1.24      0.00
   -7   18   17      3.38      0.00
   -6   18   17     -1.48      0.00
   -5   18   17      3.16      0.00
   -4   18   17      2.41      0.00
   -3   18   17     -6.47      0.00
   -2   18   17      1.26      0.00
   -1   18   17    -10.81      0.00
    0   18   17      4.84      0.00
    1   18   17     -2.09      0.00
    2   18   17    -15.21      0.00
    3   18   17      1.38      0.00
    4   18   17     12.08      0.00
    5   18   17     -3.83      0.00
    6   18   17    -10.25      0.00
    7   18   17      3.06      0.00
    8   18   17     -0.54      0.00
   -8   19   17      6.71      0.00
   -7   19   17      5.10      0.00
   -6   19   17      9.98      0.00
   -5   19   17     -9.31      0.00
   -4   19   17     -4.35      0.00
   -3   19   17      9.48      0.00
   -2   19   17     16.68      0.00
   -1   19   17     -7.92      0.00
    0   19   17     -9.19      0.00
    1   19   17     -1.34      0.00
    2   19   17     -6.31      0.00
    3   19   17     -8.25      0.00
    4   19   17     -6.75      0.00
    5   19   17      7.68      0.00
    6   19   17      4.02      0.00
    7   19   17     -1.75      0.00
    8   19   17      1.13      0.00
   -7   20   17      0.33      0.00
   -6   20   17      3.20      0.00
   -5   20   17     -7.32      0.00
   -4   20   17     -1.51      0.00
   -3   20   17     -6.14      0.00
   -2   20   17      8.63      0.00
   -1   20   17     17.03      0.00
    0   20   17     13.45      0.00
    1   20   17      7.99      0.00
    2   20   17     -2.62      0.00
    3   20   17      2.27      0.00
    4   20   17     -3.74      0.00
    5   20   17     -3.67      0.00
    6   20   17      8.24      0.00
   -6   21   17      6.83      0.00
   -5   21   17      7.38      0.00
   -4   21   17    -18.99      0.00
   -3   21   17      3.61      0.00
   -2   21   17      8.33      0.00
   -1   21   17     -3.20      0.00
    0   21   17      0.94      0.00
    1   21   17     -6.57      0.00
    2   21   17      4.19      0.00
    3   21   17      2.87      0.00
    4   21   17      5.24      0.00
    5   21   17     -7.29      0.00
   -4   22   17     12.08      0.00
   -3   22   17     -6.49      0.00
   -2   22   17     -7.86      0.00
   -1   22   17      6.09      0.00
    0   22   17     -8.92      0.00
    1   22   17      6.30      0.00
    2   22   17      9.98      0.00
    3   22   17      3.03      0.00
    4   22   17      0.37      0.00
   -1   23   17     -0.54      0.00
    0   23   17      2.23      0.00
  -14    0   18      6.24      0.00
  -13    0   18      1.98      0.00
  -12    0   18     14.14      0.00
  -11    0   18     11.70      0.00
  -10    0   18    -11.47      0.00
   -9    0   18     -5.31      0.00
   -8    0   18      3.74      0.00
   -7    0   18     16.28      0.00
   -6    0   18      1.63      0.00
   -5    0   18      9.95      0.00
   -4    0   18     19.37      0.00
   -3    0   18    -24.42      0.00
   -2    0   18    -13.33      0.00
   -1    0   18     12.79      0.00
    0    0   18    -23.70      0.00
    1    0   18     17.04      0.00
    2    0   18      8.70      0.00
    3    0   18    -13.37      0.00
    4    0   18     10.99      0.00
    5    0   18    -21.75      0.00
    6    0   18    -14.01      0.00
    7    0   18      5.82      0.00
    8    0   18     -2.79      0.00
    9    0   18     14.89      0.00
   10    0   18    -11.15      0.00
   11    0   18     -4.88      0.00
   12    0   18      7.39      0.00
   13    0   18     -2.30      0.00
  -14    1   18     -7.60      0.00
  -13    1   18     -5.42      0.00
  -12    1   18      8.59      0.00
  -11    1   18    -13.02      0.00
  -10    1   18     10.98      0.00
   -9    1   18      4.01      0.00
   -8    1   18    -14.56      0.00
   -7    1   18      4.92      0.00
   -6    1   18    -10.95      0.00
   -5    1   18     -5.12      0.00
   -4    1   18     12.60      0.00
   -3    1   18    -29.77      0.00
   -2    1   18      9.66      0.00
   -1    1   18     -7.55      0.00
    0    1   18    -32.18      0.00
    1    1   18    -18.74      0.00
    2    1   18    -12.23      0.00
    3    1   18     11.10      0.00
    4    1   18     -8.78      0.00
    5    1   18    -17.81      0.00
    6    1   18    -20.49      0.00
    7    1   18      4.83      0.00
    8    1   18     12.40      0.00
    9    1   18     13.31      0.00
   10    1   18      6.29      0.00
   11    1   18      2.52      0.00
   12    1   18     -9.57      0.00
  -13    2   18    -13.37      0.00
  -12    2   18     -2.05      0.00
  -11    2   18     -3.12      0.00
  -10    2   18    -14.45      0.00
   -9    2   18      2.26      0.00
   -8    2   18      2.92      0.00
   -7    2   18     -8.55      0.00
   -6    2   18    -20.20      0.00
   -5    2   18    -14.25      0.00
   -4    2   18      3.26      0.00
   -3    2   18    -20.65      0.00
   -2    2   18    -19.64      0.00
   -1    2   18      6.87      0.00
    0    2   18     -1.20      0.00
    1    2   18      2.25      0.00
    2    2   18     -2.96      0.00
    3    2   18     17.34      0.00
    4    2   18     24.62      0.00
    5    2   18      2.47      0.00
    6    2   18    -12.16      0.00
    7    2   18     -0.51      0.00
    8    2   18      2.93      0.00
    9    2   18    -14.40      0.00
   10    2   18      1.48      0.00
   11    2   18     10.09      0.00
   12    2   18     10.97      0.00
  -13    3   18      0.58      0.00
  -12    3   18      0.18      0.00
  -11    3   18     19.75      0.00
  -10    3   18      7.83      0.00
   -9    3   18    -15.85      0.00
   -8    3   18      2.78      0.00
   -7    3   18     15.19      0.00
   -6    3   18      8.12      0.00
   -5    3   18     -2.25      0.00
   -4    3   18     -8.57      0.00
   -3    3   18     14.49      0.00
   -2    3   18     16.03      0.00
   -1    3   18      2.09      0.00
    0    3   18     35.94      0.00
    1    3   18      3.73      0.00
    2    3   18    -10.08      0.00
    3    3   18      8.11      0.00
    4    3   18     -2.38      0.00
    5    3   18      0.74      0.00
    6    3   18    -17.45      0.00
    7    3   18      1.54      0.00
    8    3   18     12.65      0.00
    9    3   18     -0.51      0.00
   10    3   18     -2.47      0.00
   11    3   18      4.64      0.00
   12    3   18     -0.73      0.00
  -13    4   18     -0.70      0.00
  -12    4   18      0.68      0.00
  -11    4   18      1.08      0.00
  -10    4   18     13.06      0.00
   -9    4   18      6.10      0.00
   -8    4   18      9.74      0.00
   -7    4   18     -1.29      0.00
   -6    4   18     15.81      0.00
   -5    4   18     11.00      0.00
   -4    4   18     17.95      0.00
   -3    4   18      9.92      0.00
   -2    4   18     19.23      0.00
   -1    4   18    -20.07      0.00
    0    4   18    -10.18      0.00
    1    4   18     10.14      0.00
    2    4   18     11.43      0.00
    3    4   18     14.23      0.00
    4    4   18     -1.17      0.00
    5    4   18    -31.56      0.00
    6    4   18     -6.94      0.00
    7    4   18     -4.86      0.00
    8    4   18     -8.64      0.00
    9    4   18     -5.54      0.00
   10    4   18      0.16      0.00
   11    4   18      9.62      0.00
   12    4   18      1.45      0.00
  -13    5   18      9.23      0.00
  -12    5   18     -8.15      0.00
  -11    5   18      4.59      0.00
  -10    5   18     -4.79      0.00
   -9    5   18     -0.40      0.00
   -8    5   18      1.40      0.00
   -7    5   18    -20.30      0.00
   -6    5   18      2.91      0.00
   -5    5   18      7.23      0.00
   -4    5   18     -6.40      0.00
   -3    5   18     12.93      0.00
   -2    5   18     -8.01      0.00
   -1    5   18      3.01      0.00
    0    5   18      8.57      0.00
    1    5   18     -8.40      0.00
    2    5   18     21.14      0.00
    3    5   18      0.39      0.00
    4    5   18    -17.31      0.00
    5    5   18     -8.45      0.00
    6    5   18    -12.31      0.00
    7    5   18      6.73      0.00
    8    5   18     -0.87      0.00
    9    5   18     -7.26      0.00
   10    5   18      4.25      0.00
   11    5   18     -5.97      0.00
   12    5   18     -3.30      0.00
  -13    6   18      2.56      0.00
  -12    6   18      4.75      0.00
  -11    6   18     -6.79      0.00
  -10    6   18     -2.10      0.00
   -9    6   18     10.90      0.00
   -8    6   18     -7.18      0.00
   -7    6   18      5.96      0.00
   -6    6   18     -9.44      0.00
   -5    6   18      9.62      0.00
   -4    6   18      1.78      0.00
   -3    6   18      7.79      0.00
   -2    6   18     -9.13      0.00
   -1    6   18    -20.75      0.00
    0    6   18    -26.53      0.00
    1    6   18     -1.28      0.00
    2    6   18     -1.76      0.00
    3    6   18      6.26      0.00
    4    6   18    -23.33      0.00
    5    6   18    -17.00      0.00
    6    6   18      2.39      0.00
    7    6   18    -12.97      0.00
    8    6   18    -12.23      0.00
    9    6   18     -1.19      0.00
   10    6   18      3.36      0.00
   11    6   18     17.77      0.00
   12    6   18     -2.18      0.00
  -13    7   18      0.98      0.00
  -12    7   18     -2.34      0.00
  -11    7   18    -12.73      0.00
  -10    7   18      1.04      0.00
   -9    7   18      8.17      0.00
   -8    7   18      9.95      0.00
   -7    7   18      7.36      0.00
   -6    7   18    -10.50      0.00
   -5    7   18     17.01      0.00
   -4    7   18      0.48      0.00
   -3    7   18     -3.80      0.00
   -2    7   18     -3.91      0.00
   -1    7   18    -14.53      0.00
    0    7   18    -17.27      0.00
    1    7   18     15.59      0.00
    2    7   18     17.59      0.00
    3    7   18    -10.39      0.00
    4    7   18     -6.88      0.00
    5    7   18    -19.48      0.00
    6    7   18     -0.81      0.00
    7    7   18     -6.06      0.00
    8    7   18     -0.48      0.00
    9    7   18     -2.55      0.00
   10    7   18      2.72      0.00
   11    7   18      6.13      0.00
   12    7   18      3.73      0.00
  -13    8   18     -9.33      0.00
  -12    8   18     10.56      0.00
  -11    8   18      1.11      0.00
  -10    8   18      8.90      0.00
   -9    8   18    -13.12      0.00
   -8    8   18     -7.51      0.00
   -7    8   18      7.04      0.00
   -6    8   18    -15.64      0.00
   -5    8   18     -3.49      0.00
   -4    8   18     -0.94      0.00
   -3    8   18     -2.33      0.00
   -2    8   18     -3.16      0.00
   -1    8   18    -12.50      0.00
    0    8   18     23.87      0.00
    1    8   18     -2.36      0.00
    2    8   18     31.27      0.00
    3    8   18     -0.98      0.00
    4    8   18     -1.45      0.00
    5    8   18     23.54      0.00
    6    8   18      0.83      0.00
    7    8   18      8.03      0.00
    8    8   18     -4.96      0.00
    9    8   18    -16.25      0.00
   10    8   18     11.79      0.00
   11    8   18      7.00      0.00
  -12    9   18     -3.61      0.00
  -11    9   18     -0.88      0.00
  -10    9   18     13.92      0.00
   -9    9   18      5.41      0.00
   -8    9   18      7.89      0.00
   -7    9   18     18.22      0.00
   -6    9   18      6.11      0.00
   -5    9   18     -1.82      0.00
   -4    9   18     -2.34      0.00
   -3    9   18     -1.12      0.00
   -2    9   18     12.77      0.00
   -1    9   18     -9.34      0.00
    0    9   18     -3.40      0.00
    1    9   18     18.57      0.00
    2    9   18     -3.45      0.00
    3    9   18     12.77      0.00
    4    9   18      5.69      0.00
    5    9   18     -0.92      0.00
    6    9   18      1.04      0.00
    7    9   18     -7.09      0.00
    8    9   18     -3.99      0.00
    9    9   18      8.33      0.00
   10    9   18      4.87      0.00
   11    9   18      7.03      0.00
  -12   10   18    -13.15      0.00
  -11   10   18     12.92      0.00
  -10   10   18      4.34      0.00
   -9   10   18     -0.84      0.00
   -8   10   18     14.37      0.00
   -7   10   18    -13.43      0.00
   -6   10   18      0.58      0.00
   -5   10   18      6.91      0.00
   -4   10   18    -14.60      0.00
   -3   10   18     13.10      0.00
   -2   10   18     18.51      0.00
   -1   10   18     -1.01      0.00
    0   10   18    -13.53      0.00
    1   10   18     -1.61      0.00
    2   10   18     15.58      0.00
    3   10   18     -1.24      0.00
    4   10   18     -8.82      0.00
    5   10   18     27.95      0.00
    6   10   18     -1.27      0.00
    7   10   18      0.84      0.00
    8   10   18      5.87      0.00
    9   10   18      6.54      0.00
   10   10   18      8.89      0.00
   11   10   18     -9.42      0.00
  -12   11   18      7.55      0.00
  -11   11   18    -13.78      0.00
  -10   11   18     -2.88      0.00
   -9   11   18     -8.70      0.00
   -8   11   18      2.83      0.00
   -7   11   18     -8.07      0.00
   -6   11   18     -3.69      0.00
   -5   11   18     15.61      0.00
   -4   11   18     -0.79      0.00
   -3   11   18    -38.07      0.00
   -2   11   18     -7.06      0.00
   -1   11   18     -6.77      0.00
    0   11   18     -2.69      0.00
    1   11   18     -0.06      0.00
    2   11   18      9.80      0.00
    3   11   18     -2.41      0.00
    4   11   18    -19.70      0.00
    5   11   18      6.26      0.00
    6   11   18      7.60      0.00
    7   11   18      4.15      0.00
    8   11   18     -4.58      0.00
    9   11   18      0.45      0.00
   10   11   18      4.64      0.00
  -11   12   18     -1.02      0.00
  -10   12   18      1.00      0.00
   -9   12   18      5.90      0.00
   -8   12   18     -9.59      0.00
   -7   12   18    -19.31      0.00
   -6   12   18      5.44      0.00
   -5   12   18    -11.05      0.00
   -4   12   18      9.78      0.00
   -3   12   18     23.13      0.00
   -2   12   18      1.13      0.00
   -1   12   18     -7.35      0.00
    0   12   18    -16.70      0.00
    1   12   18     -0.77      0.00
    2   12   18      4.31      0.00
    3   12   18     -4.74      0.00
    4   12   18     -2.46      0.00
    5   12   18     -2.39      0.00
    6   12   18      0.45      0.00
    7   12   18     -1.62      0.00
    8   12   18     -2.34      0.00
    9   12   18      5.31      0.00
   10   12   18      4.31      0.00
  -11   13   18      7.94      0.00
  -10   13   18     -9.72      0.00
   -9   13   18     -6.30      0.00
   -8   13   18      2.86      0.00
   -7   13   18      4.23      0.00
   -6   13   18     -1.67      0.00
   -5   13   18     18.01      0.00
   -4   13   18      8.27      0.00
   -3   13   18     19.03      0.00
   -2   13   18     -4.18      0.00
   -1   13   18     -1.85      0.00
    0   13   18     18.35      0.00
    1   13   18     11.69      0.00
    2   13   18     -4.96      0.00
    3   13   18     -0.43      0.00
    4   13   18     14.28      0.00
    5   13   18     -1.08      0.00
    6   13   18      3.62      0.00
    7   13   18    -10.81      0.00
    8   13   18     -2.22      0.00
    9   13   18     -2.19      0.00
   10   13   18     -1.28      0.00
  -10   14   18     12.82      0.00
   -9   14   18     -6.01      0.00
   -8   14   18     -9.29      0.00
   -7   14   18      9.85      0.00
   -6   14   18     14.69      0.00
   -5   14   18     17.89      0.00
   -4   14   18     -1.85      0.00
   -3   14   18     -0.05      0.00
   -2   14   18      0.84      0.00
   -1   14   18     -9.30      0.00
    0   14   18     -3.99      0.00
    1   14   18      1.96      0.00
    2   14   18      5.55      0.00
    3   14   18     -3.37      0.00
    4   14   18     17.40      0.00
    5   14   18      1.34      0.00
    6   14   18     -3.12      0.00
    7   14   18      6.97      0.00
    8   14   18     -1.43      0.00
    9   14   18      2.85      0.00
   -9   15   18     13.58      0.00
   -8   15   18     -2.75      0.00
   -7   15   18      6.09      0.00
   -6   15   18     -6.19      0.00
   -5   15   18     -2.61      0.00
   -4   15   18     15.14      0.00
   -3   15   18     -6.39      0.00
   -2   15   18    -11.12      0.00
   -1   15   18     -4.47      0.00
    0   15   18    -12.12      0.00
    1   15   18      3.52      0.00
    2   15   18     -7.73      0.00
    3   15   18     -0.21      0.00
    4   15   18     19.84      0.00
    5   15   18    -17.32      0.00
    6   15   18     -3.19      0.00
    7   15   18      7.97      0.00
    8   15   18    -16.47      0.00
   -9   16   18    -11.47      0.00
   -8   16   18      0.49      0.00
   -7   16   18     -0.71      0.00
   -6   16   18    -13.93      0.00
   -5   16   18      4.00      0.00
   -4   16   18    -13.30      0.00
   -3   16   18      8.73      0.00
   -2   16   18      5.35      0.00
   -1   16   18     -5.91      0.00
    0   16   18     -2.85      0.00
    1   16   18     10.10      0.00
    2   16   18      2.86      0.00
    3   16   18      5.91      0.00
    4   16   18    -14.74      0.00
    5   16   18     -6.91      0.00
    6   16   18      9.29      0.00
    7   16   18     -4.46      0.00
    8   16   18     -0.05      0.00
   -8   17   18      6.05      0.00
   -7   17   18    -11.23      0.00
   -6   17   18      6.22      0.00
   -5   17   18    -10.47      0.00
   -4   17   18     -1.00      0.00
   -3   17   18     -5.02      0.00
   -2   17   18     -4.12      0.00
   -1   17   18      9.79      0.00
    0   17   18     12.88      0.00
    1   17   18     -7.93      0.00
    2   17   18     -2.39      0.00
    3   17   18      2.01      0.00
    4   17   18      4.43      0.00
    5   17   18     -0.32      0.00
    6   17   18     -4.19      0.00
    7   17   18     -4.20      0.00
   -7   18   18     -4.84      0.00
   -6   18   18      9.12      0.00
   -5   18   18      1.62      0.00
   -4   18   18     17.41      0.00
   -3   18   18      6.05      0.00
   -2   18   18     14.80      0.00
   -1   18   18      2.33      0.00
    0   18   18     -3.43      0.00
    1   18   18      4.20      0.00
    2   18   18    -11.71      0.00
    3   18   18      0.38      0.00
    4   18   18     12.37      0.00
    5   18   18    -18.20      0.00
    6   18   18      2.50      0.00
   -6   19   18      5.95      0.00
   -5   19   18     -5.29      0.00
   -4   19   18      7.97      0.00
   -3   19   18     16.23      0.00
   -2   19   18    -12.03      0.00
   -1   19   18     10.69      0.00
    0   19   18      0.01      0.00
    1   19   18     -9.62      0.00
    2   19   18     -5.45      0.00
    3   19   18      9.93      0.00
    4   19   18     -3.50      0.00
    5   19   18      4.24      0.00
   -4   20   18     -2.23      0.00
   -3   20   18      1.49      0.00
   -2   20   18      1.99      0.00
   -1   20   18      3.05      0.00
    0   20   18    -13.32      0.00
    1   20   18    -11.90      0.00
    2   20   18     -4.97      0.00
    3   20   18     -0.97      0.00
  -12    1   19      5.71      0.00
  -11    1   19     -6.23      0.00
  -10    1   19     -7.27      0.00
   -9    1   19     -2.34      0.00
   -8    1   19     -5.19      0.00
   -7    1   19     -9.22      0.00
   -6    1   19      6.84      0.00
   -5    1   19     -9.71      0.00
   -4    1   19     -7.58      0.00
   -3    1   19     17.25      0.00
   -2    1   19    -15.53      0.00
   -1    1   19     10.95      0.00
    0    1   19     15.69      0.00
    1    1   19    -14.36      0.00
    2    1   19     17.51      0.00
    3    1   19    -15.12      0.00
    4    1   19    -26.19      0.00
    5    1   19     16.52      0.00
    6    1   19     -7.30      0.00
    7    1   19      2.55      0.00
    8    1   19      0.11      0.00
    9    1   19     -9.10      0.00
   10    1   19      6.29      0.00
   11    1   19      1.25      0.00
  -12    2   19      3.67      0.00
  -11    2   19      3.14      0.00
  -10    2   19      0.23      0.00
   -9    2   19     -4.62      0.00
   -8    2   19     -7.76      0.00
   -7    2   19    -15.55      0.00
   -6    2   19     -6.10      0.00
   -5    2   19     -4.57      0.00
   -4    2   19     -6.76      0.00
   -3    2   19    -22.84      0.00
   -2    2   19     -9.36      0.00
   -1    2   19      3.41      0.00
    0    2   19     16.02      0.00
    1    2   19    -19.93      0.00
    2    2   19    -18.47      0.00
    3    2   19      8.08      0.00
    4    2   19    -12.87      0.00
    5    2   19      5.16      0.00
    6    2   19     21.40      0.00
    7    2   19      9.58      0.00
    8    2   19     -8.50      0.00
    9    2   19     -3.45      0.00
   10    2   19     13.98      0.00
   11    2   19     -6.05      0.00
  -12    3   19     -3.73      0.00
  -11    3   19      7.30      0.00
  -10    3   19     -2.52      0.00
   -9    3   19      3.67      0.00
   -8    3   19     15.34      0.00
   -7    3   19      2.52      0.00
   -6    3   19    -16.27      0.00
   -5    3   19    -10.82      0.00
   -4    3   19     10.45      0.00
   -3    3   19    -14.09      0.00
   -2    3   19      4.15      0.00
   -1    3   19     11.66      0.00
    0    3   19     -4.83      0.00
    1    3   19      2.72      0.00
    2    3   19     -4.14      0.00
    3    3   19      4.49      0.00
    4    3   19     17.53      0.00
    5    3   19     -9.25      0.00
    6    3   19      9.38      0.00
    7    3   19     15.18      0.00
    8    3   19     -4.95      0.00
    9    3   19     -1.49      0.00
   10    3   19      2.12      0.00
   11    3   19      3.22      0.00
  -12    4   19      7.33      0.00
  -11    4   19     -3.10      0.00
  -10    4   19      2.10      0.00
   -9    4   19    -10.94      0.00
   -8    4   19    -12.34      0.00
   -7    4   19     12.05      0.00
   -6    4   19     -6.01      0.00
   -5    4   19      8.53      0.00
   -4    4   19     37.29      0.00
   -3    4   19     10.23      0.00
   -2    4   19     -7.76      0.00
   -1    4   19      2.43      0.00
    0    4   19     -7.13      0.00
    1    4   19     15.59      0.00
    2    4   19     -3.70      0.00
    3    4   19     -8.71      0.00
    4    4   19      2.58      0.00
    5    4   19      0.35      0.00
    6    4   19    -13.14      0.00
    7    4   19     -3.55      0.00
    8    4   19     15.45      0.00
    9    4   19      2.67      0.00
   10    4   19     -6.43      0.00
  -11    5   19     -1.56      0.00
  -10    5   19     -2.16      0.00
   -9    5   19      5.51      0.00
   -8    5   19    -17.78      0.00
   -7    5   19     -1.10      0.00
   -6    5   19     -0.85      0.00
   -5    5   19     -0.80      0.00
   -4    5   19     -9.55      0.00
   -3    5   19      0.46      0.00
   -2    5   19     -1.37      0.00
   -1    5   19      2.99      0.00
    0    5   19     -9.80      0.00
    1    5   19    -12.24      0.00
    2    5   19     -6.92      0.00
    3    5   19    -16.00      0.00
    4    5   19     -1.94      0.00
    5    5   19     -5.54      0.00
    6    5   19     21.60      0.00
    7    5   19      3.41      0.00
    8    5   19     -7.42      0.00
    9    5   19      7.99      0.00
   10    5   19      0.08      0.00
  -11    6   19     -8.68      0.00
  -10    6   19    -10.39      0.00
   -9    6   19     -1.30      0.00
   -8    6   19      1.07      0.00
   -7    6   19      5.87      0.00
   -6    6   19     -6.78      0.00
   -5    6   19     -7.37      0.00
   -4    6   19     12.83      0.00
   -3    6   19     24.54      0.00
   -2    6   19      8.59      0.00
   -1    6   19      2.10      0.00
    0    6   19      6.64      0.00
    1    6   19    -16.32      0.00
    2    6   19      8.83      0.00
    3    6   19     -3.70      0.00
    4    6   19      8.18      0.00
    5    6   19     -0.26      0.00
    6    6   19    -11.86      0.00
    7    6   19     -8.90      0.00
    8    6   19     -8.02      0.00
    9    6   19      7.20      0.00
   10    6   19      3.96      0.00
  -11    7   19     -2.69      0.00
  -10    7   19    -15.58      0.00
   -9    7   19     -0.47      0.00
   -8    7   19      6.41      0.00
   -7    7   19      0.77      0.00
   -6    7   19     -0.66      0.00
   -5    7   19      4.80      0.00
   -4    7   19     22.80      0.00
   -3    7   19    -11.38      0.00
   -2    7   19     -6.47      0.00
   -1    7   19      3.56      0.00
    0    7   19      3.58      0.00
    1    7   19      9.22      0.00
    2    7   19     -9.02      0.00
    3    7   19     -7.50      0.00
    4    7   19     -5.40      0.00
    5    7   19     -0.52      0.00
    6    7   19    -19.14      0.00
    7    7   19      3.72      0.00
    8    7   19      6.43      0.00
    9    7   19      0.81      0.00
   10    7   19      2.31      0.00
  -11    8   19      5.24      0.00
  -10    8   19      8.84      0.00
   -9    8   19     14.79      0.00
   -8    8   19     10.20      0.00
   -7    8   19     25.64      0.00
   -6    8   19     -0.49      0.00
   -5    8   19      2.40      0.00
   -4    8   19     14.53      0.00
   -3    8   19     -3.67      0.00
   -2    8   19    -13.96      0.00
   -1    8   19     -9.06      0.00
    0    8   19     -8.65      0.00
    1    8   19     14.64      0.00
    2    8   19     -1.24      0.00
    3    8   19    -30.30      0.00
    4    8   19     -0.66      0.00
    5    8   19      5.48      0.00
    6    8   19    -11.97      0.00
    7    8   19     -1.81      0.00
    8    8   19      6.18      0.00
    9    8   19     -4.35      0.00
   10    8   19     -4.82      0.00
  -10    9   19     13.60      0.00
   -9    9   19     -8.70      0.00
   -8    9   19     -3.27      0.00
   -7    9   19     -9.06      0.00
   -6    9   19     -3.80      0.00
   -5    9   19      0.69      0.00
   -4    9   19      1.38      0.00
   -3    9   19     -7.74      0.00
   -2    9   19      0.03      0.00
   -1    9   19      2.04      0.00
    0    9   19     -5.28      0.00
    1    9   19     11.18      0.00
    2    9   19     12.21      0.00
    3    9   19     16.50      0.00
    4    9   19    -17.68      0.00
    5    9   19      2.28      0.00
    6    9   19     14.41      0.00
    7    9   19    -16.21      0.00
    8    9   19     12.77      0.00
    9    9   19      9.14      0.00
  -10   10   19      7.86      0.00
   -9   10   19     -6.84      0.00
   -8   10   19      0.85      0.00
   -7   10   19    -10.31      0.00
   -6   10   19     -6.47      0.00
   -5   10   19      6.39      0.00
   -4   10   19      0.57      0.00
   -3   10   19    -14.63      0.00
   -2   10   19     -2.59      0.00
   -1   10   19    -12.31      0.00
    0   10   19     17.33      0.00
    1   10   19      9.34      0.00
    2   10   19    -37.61      0.00
    3   10   19     -1.55      0.00
    4   10   19      7.54      0.00
    5   10   19      3.99      0.00
    6   10   19     -4.04      0.00
    7   10   19     -8.39      0.00
    8   10   19      1.20      0.00
    9   10   19     11.24      0.00
   -9   11   19     -7.37      0.00
   -8   11   19     -6.89      0.00
   -7   11   19      9.05      0.00
   -6   11   19     10.70      0.00
   -5   11   19     17.51      0.00
   -4   11   19     -2.50      0.00
   -3   11   19     -4.77      0.00
   -2   11   19     15.06      0.00
   -1   11   19     -0.87      0.00
    0   11   19    -14.37      0.00
    1   11   19      8.70      0.00
    2   11   19    -18.34      0.00
    3   11   19    -16.67      0.00
    4   11   19     11.74      0.00
    5   11   19     -7.46      0.00
    6   11   19      9.61      0.00
    7   11   19      7.52      0.00
    8   11   19      2.76      0.00
   -9   12   19      4.84      0.00
   -8   12   19     -4.92      0.00
   -7   12   19    -18.49      0.00
   -6   12   19      0.18      0.00
   -5   12   19     -7.87      0.00
   -4   12   19      5.67      0.00
   -3   12   19      1.57      0.00
   -2   12   19      0.85      0.00
   -1   12   19      7.09      0.00
    0   12   19      0.14      0.00
    1   12   19      0.52      0.00
    2   12   19     -2.72      0.00
    3   12   19     12.25      0.00
    4   12   19      4.56      0.00
    5   12   19      0.11      0.00
    6   12   19     13.50      0.00
    7   12   19      2.56      0.00
    8   12   19      1.89      0.00
   -8   13   19     14.01      0.00
   -7   13   19     10.55      0.00
   -6   13   19     -7.30      0.00
   -5   13   19      7.38      0.00
   -4   13   19     -0.11      0.00
   -3   13   19     -5.67      0.00
   -2   13   19      6.69      0.00
   -1   13   19      5.97      0.00
    0   13   19     10.11      0.00
    1   13   19     -6.79      0.00
    2   13   19      4.50      0.00
    3   13   19     19.27      0.00
    4   13   19     -9.14      0.00
    5   13   19     -4.73      0.00
    6   13   19     -9.11      0.00
    7   13   19      5.12      0.00
   -8   14   19     17.58      0.00
   -7   14   19     17.07      0.00
   -6   14   19     -6.57      0.00
   -5   14   19     -7.50      0.00
   -4   14   19      0.10      0.00
   -3   14   19     14.29      0.00
   -2   14   19     11.55      0.00
   -1   14   19      6.50      0.00
    0   14   19     -3.85      0.00
    1   14   19      9.15      0.00
    2   14   19      0.98      0.00
    3   14   19     -3.08      0.00
    4   14   19     -3.03      0.00
    5   14   19      0.36      0.00
    6   14   19     -2.48      0.00
   -7   15   19      3.15      0.00
   -6   15   19      2.22      0.00
   -5   15   19    -10.05      0.00
   -4   15   19     -2.75      0.00
   -3   15   19     -4.39      0.00
   -2   15   19     -8.87      0.00
   -1   15   19     -8.19      0.00
    0   15   19      2.17      0.00
    1   15   19    -14.07      0.00
    2   15   19      7.55      0.00
    3   15   19     -8.30      0.00
    4   15   19     -3.21      0.00
    5   15   19      8.82      0.00
    6   15   19     -2.88      0.00
   -6   16   19      6.04      0.00
   -5   16   19     11.53      0.00
   -4   16   19      0.99      0.00
   -3   16   19     -5.07      0.00
   -2   16   19      7.89      0.00
   -1   16   19      8.81      0.00
    0   16   19      9.76      0.00
    1   16   19    -14.49      0.00
    2   16   19     10.03      0.00
    3   16   19     -1.24      0.00
    4   16   19     -1.62      0.00
    5   16   19     -1.09      0.00
   -4   17   19      8.70      0.00
   -3   17   19      0.33      0.00
   -2   17   19    -10.41      0.00
   -1   17   19      7.98      0.00
    0   17   19    -11.56      0.00
    1   17   19    -11.69      0.00
    2   17   19     19.85      0.00
    3   17   19      5.05      0.00
   -2   18   19    -15.93      0.00
   -1   18   19     -4.75      0.00
    0   18   19     -3.87      0.00
  -10    0   20     11.79      0.00
   -9    0   20     14.06      0.00
   -8    0   20     10.65      0.00
   -7    0   20     -7.80      0.00
   -6    0   20    -13.42      0.00
   -5    0   20    -16.31      0.00
   -4    0   20     -2.60      0.00
   -2    0   20      2.50      0.00
   -1    0   20      8.48      0.00
    0    0   20    -31.08      0.00
    1    0   20     -8.42      0.00
    2    0   20     20.66      0.00
    3    0   20     -0.76      0.00
    4    0   20     11.66      0.00
    5    0   20      6.60      0.00
    6    0   20     -7.11      0.00
    7    0   20      2.01      0.00
    8    0   20     -4.19      0.00
    9    0   20      5.07      0.00
  -10    1   20    -15.45      0.00
   -9    1   20      1.00      0.00
   -8    1   20     -1.26      0.00
   -7    1   20     -3.06      0.00
   -6    1   20     -3.43      0.00
   -5    1   20     -0.59      0.00
   -4    1   20      2.35      0.00
   -2    1   20    -12.76      0.00
   -1    1   20     17.67      0.00
    0    1   20      4.07      0.00
    1    1   20      6.32      0.00
    2    1   20      6.03      0.00
    3    1   20      2.91      0.00
    4    1   20    -20.84      0.00
    5    1   20    -22.07      0.00
    6    1   20      7.86      0.00
    7    1   20      4.19      0.00
    8    1   20     -8.79      0.00
    9    1   20      4.63      0.00
  -10    2   20     -3.61      0.00
   -9    2   20     -5.86      0.00
   -8    2   20      4.15      0.00
   -7    2   20     -3.30      0.00
   -6    2   20      2.89      0.00
   -5    2   20      4.66      0.00
   -4    2   20     -5.36      0.00
   -2    2   20    -11.74      0.00
   -1    2   20      1.93      0.00
    0    2   20     19.32      0.00
    1    2   20      5.40      0.00
    2    2   20      0.37      0.00
    3    2   20     27.42      0.00
    4    2   20     -5.16      0.00
    5    2   20    -16.44      0.00
    6    2   20      7.65      0.00
    7    2   20     -2.44      0.00
    8    2   20     -3.14      0.00
  -10    3   20     -1.71      0.00
   -9    3   20      2.42      0.00
   -8    3   20      7.65      0.00
   -7    3   20     -1.66      0.00
   -6    3   20      1.69      0.00
   -5    3   20      2.74      0.00
   -4    3   20      3.41      0.00
   -3    3   20     13.05      0.00
   -2    3   20      6.78      0.00
   -1    3   20    -10.78      0.00
    0    3   20      1.92      0.00
    1    3   20     14.48      0.00
    2    3   20     -4.13      0.00
    3    3   20     -8.43      0.00
    4    3   20      5.20      0.00
    5    3   20     -8.86      0.00
    6    3   20     -4.09      0.00
    7    3   20    -10.70      0.00
    8    3   20     -0.15      0.00
   -9    4   20     -4.56      0.00
   -8    4   20    -10.93      0.00
   -7    4   20     -0.90      0.00
   -6    4   20      4.16      0.00
   -5    4   20      5.90      0.00
   -4    4   20     -3.28      0.00
   -3    4   20     -7.64      0.00
   -2    4   20      1.05      0.00
   -1    4   20     -2.78      0.00
    0    4   20     -6.92      0.00
    1    4   20    -14.64      0.00
    2    4   20     12.86      0.00
    3    4   20      6.56      0.00
    4    4   20     -4.69      0.00
    5    4   20      7.34      0.00
    6    4   20      0.47      0.00
    7    4   20     -1.05      0.00
    8    4   20     -8.78      0.00
   -9    5   20      6.06      0.00
   -8    5   20      2.39      0.00
   -7    5   20    -12.12      0.00
   -6    5   20      4.49      0.00
   -5    5   20     -2.53      0.00
   -4    5   20     -2.51      0.00
   -3    5   20     -2.58      0.00
   -2    5   20     -6.55      0.00
   -1    5   20    -15.61      0.00
    0    5   20      8.22      0.00
    1    5   20      7.86      0.00
    2    5   20    -17.78      0.00
    3    5   20      6.05      0.00
    4    5   20     -2.10      0.00
    5    5   20     -5.73      0.00
    6    5   20      8.72      0.00
    7    5   20      8.17      0.00
    8    5   20     -4.92      0.00
   -9    6   20      2.49      0.00
   -8    6   20     -7.07      0.00
   -7    6   20    -18.39      0.00
   -6    6   20    -11.69      0.00
   -5    6   20      3.93      0.00
   -4    6   20     -2.89      0.00
   -3    6   20     -2.43      0.00
   -2    6   20     -4.99      0.00
   -1    6   20    -10.65      0.00
    0    6   20    -18.09      0.00
    1    6   20     -9.82      0.00
    2    6   20      7.99      0.00
    3    6   20      9.06      0.00
    4    6   20      5.87      0.00
    5    6   20      9.80      0.00
    6    6   20     -7.77      0.00
    7    6   20     -7.77      0.00
    8    6   20      4.95      0.00
   -9    7   20      4.50      0.00
   -8    7   20     -0.04      0.00
   -7    7   20     10.68      0.00
   -6    7   20      2.72      0.00
   -5    7   20     -7.20      0.00
   -4    7   20      7.60      0.00
   -3    7   20     -7.35      0.00
   -2    7   20      2.55      0.00
   -1    7   20     16.79      0.00
    0    7   20      2.83      0.00
    1    7   20      9.86      0.00
    2    7   20      7.62      0.00
    3    7   20      5.54      0.00
    4    7   20     -2.36      0.00
    5    7   20     -3.95      0.00
    6    7   20     -7.51      0.00
    7    7   20      7.48      0.00
   -8    8   20      2.06      0.00
   -7    8   20     -9.49      0.00
   -6    8   20      8.15      0.00
   -5    8   20     -2.17      0.00
   -4    8   20      4.73      0.00
   -3    8   20     12.51      0.00
   -2    8   20      3.86      0.00
   -1    8   20      1.30      0.00
    0    8   20     15.84      0.00
    1    8   20    -10.58      0.00
    2    8   20     -5.24      0.00
    3    8   20      8.14      0.00
    4    8   20      4.11      0.00
    5    8   20     -3.70      0.00
    6    8   20      5.46      0.00
    7    8   20     -0.48      0.00
   -8    9   20      4.72      0.00
   -7    9   20     22.41      0.00
   -6    9   20     18.26      0.00
   -5    9   20    -12.22      0.00
   -4    9   20      2.83      0.00
   -3    9   20     -3.69      0.00
   -2    9   20    -15.51      0.00
   -1    9   20      5.28      0.00
    0    9   20     -5.18      0.00
    1    9   20     -4.07      0.00
    2    9   20     12.21      0.00
    3    9   20    -13.97      0.00
    4    9   20      2.92      0.00
    5    9   20      2.61      0.00
    6    9   20    -10.48      0.00
    7    9   20     -8.75      0.00
   -7   10   20      8.37      0.00
   -6   10   20      3.19      0.00
   -5   10   20     10.04      0.00
   -4   10   20     -0.61      0.00
   -3   10   20     -1.06      0.00
   -2   10   20     -8.39      0.00
   -1   10   20      3.36      0.00
    0   10   20    -12.11      0.00
    1   10   20     -4.00      0.00
    2   10   20     -0.11      0.00
    3   10   20     -7.44      0.00
    4   10   20     -4.57      0.00
    5   10   20     -2.99      0.00
    6   10   20     -3.00      0.00
   -7   11   20    -12.71      0.00
   -6   11   20     -9.84      0.00
   -5   11   20      5.98      0.00
   -4   11   20      8.22      0.00
   -3   11   20     -7.10      0.00
   -2   11   20    -23.63      0.00
   -1   11   20     -8.59      0.00
    0   11   20     -7.72      0.00
    1   11   20      2.16      0.00
    2   11   20      8.85      0.00
    3   11   20     -1.97      0.00
    4   11   20     -4.39      0.00
    5   11   20      7.60      0.00
   -6   12   20     -6.02      0.00
   -5   12   20     -7.47      0.00
   -4   12   20      9.33      0.00
   -3   12   20      9.27      0.00
   -2   12   20     -5.49      0.00
   -1   12   20     -5.44      0.00
    0   12   20     10.57      0.00
    1   12   20    -11.80      0.00
    2   12   20     -7.63      0.00
    3   12   20      3.64      0.00
    4   12   20     -1.31      0.00
    5   12   20     -5.58      0.00
   -5   13   20     16.62      0.00
   -4   13   20     -6.18      0.00
   -3   13   20     23.85      0.00
   -2   13   20     15.23      0.00
   -1   13   20     -7.04      0.00
    0   13   20      8.64      0.00
    1   13   20      3.44      0.00
    2   13   20      0.94      0.00
    3   13   20      3.60      0.00
    4   13   20      5.72      0.00
   -3   14   20     -9.84      0.00
   -2   14   20     -0.32      0.00
   -1   14   20     -4.26      0.00
    0   14   20     -9.30      0.00
    1   14   20      3.61      0.00
    2   14   20      4.90      0.00
   -7    1   21     -6.50      0.00
   -6    1   21    -17.93      0.00
   -5    1   21     -5.64      0.00
   -3    1   21      1.65      0.00
   -2    1   21      9.17      0.00
   -1    1   21      3.52      0.00
    0    1   21     16.58      0.00
    1    1   21      2.40      0.00
    2    1   21      2.56      0.00
    3    1   21      1.81      0.00
    4    1   21    -13.19      0.00
    5    1   21     -1.50      0.00
    6    1   21     16.44      0.00
   -7    2   21    -14.74      0.00
   -6    2   21     -4.02      0.00
   -5    2   21      7.81      0.00
   -3    2   21     13.24      0.00
   -2    2   21     -2.35      0.00
   -1    2   21     -8.45      0.00
    0    2   21      2.17      0.00
    1    2   21      5.52      0.00
    2    2   21      4.08      0.00
    3    2   21      2.16      0.00
    4    2   21      4.89      0.00
    5    2   21      3.98      0.00
   -6    3   21     -7.65      0.00
   -5    3   21     -2.32      0.00
   -4    3   21      6.75      0.00
   -3    3   21      4.57      0.00
   -2    3   21     12.76      0.00
   -1    3   21     -0.83      0.00
    0    3   21    -15.67      0.00
    1    3   21     -8.67      0.00
    2    3   21    -10.59      0.00
    3    3   21      4.97      0.00
    4    3   21      6.36      0.00
    5    3   21     -9.88      0.00
   -6    4   21      4.78      0.00
   -5    4   21      5.85      0.00
   -4    4   21     -7.73      0.00
   -3    4   21      6.73      0.00
   -2    4   21     -1.88      0.00
   -1    4   21     -5.52      0.00
    0    4   21     -1.47      0.00
    1    4   21      8.41      0.00
    2    4   21     -8.22      0.00
    3    4   21    -13.30      0.00
    4    4   21      0.35      0.00
    5    4   21     -8.78      0.00
   -6    5   21     -0.91      0.00
   -5    5   21      0.64      0.00
   -4    5   21    -24.88      0.00
   -3    5   21      1.17      0.00
   -2    5   21     18.01      0.00
   -1    5   21     -0.08      0.00
    0    5   21     -9.00      0.00
    1    5   21     -3.78      0.00
    2    5   21      4.39      0.00
    3    5   21     10.49      0.00
    4    5   21     -5.19      0.00
    5    5   21     -6.52      0.00
   -5    6   21     -0.02      0.00
   -4    6   21     -4.01      0.00
   -3    6   21      4.65      0.00
   -2    6   21      5.88      0.00
   -1    6   21     17.44      0.00
    0    6   21     15.36      0.00
    1    6   21    -17.29      0.00
    2    6   21      6.36      0.00
    3    6   21      3.62      0.00
    4    6   21     -8.38      0.00
   -5    7   21    -12.87      0.00
   -4    7   21     11.79      0.00
   -3    7   21     -3.61      0.00
   -2    7   21    -11.38      0.00
   -1    7   21    -10.30      0.00
    0    7   21     -5.11      0.00
    1    7   21      6.77      0.00
    2    7   21      6.09      0.00
    3    7   21    -10.52      0.00
    4    7   21      4.47      0.00
   -4    8   21      4.07      0.00
   -3    8   21     13.30      0.00
   -2    8   21     -9.92      0.00
   -1    8   21     12.77      0.00
    0    8   21      4.24      0.00
    1    8   21     -4.18      0.00
    2    8   21     10.34      0.00
    3    8   21      4.26      0.00
   -3    9   21      5.28      0.00
   -2    9   21     -6.29      0.00
   -1    9   21      4.01      0.00
    0    9   21      5.79      0.00
    1    9   21      3.43      0.00
    2    9   21     -6.81      0.00
   -1   10   21    -12.12      0.00
    0   10   21     -7.43      0.00
    1    0    0     78.04      0.00
    2    0    0   -463.60      0.00
    3    0    0     37.83      0.00
   13    0    0    -19.51      0.00
    1    1    0    324.17      0.00
    2    1    0     33.66      0.00
    3    1    0   -114.20      0.00
    0    2    0   -127.61      0.00
    1    2    0     50.12      0.00
    2    2    0   -102.76      0.00
    3    2    0     44.77      0.00
    1    3    0   -191.66      0.00
    2    3    0    -37.69      0.00
    3    3    0     54.91      0.00
    0    4    0   -561.47      0.00
    1    4    0    133.47      0.00
    2    4    0    -43.78      0.00
    3    4    0    -62.53      0.00
    1    5    0   -110.87      0.00
    2    5    0     43.16      0.00
    0    6    0     27.63      0.00
    1    6    0     74.10      0.00
    2    6    0     14.36      0.00
    1    7    0   -191.85      0.00
    2    7    0     17.01      0.00
    0    8    0     -9.08      0.00
    0   10    0     -6.41      0.00
   23   10    0      3.82      0.00
   23   11    0      3.53      0.00
   23   12    0     -1.48      0.00
   22   15    0      0.89      0.00
   22   16    0     -0.25      0.00
   21   18    0      1.55      0.00
   21   19    0      3.39      0.00
   20   20    0     -3.72      0.00
   20   21    0     -0.04      0.00
   19   23    0      6.95      0.00
   18   25    0      2.91      0.00
   17   26    0      1.19      0.00
   16   28    0     -2.50      0.00
   15   29    0     -1.33      0.00
   14   30    0      3.72      0.00
   13   31    0     -3.38      0.00
   12   32    0     -5.88      0.00
   11   33    0      1.64      0.00
    9   34    0      0.09      0.00
   10   34    0      5.72      0.00
    8   35    0     -0.92      0.00
    5   36    0      4.39      0.00
    6   36    0     -5.24      0.00
   -3    1    1     23.34      0.00
   -2    1    1    252.37      0.00
   -1    1    1     78.63      0.00
    0    1    1    -91.83      0.00
    1    1    1     63.31      0.00
    2    1    1   -196.00      0.00
    3    1    1     71.72      0.00
   -3    2    1    129.14      0.00
   -2    2    1     10.52      0.00
   -1    2    1   -158.22      0.00
    0    2    1    173.86      0.00
    1    2    1    242.20      0.00
    2    2    1    -43.79      0.00
    3    2    1     34.55      0.00
   -3    3    1     -5.36      0.00
   -2    3    1     87.45      0.00
   -1    3    1    134.84      0.00
    0    3    1    116.07      0.00
    1    3    1    -28.69      0.00
    2    3    1   -328.55      0.00
    3    3    1     97.70      0.00
   -2    4    1    158.47      0.00
   -1    4    1    161.09      0.00
    0    4    1    107.05      0.00
    1    4    1    114.19      0.00
    2    4    1    158.65      0.00
   -2    5    1     10.65      0.00
   -1    5    1     -1.97      0.00
    0    5    1   -167.39      0.00
    1    5    1    -36.67      0.00
    2    5    1     30.22      0.00
   -2    6    1    114.32      0.00
   -1    6    1   -282.70      0.00
    0    6    1     -2.48      0.00
    1    6    1    196.50      0.00
    2    6    1    -15.04      0.00
   -2    7    1     66.15      0.00
    0    7    1    161.44      0.00
    1    7    1     52.28      0.00
    0    8    1     28.69      0.00
    1    8    1    147.32      0.00
    0    9    1    -42.04      0.00
  -23   10    1     -3.73      0.00
   23   10    1      1.67      0.00
  -23   11    1     -2.37      0.00
   23   11    1     -4.40      0.00
  -23   12    1     -2.20      0.00
   23   12    1     -0.47      0.00
   22   14    1      3.49      0.00
  -22   15    1      1.10      0.00
   22   15    1      6.54      0.00
  -22   16    1      0.64      0.00
   22   16    1      3.04      0.00
  -21   18    1      1.60      0.00
   21   18    1     -2.59      0.00
  -21   19    1      1.01      0.00
  -20   20    1      0.85      0.00
   20   20    1      3.44      0.00
  -20   21    1      1.76      0.00
   20   21    1     -4.11      0.00
   19   22    1      5.93      0.00
  -19   23    1      0.08      0.00
   19   23    1     -0.31      0.00
   18   24    1      7.21      0.00
  -18   25    1      4.98      0.00
   18   25    1      0.60      0.00
  -17   26    1      3.73      0.00
   17   26    1      3.51      0.00
  -16   28    1      7.60      0.00
   16   28    1     -4.27      0.00
  -15   29    1      0.00      0.00
   15   29    1     10.56      0.00
  -14   30    1     -7.31      0.00
   14   30    1     -5.39      0.00
  -13   31    1      3.98      0.00
   13   31    1     -5.44      0.00
  -12   32    1     -6.10      0.00
   12   32    1      2.74      0.00
  -11   33    1     -0.97      0.00
   11   33    1     -0.97      0.00
  -10   34    1      4.67      0.00
   -9   34    1      2.98      0.00
    9   34    1     -0.76      0.00
   10   34    1      2.71      0.00
   -8   35    1     -1.87      0.00
    8   35    1     -1.50      0.00
   -6   36    1      4.54      0.00
   -5   36    1     -4.17      0.00
    5   36    1     -5.75      0.00
    6   36    1     -5.74      0.00
   -3    0    2    -20.44      0.00
   -2    0    2    161.00      0.00
   -1    0    2    -75.07      0.00
    0    0    2    513.01      0.00
    1    0    2    -23.75      0.00
    2    0    2     43.10      0.00
    3    0    2     12.21      0.00
   17    0    2      3.20      0.00
   -3    1    2   -116.55      0.00
   -2    1    2   -166.05      0.00
   -1    1    2   -146.68      0.00
    0    1    2   -184.64      0.00
    1    1    2   -255.94      0.00
    2    1    2   -166.16      0.00
    3    1    2     68.82      0.00
   17    1    2    -21.19      0.00
   -2    2    2    -75.54      0.00
   -1    2    2    278.34      0.00
    0    2    2   -166.18      0.00
    1    2    2     86.57      0.00
    2    2    2     60.83      0.00
   -2    3    2    -10.51      0.00
   -1    3    2    133.16      0.00
    0    3    2    -23.87      0.00
    1    3    2    -75.49      0.00
    2    3    2     34.31      0.00
   -2    4    2     26.28      0.00
   -1    4    2     -6.84      0.00
    0    4    2     -2.44      0.00
    1    4    2      0.31      0.00
   -1    5    2     62.14      0.00
    0    5    2      1.57      0.00
    1    5    2    -36.67      0.00
   -1    6    2    102.07      0.00
    0    6    2    -28.65      0.00
   -1    7    2     -5.98      0.00
    0    7    2    -14.83      0.00
    0    8    2    -35.87      0.00
   23    9    2     -0.75      0.00
  -23   10    2      0.93      0.00
   23   10    2     -2.13      0.00
  -23   11    2     -1.84      0.00
   23   11    2     -3.59      0.00
  -23   12    2      4.13      0.00
  -22   14    2      3.54      0.00
   22   14    2     -1.51      0.00
  -22   15    2     -1.50      0.00
   22   15    2      1.18      0.00
  -22   16    2     -1.36      0.00
   21   17    2     -4.23      0.00
  -21   18    2     -0.58      0.00
   21   18    2      4.54      0.00
  -20   20    2      1.44      0.00
   20   20    2      4.86      0.00
  -20   21    2      0.39      0.00
   20   21    2      0.29      0.00
  -19   22    2     -0.24      0.00
   19   22    2      0.78      0.00
  -19   23    2     -3.94      0.00
   19   23    2     -5.99      0.00
  -18   24    2     -5.25      0.00
   18   24    2     -2.39      0.00
  -18   25    2     -3.01      0.00
   18   25    2      4.74      0.00
  -17   26    2      1.98      0.00
   17   26    2      1.14      0.00
   16   27    2      4.24      0.00
  -16   28    2     -0.47      0.00
   16   28    2      2.63      0.00
  -15   29    2      4.00      0.00
   15   29    2      5.07      0.00
  -14   30    2     -1.40      0.00
   14   30    2     -4.25      0.00
  -13   31    2     -2.31      0.00
   13   31    2     -6.52      0.00
  -12   32    2     -7.34      0.00
   12   32    2      0.39      0.00
  -11   33    2     -6.16      0.00
   11   33    2      7.10      0.00
  -10   34    2     -0.55      0.00
   -9   34    2     10.11      0.00
    9   34    2      6.68      0.00
   10   34    2     -0.45      0.00
   -8   35    2      3.41      0.00
   -7   35    2     -4.11      0.00
    7   35    2     -1.73      0.00
    8   35    2     -1.75      0.00
   -6   36    2      7.34      0.00
   -5   36    2     -0.61      0.00
    4   36    2     -1.58      0.00
    5   36    2      4.71      0.00
    6   36    2     -4.06      0.00
   -1    1    3     84.62      0.00
    0    1    3    133.14      0.00
    1    1    3     97.29      0.00
   18    1    3     -2.76      0.00
   19    1    3     -0.62      0.00
   -1    2    3     95.61      0.00
    0    2    3      8.66      0.00
    1    2    3    -90.23      0.00
   -1    3    3     55.18      0.00
    0    3    3    -44.74      0.00
    1    3    3     -0.81      0.00
    0    4    3    -13.19      0.00
    1    4    3     -5.27      0.00
   23    8    3     -4.60      0.00
  -23    9    3     -2.03      0.00
   23    9    3      0.86      0.00
  -23   10    3     -1.07      0.00
   23   10    3     -2.23      0.00
  -23   11    3     -2.44      0.00
   23   11    3     -6.17      0.00
   22   13    3      0.17      0.00
  -22   14    3     -0.31      0.00
   22   14    3     -4.36      0.00
  -22   15    3      4.59      0.00
   22   15    3      1.91      0.00
  -21   17    3     -1.85      0.00
   21   17    3     -4.34      0.00
  -21   18    3     -1.81      0.00
   21   18    3     -4.71      0.00
  -20   20    3      3.19      0.00
   20   20    3      2.38      0.00
  -20   21    3     -1.55      0.00
  -19   22    3     -2.07      0.00
   19   22    3      2.00      0.00
  -19   23    3     -0.52      0.00
  -18   24    3      0.63      0.00
   18   24    3     -6.58      0.00
  -18   25    3     -1.89      0.00
  -17   26    3      1.01      0.00
   17   26    3     -0.10      0.00
  -16   27    3     -3.52      0.00
   16   27    3      2.05      0.00
  -16   28    3      4.04      0.00
   15   28    3      5.74      0.00
  -15   29    3      1.97      0.00
   15   29    3      5.01      0.00
  -14   30    3     -1.33      0.00
   14   30    3      2.80      0.00
  -13   31    3     -0.92      0.00
   13   31    3      0.20      0.00
  -12   32    3     -4.91      0.00
   12   32    3     -7.91      0.00
  -11   33    3      3.77      0.00
  -10   33    3     -0.53      0.00
   10   33    3      6.01      0.00
   11   33    3     -0.85      0.00
   -9   34    3     -7.95      0.00
    9   34    3      0.81      0.00
   -8   35    3     -0.02      0.00
   -7   35    3      0.21      0.00
    7   35    3      0.76      0.00
    8   35    3     -4.32      0.00
   -6   36    3      2.76      0.00
   -5   36    3     -1.46      0.00
   -4   36    3     -7.04      0.00
    4   36    3     -2.05      0.00
    5   36    3      1.93      0.00
    6   36    3      7.92      0.00
   19    0    4     13.36      0.00
   20    0    4      3.40      0.00
   20    1    4      2.31      0.00
   20    2    4      3.22      0.00
   20    3    4     -6.46      0.00
   23    6    4      5.83      0.00
   23    7    4      3.53      0.00
  -23    8    4      2.99      0.00
   23    8    4    -11.25      0.00
  -23    9    4      5.11      0.00
   23    9    4     -5.24      0.00
  -23   10    4     -5.67      0.00
   23   10    4     -2.13      0.00
  -23   11    4    -10.49      0.00
   22   12    4      0.29      0.00
  -22   13    4     -0.90      0.00
   22   13    4      0.20      0.00
  -22   14    4     -2.29      0.00
   22   14    4     -1.32      0.00
  -22   15    4      5.82      0.00
   21   16    4      4.46      0.00
  -21   17    4     -1.84      0.00
   21   17    4     -1.30      0.00
  -21   18    4      0.37      0.00
   20   19    4     -5.91      0.00
  -20   20    4      0.10      0.00
   20   20    4      1.55      0.00
   19   21    4      1.43      0.00
  -19   22    4      1.82      0.00
   19   22    4     -0.28      0.00
   18   23    4      0.00      0.00
  -18   24    4      2.59      0.00
   18   24    4     -1.31      0.00
  -17   25    4      5.54      0.00
   17   25    4      2.74      0.00
  -17   26    4      5.65      0.00
  -16   27    4      5.29      0.00
   16   27    4     -5.35      0.00
  -15   28    4     -2.84      0.00
   15   28    4     -2.32      0.00
  -15   29    4     -2.85      0.00
   14   29    4      1.12      0.00
  -14   30    4      6.15      0.00
   13   30    4      1.22      0.00
  -13   31    4     -1.98      0.00
   12   31    4      4.52      0.00
  -12   32    4      0.23      0.00
  -11   32    4     -6.42      0.00
   11   32    4     -3.76      0.00
  -10   33    4      5.92      0.00
   10   33    4     -4.96      0.00
   -9   34    4     -1.09      0.00
   -8   34    4     -1.30      0.00
    8   34    4     -0.96      0.00
    9   34    4      3.61      0.00
   -7   35    4     -0.89      0.00
   -6   35    4     -2.23      0.00
    6   35    4      0.86      0.00
    7   35    4      0.95      0.00
   -5   36    4      0.52      0.00
   -4   36    4      0.79      0.00
   -3   36    4     -2.46      0.00
   -2   36    4      4.48      0.00
    2   36    4      2.13      0.00
    3   36    4      0.62      0.00
    4   36    4      2.06      0.00
    5   36    4      6.28      0.00
   20    1    5     -8.62      0.00
   21    1    5     -4.21      0.00
   21    2    5     -3.84      0.00
   23    3    5      0.23      0.00
   23    4    5      0.33      0.00
   23    5    5     -3.45      0.00
   23    6    5     -3.18      0.00
  -23    7    5      3.27      0.00
   23    7    5      5.04      0.00
  -23    8    5     -1.02      0.00
   23    8    5      0.02      0.00
  -23    9    5     -0.70      0.00
  -23   10    5     -0.52      0.00
   22   11    5     -7.98      0.00
  -22   12    5      1.08      0.00
   22   12    5     -0.67      0.00
  -22   13    5      7.03      0.00
   22   13    5     -4.50      0.00
  -22   14    5      2.90      0.00
   21   15    5     -8.22      0.00
  -21   16    5      2.13      0.00
   21   16    5      3.02      0.00
  -21   17    5     -1.39      0.00
   20   18    5     -1.52      0.00
  -20   19    5     -1.24      0.00
   20   19    5     -0.79      0.00
  -20   20    5      5.82      0.00
  -19   21    5     -1.51      0.00
   19   21    5      4.64      0.00
  -19   22    5      0.48      0.00
  -18   23    5      0.50      0.00
   18   23    5      7.70      0.00
  -18   24    5      3.09      0.00
  -17   25    5      2.33      0.00
   17   25    5     -6.85      0.00
   16   26    5     -0.89      0.00
  -16   27    5      4.22      0.00
  -15   28    5      7.25      0.00
   15   28    5      3.82      0.00
  -14   29    5      3.90      0.00
   14   29    5     -2.53      0.00
  -13   30    5      3.49      0.00
   13   30    5      0.90      0.00
  -12   31    5      1.06      0.00
   12   31    5      1.59      0.00
  -11   32    5     -9.83      0.00
   11   32    5     -2.05      0.00
  -10   33    5     -6.77      0.00
   -9   33    5      3.42      0.00
    9   33    5      8.27      0.00
   10   33    5      2.41      0.00
   -8   34    5      0.17      0.00
    7   34    5     -2.57      0.00
    8   34    5     -4.01      0.00
   -7   35    5      3.31      0.00
   -6   35    5      1.76      0.00
   -5   35    5     -2.60      0.00
    5   35    5      3.66      0.00
    6   35    5      1.07      0.00
   -4   36    5     -1.89      0.00
   -3   36    5      1.29      0.00
   -2   36    5      2.67      0.00
   -1   36    5     -5.07      0.00
    0   36    5     -2.45      0.00
    1   36    5     -8.99      0.00
    2   36    5      0.36      0.00
    3   36    5      4.19      0.00
    4   36    5     -5.82      0.00
    2    0    6    -46.71      0.00
   21    0    6     -1.29      0.00
   23    0    6      6.87      0.00
   21    1    6     -4.64      0.00
   23    1    6      2.65      0.00
   21    2    6      0.40      0.00
   23    2    6     -6.57      0.00
  -23    3    6      5.63      0.00
   23    3    6     -3.61      0.00
  -23    4    6     -4.36      0.00
   23    4    6      0.11      0.00
  -23    5    6     -2.69      0.00
   23    5    6     -2.21      0.00
  -23    6    6      7.32      0.00
   23    6    6     -1.60      0.00
  -23    7    6      1.54      0.00
  -23    8    6     -7.31      0.00
   22    9    6     -6.08      0.00
   22   10    6     -1.71      0.00
  -22   11    6      1.85      0.00
   22   11    6     -6.05      0.00
  -22   12    6      3.97      0.00
   22   12    6     -0.65      0.00
  -22   13    6     -0.93      0.00
   21   14    6     -4.98      0.00
  -21   15    6      0.46      0.00
   21   15    6      0.06      0.00
  -21   16    6     -1.90      0.00
   20   17    6      2.75      0.00
  -20   18    6      1.11      0.00
   20   18    6      2.94      0.00
  -20   19    6     -2.38      0.00
   19   20    6     -2.43      0.00
  -19   21    6     -2.94      0.00
   18   22    6      6.73      0.00
  -18   23    6      5.30      0.00
  -17   24    6     -0.38      0.00
   17   24    6      0.38      0.00
  -17   25    6      2.42      0.00
   16   25    6     -0.47      0.00
  -16   26    6     -2.77      0.00
   16   26    6     -2.48      0.00
  -15   27    6      5.33      0.00
   15   27    6     -2.27      0.00
  -15   28    6     -2.83      0.00
   14   28    6     11.50      0.00
  -14   29    6      8.89      0.00
   13   29    6     -4.97      0.00
  -13   30    6     -0.00      0.00
   12   30    6      1.76      0.00
  -12   31    6     -0.22      0.00
   11   31    6      4.98      0.00
  -11   32    6      0.46      0.00
  -10   32    6      2.41      0.00
   10   32    6      6.68      0.00
   -9   33    6      2.49      0.00
    8   33    6      0.32      0.00
    9   33    6     -1.67      0.00
   -8   34    6      3.24      0.00
   -7   34    6      1.58      0.00
    6   34    6      1.82      0.00
    7   34    6      5.76      0.00
   -6   35    6      0.42      0.00
   -5   35    6     -1.43      0.00
   -4   35    6      9.71      0.00
   -3   35    6      3.78      0.00
    3   35    6      0.55      0.00
    4   35    6      1.88      0.00
    5   35    6     -7.52      0.00
   -2   36    6     -2.59      0.00
   -1   36    6      1.67      0.00
    0   36    6      5.19      0.00
    1   36    6     -4.34      0.00
    2   36    6      0.33      0.00
  -23    1    7     -0.16      0.00
   22    1    7     -4.04      0.00
  -23    2    7     -3.78      0.00
   22    2    7     -0.52      0.00
  -23    3    7     12.49      0.00
   22    3    7      1.67      0.00
  -23    4    7     -2.13      0.00
  -23    5    7     -3.64      0.00
  -23    6    7     -4.28      0.00
   22    7    7      0.44      0.00
   22    8    7     -1.85      0.00
  -22    9    7     -4.06      0.00
   22    9    7      0.24      0.00
  -22   10    7      6.30      0.00
   22   10    7     -4.27      0.00
  -22   11    7     -6.58      0.00
  -22   12    7      1.73      0.00
   21   12    7     -3.37      0.00
   21   13    7     -1.44      0.00
  -21   14    7      1.42      0.00
   21   14    7      6.60      0.00
  -21   15    7      6.26      0.00
   20   16    7      3.54      0.00
  -20   17    7     -6.68      0.00
   20   17    7     -5.79      0.00
  -20   18    7      1.68      0.00
   19   19    7     -0.27      0.00
  -19   20    7      4.54      0.00
   18   21    7      4.91      0.00
  -18   22    7     -7.17      0.00
   18   22    7     -0.80      0.00
   17   23    7      2.79      0.00
  -17   24    7      1.44      0.00
  -16   25    7      0.70      0.00
   16   25    7      5.48      0.00
  -16   26    7      5.03      0.00
   15   26    7     -5.61      0.00
  -15   27    7      5.24      0.00
   14   27    7      5.98      0.00
  -14   28    7     -0.09      0.00
   14   28    7      5.43      0.00
  -13   29    7      2.72      0.00
   13   29    7      5.35      0.00
  -12   30    7      4.43      0.00
   12   30    7     -6.10      0.00
  -11   31    7      5.82      0.00
   10   31    7      1.36      0.00
   11   31    7      2.88      0.00
  -10   32    7     -8.51      0.00
   -9   32    7      6.03      0.00
    9   32    7      5.45      0.00
   10   32    7     -1.37      0.00
   -9   33    7      2.17      0.00
   -8   33    7      3.83      0.00
    7   33    7     -0.29      0.00
    8   33    7     -4.88      0.00
   -7   34    7      6.63      0.00
   -6   34    7     -1.18      0.00
   -5   34    7      1.35      0.00
    5   34    7     -0.60      0.00
    6   34    7      0.71      0.00
   -4   35    7     -2.45      0.00
   -3   35    7     -3.16      0.00
   -2   35    7      1.10      0.00
   -1   35    7     -8.03      0.00
    0   35    7     -5.03      0.00
    1   35    7      4.68      0.00
    2   35    7      1.90      0.00
    3   35    7     -4.76      0.00
    4   35    7      2.52      0.00
  -23    0    8     -6.06      0.00
   22    0    8     -0.73      0.00
  -23    1    8     -5.93      0.00
   22    1    8      0.69      0.00
   22    2    8     -2.92      0.00
   22    3    8      8.75      0.00
   22    4    8      1.64      0.00
   22    5    8     -3.74      0.00
   22    6    8      2.21      0.00
  -22    7    8      1.84      0.00
   22    7    8      0.58      0.00
  -22    8    8      3.90      0.00
  -22    9    8      0.78      0.00
  -22   10    8     -2.57      0.00
   21   10    8      0.82      0.00
   21   11    8     -6.08      0.00
  -21   12    8      2.51      0.00
   21   12    8      2.79      0.00
  -21   13    8     -1.87      0.00
  -21   14    8     -3.15      0.00
   20   14    8     -1.34      0.00
   20   15    8      5.66      0.00
  -20   16    8      4.56      0.00
   20   16    8     -6.20      0.00
  -20   17    8      2.40      0.00
   19   17    8      0.89      0.00
   19   18    8      0.69      0.00
  -19   19    8     -5.12      0.00
   18   20    8      1.78      0.00
  -18   21    8      2.51      0.00
   18   21    8      2.91      0.00
   17   22    8      0.86      0.00
  -17   23    8     -1.59      0.00
  -16   24    8      2.20      0.00
   16   24    8      3.76      0.00
  -16   25    8      0.30      0.00
   15   25    8     -1.95      0.00
  -15   26    8     -2.18      0.00
   15   26    8     -0.47      0.00
  -14   27    8     -3.34      0.00
   14   27    8     -0.84      0.00
  -13   28    8     -1.94      0.00
   13   28    8     -5.25      0.00
  -13   29    8     -2.71      0.00
  -12   29    8      1.17      0.00
   12   29    8      1.05      0.00
  -12   30    8     -0.36      0.00
  -11   30    8      2.74      0.00
   11   30    8     -0.97      0.00
  -10   31    8     -6.71      0.00
   10   31    8      0.37      0.00
   -9   32    8     -3.28      0.00
   -8   32    8     -3.14      0.00
    8   32    8      4.70      0.00
    9   32    8     -0.87      0.00
   -7   33    8      0.14      0.00
   -6   33    8     -5.86      0.00
    6   33    8      6.88      0.00
    7   33    8     -3.32      0.00
   -5   34    8     -5.84      0.00
   -4   34    8      2.28      0.00
   -3   34    8      0.92      0.00
    2   34    8      1.66      0.00
    3   34    8      1.63      0.00
    4   34    8      2.26      0.00
    5   34    8      5.50      0.00
   -1   35    8     -1.34      0.00
    0   35    8     -4.27      0.00
    1   35    8      1.95      0.00
  -22    1    9     -5.32      0.00
   22    1    9     -5.45      0.00
  -22    2    9     -1.13      0.00
   22    2    9      0.92      0.00
  -22    3    9     -7.03      0.00
   22    3    9     -0.02      0.00
  -22    4    9      0.80      0.00
  -22    5    9      2.19      0.00
  -22    6    9     -4.65      0.00
  -22    7    9      0.72      0.00
   21    7    9      1.40      0.00
   21    8    9     -2.45      0.00
   21    9    9     -0.25      0.00
  -21   10    9     -2.38      0.00
   21   10    9      1.84      0.00
  -21   11    9      2.54      0.00
  -21   12    9     11.49      0.00
   20   13    9      0.60      0.00
  -20   14    9      5.96      0.00
   20   14    9     -5.67      0.00
  -20   15    9     -4.38      0.00
  -20   16    9      3.58      0.00
   19   16    9      0.18      0.00
  -19   17    9      2.05      0.00
   19   17    9      3.47      0.00
  -19   18    9      2.32      0.00
   18   19    9      1.89      0.00
  -18   20    9     -2.31      0.00
   17   21    9      5.50      0.00
  -17   22    9      2.80      0.00
   16   23    9      3.91      0.00
  -16   24    9     -3.18      0.00
   15   24    9      3.85      0.00
  -15   25    9     -4.83      0.00
   15   25    9     -3.61      0.00
  -14   26    9      2.61      0.00
   14   26    9      1.57      0.00
  -14   27    9     -2.71      0.00
   13   27    9     -4.40      0.00
  -13   28    9     -0.58      0.00
   12   28    9      0.54      0.00
  -12   29    9      6.93      0.00
   11   29    9      1.82      0.00
  -11   30    9      1.57      0.00
  -10   30    9      0.77      0.00
   10   30    9     -0.33      0.00
   -9   31    9      1.61      0.00
    8   31    9     -1.24      0.00
    9   31    9     -6.13      0.00
   -8   32    9      0.45      0.00
   -7   32    9      3.77      0.00
    6   32    9      0.83      0.00
    7   32    9      4.67      0.00
   -6   33    9      4.27      0.00
   -5   33    9     -1.97      0.00
   -4   33    9      2.15      0.00
    4   33    9      5.88      0.00
    5   33    9      5.07      0.00
    6   33    9     -3.34      0.00
   -3   34    9      9.67      0.00
   -2   34    9     -6.52      0.00
   -1   34    9      1.96      0.00
    0   34    9    -11.28      0.00
    1   34    9      4.54      0.00
    2   34    9      5.28      0.00
    3   34    9     -2.58      0.00
  -22    0   10      3.37      0.00
    2    0   10    -17.07      0.00
   21    0   10     -2.81      0.00
  -22    1   10      1.35      0.00
   21    1   10      2.13      0.00
  -22    2   10      2.41      0.00
   21    2   10     -0.69      0.00
  -22    3   10      1.88      0.00
   21    3   10     -3.96      0.00
   21    4   10      4.65      0.00
   21    5   10     -4.25      0.00
   21    6   10     -0.80      0.00
  -21    7   10     -6.76      0.00
   21    7   10     -1.61      0.00
  -21    8   10     -1.74      0.00
  -21    9   10      0.07      0.00
  -21   10   10      0.70      0.00
   20   10   10     -2.41      0.00
   20   11   10      7.60      0.00
  -20   12   10      1.49      0.00
   20   12   10      2.44      0.00
  -20   13   10      0.83      0.00
  -20   14   10      8.70      0.00
   19   14   10     -0.96      0.00
   19   15   10     -0.58      0.00
  -19   16   10     -2.47      0.00
  -19   17   10     -0.20      0.00
   18   17   10      2.82      0.00
  -18   18   10      0.35      0.00
   18   18   10     -1.11      0.00
  -18   19   10     -1.39      0.00
   17   19   10      0.87      0.00
   17   20   10      4.73      0.00
  -17   21   10     -2.16      0.00
   16   21   10     -4.34      0.00
  -16   22   10     -2.54      0.00
   16   22   10      4.11      0.00
  -16   23   10     -6.48      0.00
   15   23   10     -8.20      0.00
  -15   24   10     -2.25      0.00
   15   24   10     -0.46      0.00
  -14   25   10      2.00      0.00
   14   25   10     -1.46      0.00
  -14   26   10     -3.60      0.00
   13   26   10      1.61      0.00
  -13   27   10      0.31      0.00
   12   27   10      2.80      0.00
  -12   28   10      2.01      0.00
    8   28   10      3.79      0.00
    9   28   10      2.32      0.00
   11   28   10      0.34      0.00
  -11   29   10      2.71      0.00
  -10   29   10      0.28      0.00
    8   29   10     -9.13      0.00
    9   29   10      2.63      0.00
   10   29   10     -4.34      0.00
  -10   30   10    -10.19      0.00
   -9   30   10     -3.58      0.00
    8   30   10      1.21      0.00
    9   30   10      5.78      0.00
   -8   31   10      0.89      0.00
   -7   31   10      0.13      0.00
    7   31   10     -5.00      0.00
    8   31   10      2.07      0.00
   -6   32   10      2.88      0.00
   -5   32   10      3.95      0.00
    4   32   10     -2.99      0.00
    5   32   10     -4.54      0.00
    6   32   10     -0.61      0.00
   -4   33   10     -5.25      0.00
   -3   33   10     -3.50      0.00
   -2   33   10      7.19      0.00
   -1   33   10      0.62      0.00
    0   33   10     -8.10      0.00
    1   33   10      1.39      0.00
    2   33   10      5.00      0.00
    3   33   10     -0.78      0.00
  -21    1   11      1.76      0.00
  -21    2   11     10.14      0.00
  -21    3   11     -2.78      0.00
  -21    4   11     -4.00      0.00
  -21    5   11      8.56      0.00
  -21    6   11     -1.94      0.00
   20    6   11     -4.05      0.00
  -21    7   11     -5.31      0.00
   20    7   11      2.64      0.00
   20    8   11     -1.61      0.00
   20    9   11     -2.06      0.00
  -20   10   11      1.69      0.00
  -20   11   11     -0.53      0.00
   19   11   11      3.69      0.00
  -20   12   11      0.99      0.00
   19   12   11     -6.07      0.00
   19   13   11     -1.58      0.00
  -19   14   11     -1.53      0.00
  -19   15   11      1.09      0.00
   18   15   11     -2.75      0.00
   18   16   11     -1.34      0.00
  -18   17   11     -3.88      0.00
  -18   18   11     -2.41      0.00
   17   18   11      2.93      0.00
  -17   19   11      2.07      0.00
  -17   20   11      6.00      0.00
   16   20   11      5.06      0.00
  -16   21   11     -3.25      0.00
  -16   22   11     -1.63      0.00
   15   22   11     -0.70      0.00
  -15   23   11     -2.33      0.00
   14   23   11      3.81      0.00
  -14   24   11      1.32      0.00
   14   24   11     -0.61      0.00
  -14   25   11      0.49      0.00
  -13   25   11      3.04      0.00
   13   25   11     -2.07      0.00
  -13   26   11      2.82      0.00
   12   26   11     -5.59      0.00
  -12   27   11     -0.77      0.00
   11   27   11     -0.00      0.00
  -11   28   11      4.22      0.00
  -10   28   11     -5.09      0.00
   10   28   11      1.61      0.00
  -10   29   11      6.05      0.00
   -9   29   11     -2.95      0.00
    8   29   11      1.10      0.00
    9   29   11     -6.95      0.00
   -8   30   11      2.92      0.00
   -7   30   11     10.04      0.00
    7   30   11      3.90      0.00
    8   30   11      8.13      0.00
   -7   31   11      9.54      0.00
   -6   31   11      1.34      0.00
   -5   31   11     -0.95      0.00
    4   31   11      2.16      0.00
    5   31   11      4.65      0.00
    6   31   11      1.46      0.00
   -4   32   11     -1.38      0.00
   -3   32   11      2.44      0.00
   -2   32   11     -7.23      0.00
   -1   32   11     -1.46      0.00
    0   32   11      6.90      0.00
    1   32   11     -2.15      0.00
    2   32   11      3.01      0.00
    3   32   11      2.23      0.00
    4   32   11     -4.15      0.00
   20    0   12      1.83      0.00
   20    1   12      1.26      0.00
   20    2   12     -4.73      0.00
   20    3   12     -1.41      0.00
   20    4   12     -1.39      0.00
  -20    5   12      0.53      0.00
   20    5   12      6.41      0.00
  -20    6   12     -0.22      0.00
  -20    7   12      4.91      0.00
  -20    8   12      0.85      0.00
   19    8   12     -1.56      0.00
  -20    9   12      4.35      0.00
   19    9   12     -2.20      0.00
   19   10   12     12.79      0.00
  -19   11   12      3.02      0.00
  -19   12   12     -1.83      0.00
   18   12   12     -2.05      0.00
  -19   13   12     -1.06      0.00
   18   13   12     -0.09      0.00
   18   14   12      3.45      0.00
  -18   15   12     -2.55      0.00
  -18   16   12      4.96      0.00
   17   16   12     -4.49      0.00
  -17   17   12      4.18      0.00
   17   17   12     -0.31      0.00
  -17   18   12      6.65      0.00
   16   18   12     -0.79      0.00
  -16   19   12      3.00      0.00
   16   19   12     -8.48      0.00
  -16   20   12      2.36      0.00
   15   20   12      4.67      0.00
  -15   21   12     -1.57      0.00
   15   21   12     -8.18      0.00
  -15   22   12     -3.78      0.00
   14   22   12      3.06      0.00
  -14   23   12     -3.25      0.00
   13   23   12      1.19      0.00
  -13   24   12      4.53      0.00
   13   24   12     -0.57      0.00
  -13   25   12      4.59      0.00
  -12   25   12      2.43      0.00
   12   25   12     -1.06      0.00
  -12   26   12     -4.50      0.00
  -11   26   12      0.47      0.00
   11   26   12     -3.47      0.00
  -11   27   12     -4.84      0.00
  -10   27   12      0.09      0.00
   10   27   12      0.47      0.00
  -10   28   12      0.13      0.00
   -9   28   12     -3.40      0.00
    8   28   12      3.94      0.00
    9   28   12     -0.95      0.00
   -8   29   12     -0.42      0.00
   -7   29   12      3.91      0.00
    7   29   12      2.45      0.00
    8   29   12      2.30      0.00
   -7   30   12     -4.91      0.00
   -6   30   12      2.14      0.00
   -5   30   12     -2.70      0.00
    4   30   12      1.52      0.00
    5   30   12      0.31      0.00
    6   30   12     -3.89      0.00
   -4   31   12     -3.88      0.00
   -3   31   12     -9.26      0.00
   -2   31   12      1.94      0.00
   -1   31   12     -3.36      0.00
    0   31   12     -6.10      0.00
    1   31   12      7.52      0.00
    2   31   12      2.17      0.00
    3   31   12     -1.20      0.00
    4   31   12     -2.43      0.00
  -20    1   13     -2.77      0.00
   19    1   13      0.46      0.00
  -20    2   13     -2.21      0.00
   19    2   13      2.59      0.00
  -20    3   13     -2.50      0.00
   19    3   13     -5.06      0.00
  -20    4   13     -4.07      0.00
   19    4   13      2.18      0.00
   19    5   13      2.68      0.00
   19    6   13     -7.30      0.00
  -19    7   13      1.77      0.00
  -19    8   13      1.87      0.00
  -19    9   13      3.25      0.00
   18    9   13      0.93      0.00
  -19   10   13     -1.13      0.00
   18   10   13      1.73      0.00
   18   11   13     -4.49      0.00
  -18   12   13     -3.08      0.00
  -18   13   13     -1.40      0.00
   17   13   13      2.23      0.00
  -18   14   13      1.64      0.00
   17   14   13     -3.99      0.00
  -17   15   13      3.08      0.00
  -17   16   13     -3.91      0.00
   16   16   13     -2.29      0.00
   16   17   13      0.15      0.00
  -16   18   13      2.18      0.00
   15   18   13      1.46      0.00
   15   19   13     -1.04      0.00
  -15   20   13      1.46      0.00
   14   20   13     -2.50      0.00
  -14   21   13     -7.98      0.00
   14   21   13     -2.04      0.00
  -14   22   13     -0.50      0.00
   13   22   13      1.71      0.00
  -13   23   13      2.48      0.00
   12   23   13      0.14      0.00
  -12   24   13      1.24      0.00
   11   24   13     -2.52      0.00
  -11   25   13     -3.14      0.00
   10   25   13     -8.32      0.00
   11   25   13     -2.18      0.00
  -10   26   13     -7.35      0.00
    9   26   13      4.66      0.00
   10   26   13     -2.62      0.00
   -9   27   13     -7.43      0.00
    8   27   13     -7.38      0.00
   -8   28   13     -2.05      0.00
   -7   28   13     -5.02      0.00
    6   28   13     -2.22      0.00
    7   28   13      3.11      0.00
   -6   29   13     -7.13      0.00
   -5   29   13      1.13      0.00
   -4   29   13     -5.66      0.00
    4   29   13      3.86      0.00
    5   29   13      0.75      0.00
   -4   30   13     -0.67      0.00
   -3   30   13      1.51      0.00
   -2   30   13      0.56      0.00
   -1   30   13      1.29      0.00
    0   30   13     -4.01      0.00
    1   30   13      4.14      0.00
    2   30   13      1.08      0.00
    3   30   13      3.99      0.00
  -19    0   14     -5.41      0.00
   18    0   14     -0.32      0.00
  -19    1   14      1.84      0.00
   18    1   14     -0.90      0.00
  -19    2   14      3.41      0.00
   18    2   14      2.55      0.00
  -19    3   14      1.71      0.00
   18    3   14      4.73      0.00
  -19    4   14      5.19      0.00
   18    4   14     -4.46      0.00
  -19    5   14     -2.57      0.00
   18    5   14     -0.07      0.00
  -19    6   14     -2.95      0.00
   18    6   14     -1.60      0.00
   18    7   14     -5.21      0.00
  -18    8   14      4.04      0.00
  -18    9   14      4.23      0.00
   17    9   14      0.18      0.00
  -18   10   14     -1.94      0.00
   17   10   14     -1.40      0.00
  -18   11   14     -8.94      0.00
   17   11   14      5.92      0.00
  -17   12   14      4.12      0.00
  -17   13   14     -0.30      0.00
   16   13   14      0.57      0.00
  -17   14   14      2.13      0.00
   16   14   14      2.54      0.00
  -16   15   14     -0.38      0.00
  -16   16   14      2.21      0.00
   15   16   14      4.09      0.00
  -15   17   14     -0.50      0.00
   15   17   14     -1.89      0.00
  -15   18   14      0.26      0.00
   14   18   14     -0.34      0.00
  -14   19   14      5.09      0.00
   14   19   14      0.47      0.00
  -14   20   14      1.09      0.00
   13   20   14      2.40      0.00
  -13   21   14      3.74      0.00
   12   21   14     -3.89      0.00
  -13   22   14     -3.60      0.00
  -12   22   14      6.84      0.00
   12   22   14     -1.12      0.00
  -12   23   14      3.04      0.00
  -11   23   14     -6.73      0.00
   11   23   14      2.25      0.00
  -11   24   14      1.90      0.00
  -10   24   14      0.64      0.00
   10   24   14     -5.10      0.00
  -10   25   14     -0.45      0.00
   -9   25   14      2.82      0.00
    9   25   14     -1.34      0.00
   -9   26   14     -4.37      0.00
   -8   26   14     -2.92      0.00
    7   26   14     -3.87      0.00
    8   26   14      1.64      0.00
   -7   27   14      3.58      0.00
   -6   27   14     -0.42      0.00
    5   27   14     -3.12      0.00
    6   27   14      6.82      0.00
    7   27   14     -4.52      0.00
   -6   28   14     -1.51      0.00
   -5   28   14      0.14      0.00
   -4   28   14     -1.35      0.00
   -3   28   14     -3.45      0.00
    2   28   14     -3.38      0.00
    3   28   14      0.01      0.00
    4   28   14     -0.13      0.00
    5   28   14      6.10      0.00
   -3   29   14      2.91      0.00
   -2   29   14     -9.95      0.00
   -1   29   14     -6.13      0.00
    0   29   14     -4.68      0.00
    1   29   14     -1.28      0.00
    2   29   14     -7.79      0.00
  -18    1   15      0.48      0.00
   17    1   15      4.15      0.00
  -18    2   15     -0.85      0.00
   17    2   15     -0.42      0.00
  -18    3   15     -0.62      0.00
   17    3   15     -0.23      0.00
  -18    4   15     -0.91      0.00
   17    4   15     -2.48      0.00
  -18    5   15     -0.50      0.00
   17    5   15      3.82      0.00
  -18    6   15     -1.24      0.00
   17    6   15      1.00      0.00
   17    7   15      2.32      0.00
  -17    8   15      1.70      0.00
  -17    9   15     -5.69      0.00
   16    9   15     -0.87      0.00
  -17   10   15     -0.41      0.00
   16   10   15     -5.67      0.00
  -17   11   15      8.78      0.00
   16   11   15     -6.13      0.00
  -16   12   15     11.83      0.00
  -16   13   15     -1.67      0.00
   15   13   15     -0.46      0.00
  -16   14   15     -4.60      0.00
   15   14   15      1.96      0.00
  -15   15   15     -5.22      0.00
   14   15   15      5.23      0.00
  -15   16   15     -0.90      0.00
   14   16   15     -5.40      0.00
  -14   17   15     -4.28      0.00
   13   17   15     -9.14      0.00
  -14   18   15     -0.36      0.00
   13   18   15      2.39      0.00
  -13   19   15     -7.91      0.00
   12   19   15     -1.28      0.00
  -13   20   15      4.29      0.00
  -12   20   15     -3.37      0.00
   12   20   15      3.49      0.00
  -12   21   15      0.71      0.00
   11   21   15     -5.34      0.00
  -11   22   15      4.79      0.00
   10   22   15     -3.22      0.00
  -10   23   15      3.65      0.00
    9   23   15     -4.69      0.00
   -9   24   15     -3.96      0.00
    8   24   15     -0.04      0.00
   -8   25   15      1.37      0.00
   -7   25   15      3.79      0.00
    6   25   15      0.07      0.00
    7   25   15     -0.55      0.00
   -7   26   15      1.20      0.00
   -6   26   15     -6.40      0.00
   -5   26   15      6.25      0.00
    4   26   15    -10.76      0.00
    5   26   15      6.70      0.00
    6   26   15      2.10      0.00
   -5   27   15     -4.88      0.00
   -4   27   15     -2.40      0.00
   -3   27   15     -2.77      0.00
   -2   27   15     -1.62      0.00
   -1   27   15      3.79      0.00
    0   27   15      1.48      0.00
    1   27   15      0.39      0.00
    2   27   15     -2.52      0.00
    3   27   15     -4.33      0.00
    4   27   15     -4.58      0.00
  -17    0   16     -6.24      0.00
   16    0   16      4.62      0.00
  -17    1   16     -7.80      0.00
   16    1   16      0.54      0.00
  -17    2   16     -4.97      0.00
   16    2   16      1.35      0.00
  -17    3   16     -3.56      0.00
   16    3   16      5.15      0.00
  -17    4   16      0.90      0.00
   16    4   16      1.15      0.00
  -17    5   16      4.12      0.00
   16    5   16     -2.31      0.00
  -17    6   16     -1.49      0.00
   16    6   16      1.84      0.00
   16    7   16      7.16      0.00
  -16    8   16     -2.93      0.00
   15    8   16      4.59      0.00
  -16    9   16     -0.96      0.00
   15    9   16      3.27      0.00
  -16   10   16      1.36      0.00
   15   10   16     -6.43      0.00
   15   11   16     -4.23      0.00
  -15   12   16     -3.55      0.00
   14   12   16     -2.05      0.00
  -15   13   16     -0.34      0.00
   14   13   16     -3.09      0.00
  -14   14   16     -3.00      0.00
   13   14   16      2.72      0.00
  -14   15   16      1.24      0.00
   13   15   16      7.63      0.00
  -14   16   16      0.86      0.00
  -13   16   16      2.49      0.00
   13   16   16      0.14      0.00
  -13   17   16      1.94      0.00
   12   17   16      1.02      0.00
  -12   18   16      1.95      0.00
   11   18   16      4.26      0.00
  -12   19   16     -2.55      0.00
   11   19   16     -0.88      0.00
  -11   20   16      1.22      0.00
   10   20   16      1.21      0.00
  -10   21   16      4.31      0.00
    9   21   16      5.49      0.00
   -9   22   16     -1.92      0.00
    8   22   16     -3.40      0.00
   -8   23   16     -0.54      0.00
   -7   23   16      5.65      0.00
    6   23   16      2.01      0.00
    7   23   16     -2.31      0.00
   -7   24   16      0.26      0.00
   -6   24   16     -0.32      0.00
    5   24   16      1.22      0.00
    6   24   16     -5.08      0.00
   -5   25   16      0.03      0.00
   -4   25   16      7.23      0.00
   -3   25   16     -5.51      0.00
   -2   25   16     -3.54      0.00
   -1   25   16      6.66      0.00
    0   25   16     -2.30      0.00
    1   25   16     -4.96      0.00
    2   25   16      3.65      0.00
    3   25   16      5.03      0.00
    4   25   16      4.58      0.00
   -3   26   16      0.22      0.00
   -2   26   16     -0.55      0.00
   -1   26   16     -1.12      0.00
    0   26   16      1.31      0.00
    1   26   16     -2.68      0.00
    2   26   16     -0.87      0.00
  -16    1   17     -4.96      0.00
   15    1   17      2.79      0.00
  -16    2   17     10.09      0.00
   15    2   17     -1.58      0.00
  -16    3   17     -1.96      0.00
   15    3   17     -0.20      0.00
  -16    4   17     -8.10      0.00
   15    4   17      0.09      0.00
  -16    5   17      1.97      0.00
   15    5   17      0.10      0.00
  -15    6   17     -0.60      0.00
   14    6   17      7.73      0.00
  -15    7   17      2.45      0.00
   14    7   17     -5.36      0.00
  -15    8   17      3.42      0.00
   14    8   17      0.37      0.00
  -15    9   17     -0.43      0.00
   14    9   17      4.14      0.00
  -14   10   17      1.21      0.00
   14   10   17      3.81      0.00
  -14   11   17      6.34      0.00
   13   11   17     -4.73      0.00
  -14   12   17      1.25      0.00
   13   12   17     -2.86      0.00
  -13   13   17      2.16      0.00
   12   13   17      5.34      0.00
  -13   14   17      1.46      0.00
   12   14   17      1.07      0.00
  -13   15   17     -3.99      0.00
  -12   15   17     -1.97      0.00
   11   15   17     -6.14      0.00
   12   15   17     -1.29      0.00
  -12   16   17     -4.12      0.00
   11   16   17     -0.02      0.00
  -11   17   17     -3.21      0.00
   10   17   17     -0.42      0.00
  -11   18   17     -6.59      0.00
  -10   18   17      7.96      0.00
    9   18   17      3.59      0.00
   10   18   17      0.96      0.00
  -10   19   17      2.19      0.00
   -9   19   17     -5.34      0.00
    9   19   17     -1.12      0.00
   -9   20   17      4.02      0.00
   -8   20   17     -3.01      0.00
    7   20   17      1.81      0.00
    8   20   17      1.36      0.00
   -8   21   17      2.32      0.00
   -7   21   17      2.67      0.00
    6   21   17     -2.65      0.00
    7   21   17     -1.48      0.00
   -7   22   17      5.59      0.00
   -6   22   17     -5.91      0.00
   -5   22   17     -4.87      0.00
    5   22   17     -8.40      0.00
    6   22   17     -0.11      0.00
   -5   23   17     -1.79      0.00
   -4   23   17     -8.62      0.00
   -3   23   17      7.80      0.00
   -2   23   17      2.19      0.00
    1   23   17     -4.69      0.00
    2   23   17      2.20      0.00
    3   23   17      7.57      0.00
    4   23   17     -3.23      0.00
   -3   24   17     -1.38      0.00
   -2   24   17     -3.66      0.00
   -1   24   17     -4.03      0.00
    0   24   17      2.59      0.00
    1   24   17      5.49      0.00
    2   24   17     -8.24      0.00
  -15    0   18      2.88      0.00
   14    0   18     -4.17      0.00
  -15    1   18     -1.14      0.00
   13    1   18     -3.61      0.00
  -14    2   18     -5.21      0.00
   13    2   18     -7.16      0.00
  -14    3   18      0.27      0.00
   13    3   18     -3.02      0.00
  -14    4   18     -2.38      0.00
   13    4   18      3.45      0.00
  -14    5   18      5.17      0.00
   13    5   18      2.37      0.00
  -14    6   18     -6.68      0.00
   13    6   18     -0.26      0.00
  -14    7   18     -1.79      0.00
   13    7   18      4.23      0.00
  -14    8   18      7.01      0.00
   12    8   18     -3.11      0.00
   13    8   18      1.87      0.00
  -13    9   18      0.37      0.00
   12    9   18     -2.94      0.00
  -13   10   18      0.69      0.00
   12   10   18     -3.12      0.00
  -13   11   18     -2.21      0.00
   11   11   18     -5.27      0.00
   12   11   18      1.04      0.00
  -12   12   18     -2.31      0.00
   11   12   18      2.64      0.00
  -12   13   18      1.17      0.00
   11   13   18     -0.57      0.00
  -11   14   18     -8.06      0.00
   10   14   18      1.03      0.00
  -11   15   18     -2.27      0.00
  -10   15   18      5.02      0.00
    9   15   18     -0.49      0.00
   10   15   18     -0.16      0.00
  -10   16   18     -6.66      0.00
    9   16   18      2.83      0.00
   -9   17   18      2.58      0.00
    8   17   18      5.61      0.00
   -9   18   18      0.20      0.00
   -8   18   18     -0.48      0.00
    7   18   18     -4.60      0.00
    8   18   18      1.15      0.00
   -8   19   18      1.85      0.00
   -7   19   18      0.29      0.00
    6   19   18    -11.51      0.00
    7   19   18     -6.51      0.00
   -7   20   18      3.67      0.00
   -6   20   18      5.35      0.00
   -5   20   18     -3.70      0.00
    4   20   18     -7.63      0.00
    5   20   18      5.59      0.00
   -5   21   18      2.68      0.00
   -4   21   18     -0.50      0.00
   -3   21   18      0.05      0.00
   -2   21   18     -0.67      0.00
   -1   21   18     -1.59      0.00
    0   21   18      6.12      0.00
    1   21   18     13.67      0.00
    2   21   18      3.86      0.00
    3   21   18     -4.66      0.00
    4   21   18     -3.03      0.00
   -3   22   18     -1.25      0.00
   -2   22   18      0.32      0.00
   -1   22   18     -1.69      0.00
    0   22   18      5.43      0.00
    1   22   18      6.10      0.00
    2   22   18     -3.00      0.00
  -13    1   19      2.26      0.00
   12    1   19     -0.70      0.00
  -13    2   19     -7.50      0.00
   12    2   19      1.32      0.00
  -13    3   19     -2.77      0.00
   12    3   19     -0.17      0.00
  -13    4   19      0.98      0.00
   11    4   19     -4.02      0.00
   12    4   19      1.01      0.00
  -13    5   19      2.54      0.00
  -12    5   19     -0.74      0.00
   11    5   19     -0.68      0.00
  -12    6   19     -5.98      0.00
   11    6   19     -4.62      0.00
  -12    7   19      4.25      0.00
   11    7   19     -1.52      0.00
  -12    8   19      5.77      0.00
   11    8   19     -1.17      0.00
  -12    9   19      4.46      0.00
  -11    9   19      3.15      0.00
   10    9   19     -4.29      0.00
  -11   10   19      5.99      0.00
   10   10   19      0.87      0.00
  -11   11   19     -0.27      0.00
  -10   11   19      1.87      0.00
    9   11   19      2.35      0.00
   10   11   19      4.69      0.00
  -10   12   19     -8.54      0.00
    9   12   19      3.07      0.00
  -10   13   19     -9.96      0.00
   -9   13   19     -2.25      0.00
    8   13   19      2.48      0.00
    9   13   19     -2.71      0.00
   -9   14   19      6.57      0.00
    7   14   19     -2.81      0.00
    8   14   19     -1.81      0.00
   -9   15   19     -1.05      0.00
   -8   15   19     -1.55      0.00
    7   15   19      2.28      0.00
   -8   16   19      1.12      0.00
   -7   16   19     -3.93      0.00
    6   16   19      0.73      0.00
    7   16   19      1.90      0.00
   -7   17   19     -1.67      0.00
   -6   17   19     -3.20      0.00
   -5   17   19     13.15      0.00
    4   17   19      6.05      0.00
    5   17   19     -4.57      0.00
    6   17   19    -10.32      0.00
   -6   18   19     -3.72      0.00
   -5   18   19     -0.16      0.00
   -4   18   19     -3.48      0.00
   -3   18   19     -3.20      0.00
    1   18   19     -1.65      0.00
    2   18   19      1.34      0.00
    3   18   19      7.85      0.00
    4   18   19      5.14      0.00
   -4   19   19     -1.98      0.00
   -3   19   19     -2.79      0.00
   -2   19   19      8.26      0.00
   -1   19   19      0.73      0.00
    0   19   19     -0.57      0.00
    1   19   19      0.29      0.00
    2   19   19     -7.01      0.00
    3   19   19      0.67      0.00
  -11    0   20     -4.61      0.00
   -3    0   20    -13.66      0.00
   10    0   20     -0.12      0.00
  -11    1   20     -4.48      0.00
   -3    1   20    -18.96      0.00
   10    1   20      2.97      0.00
  -11    2   20      1.25      0.00
   -3    2   20      2.10      0.00
    9    2   20     -7.41      0.00
   10    2   20      1.93      0.00
  -11    3   20      5.02      0.00
    9    3   20      6.27      0.00
   10    3   20      2.54      0.00
  -11    4   20     -5.05      0.00
  -10    4   20      0.56      0.00
    9    4   20     -1.16      0.00
   10    4   20     -0.14      0.00
  -11    5   20     -0.98      0.00
  -10    5   20     -5.52      0.00
    9    5   20     -4.09      0.00
  -10    6   20      0.93      0.00
    9    6   20      4.36      0.00
  -10    7   20     -2.09      0.00
    8    7   20     -3.26      0.00
    9    7   20     -1.56      0.00
  -10    8   20     -3.03      0.00
   -9    8   20      3.51      0.00
    8    8   20      1.43      0.00
    9    8   20     -3.61      0.00
   -9    9   20      1.92      0.00
    8    9   20      8.80      0.00
   -9   10   20     -0.56      0.00
   -8   10   20     -2.37      0.00
    7   10   20      2.72      0.00
    8   10   20     -4.00      0.00
   -8   11   20     -5.79      0.00
    6   11   20     -4.45      0.00
    7   11   20     -2.68      0.00
   -8   12   20      1.04      0.00
   -7   12   20      1.83      0.00
    6   12   20      4.34      0.00
    7   12   20     -0.25      0.00
   -7   13   20     -1.36      0.00
   -6   13   20      3.73      0.00
    5   13   20      4.22      0.00
    6   13   20      1.05      0.00
   -6   14   20     -3.76      0.00
   -5   14   20     -2.67      0.00
   -4   14   20      4.19      0.00
    3   14   20     -2.38      0.00
    4   14   20     -3.93      0.00
    5   14   20      0.96      0.00
   -5   15   20     -1.48      0.00
   -4   15   20      6.24      0.00
   -3   15   20      3.29      0.00
   -2   15   20     -2.27      0.00
   -1   15   20      1.16      0.00
    0   15   20      2.16      0.00
    1   15   20     -5.55      0.00
    2   15   20      0.75      0.00
    3   15   20      3.91      0.00
    4   15   20     -6.07      0.00
   -4   16   20      3.51      0.00
   -3   16   20     -1.73      0.00
   -2   16   20      6.21      0.00
   -1   16   20      3.27      0.00
    0   16   20     -0.77      0.00
    1   16   20     14.36      0.00
    2   16   20     -0.86      0.00
    3   16   20      7.48      0.00
   -9    1   21      0.93      0.00
   -8    1   21     -4.49      0.00
   -4    1   21     -9.20      0.00
    7    1   21      1.87      0.00
   -9    2   21     -0.27      0.00
   -8    2   21     -5.12      0.00
   -4    2   21      2.49      0.00
    6    2   21     -8.94      0.00
    7    2   21     -6.54      0.00
   -8    3   21      7.33      0.00
   -7    3   21      3.19      0.00
    6    3   21     -3.88      0.00
    7    3   21      2.48      0.00
   -8    4   21      4.86      0.00
   -7    4   21     -0.93      0.00
    6    4   21      5.08      0.00
    7    4   21      2.07      0.00
   -8    5   21     -6.77      0.00
   -7    5   21     -1.58      0.00
    6    5   21      3.77      0.00
    7    5   21     -0.88      0.00
   -8    6   21      3.70      0.00
   -7    6   21     -4.00      0.00
   -6    6   21      0.25      0.00
    5    6   21      1.46      0.00
    6    6   21     -7.17      0.00
   -7    7   21     -1.64      0.00
   -6    7   21      2.28      0.00
    5    7   21      3.52      0.00
    6    7   21     -7.52      0.00
   -7    8   21     -8.65      0.00
   -6    8   21     -8.04      0.00
   -5    8   21     -6.78      0.00
    4    8   21      3.71      0.00
    5    8   21      5.44      0.00
    6    8   21     -3.69      0.00
   -6    9   21      4.54      0.00
   -5    9   21     -0.42      0.00
   -4    9   21      2.86      0.00
    3    9   21      2.11      0.00
    4    9   21     -3.61      0.00
    5    9   21     -1.98      0.00
   -6   10   21      0.95      0.00
   -5   10   21      8.61      0.00
   -4   10   21      4.46      0.00
   -3   10   21     -0.23      0.00
   -2   10   21     -5.98      0.00
    1   10   21     -0.22      0.00
    2   10   21     -7.07      0.00
    3   10   21      0.07      0.00
    4   10   21      3.12      0.00
   -5   11   21      4.24      0.00
   -4   11   21     -1.02      0.00
   -3   11   21      3.27      0.00
   -2   11   21     -2.44      0.00
   -1   11   21     -0.15      0.00
    0   11   21     -4.24      0.00
    1   11   21     -5.52      0.00
    2   11   21     -2.44      0.00
    3   11   21     -3.68      0.00
    4   11   21     -0.91      0.00
   -4   12   21      0.77      0.00
   -3   12   21     -7.11      0.00
   -2   12   21      6.43      0.00
   -1   12   21     -5.98      0.00
    0   12   21      9.10      0.00
    1   12   21      6.75      0.00
    2   12   21     -5.32      0.00
   -1   13   21     -2.38      0.00
    0   13   21     -6.39      0.00
    0    0    0      0.00      0.00
loop_
  _platon_squeeze_void_nr
  _platon_squeeze_void_average_x
  _platon_squeeze_void_average_y
  _platon_squeeze_void_average_z
  _platon_squeeze_void_volume
  _platon_squeeze_void_count_electrons
  _platon_squeeze_void_content
   1 -0.003 -0.002 -0.005     18479      3882 ' '
_platon_squeeze_details
(replace by semicolon in column 1 when used as .sqf)
TITL samzn     P 21/c       R = 0.32
CELL   29.3070   45.1100   26.8960     90.00     91.52     90.00
SPGR P21/c
C101 0.171 0.379 0.164 !       3.71 eA-3
C102 0.272 0.800 0.978 !       3.46 eA-3
C103 0.493 0.125 0.151 !       3.41 eA-3
C104 0.431 0.094 0.654 !       3.36 eA-3
C105 0.832 0.642 0.822 !       3.27 eA-3
C106 0.618 0.536 0.745 !       3.24 eA-3
C107 0.381 0.152 0.361 !       3.05 eA-3
C108 0.589 0.956 0.401 !       2.93 eA-3
C109 0.823 0.680 0.821 !       2.91 eA-3
C110 0.580 0.923 0.358 !       2.84 eA-3
C111 0.501 0.815 0.089 !       2.84 eA-3
C112 0.069 0.629 0.493 !       2.78 eA-3
C113 0.340 0.618 0.924 !       2.77 eA-3
C114 0.626 0.437 0.760 !       2.77 eA-3
C115 0.509 0.795 0.569 !       2.71 eA-3
C116 0.247 0.068 0.156 !       2.71 eA-3
C117 0.844 0.241 0.234 !       2.68 eA-3
C118 0.641 0.848 0.094 !       2.68 eA-3
C119 0.140 0.476 0.026 !       2.66 eA-3
C120 0.383 0.328 0.141 !       2.56 eA-3
C121 0.769 0.316 0.516 !       2.55 eA-3
C122 0.840 0.800 0.487 !       2.54 eA-3
C123 0.360 0.779 0.430 !       2.53 eA-3
C124 0.038 0.377 0.203 !       2.51 eA-3
C125 0.741 0.966 0.382 !       2.49 eA-3
C126 0.773 0.877 0.059 !       2.49 eA-3
C127 0.816 0.950 0.373 !       2.48 eA-3
Q128 0.943 0.645 0.330 !       2.46 eA-3
C129 0.599 0.090 0.414 !       2.46 eA-3
C130 0.366 0.295 0.025 !       2.46 eA-3
C131 0.505 0.676 0.571 !       2.42 eA-3
C132 0.514 0.828 0.045 !       2.39 eA-3
C133 0.361 0.481 0.241 !       2.39 eA-3
C134 0.359 0.061 0.375 !       2.35 eA-3
C135 0.384 0.716 0.928 !       2.33 eA-3
C136 0.369 0.030 0.748 !       2.32 eA-3
C137 0.498 0.200 0.416 !       2.29 eA-3
C138 0.021 0.216 0.169 !       2.25 eA-3
Q139 0.933 0.848 0.820 !       2.23 eA-3
C140 0.310 0.179 0.672 !       2.23 eA-3
C141 0.478 0.632 0.331 !       2.21 eA-3
C142 0.237 0.462 0.890 !       2.21 eA-3
C143 0.385 0.629 0.725 !       2.19 eA-3
C144 0.839 0.804 0.579 !       2.19 eA-3
C145 0.940 0.160 0.514 !       2.18 eA-3
C146 0.066 0.664 0.968 !       2.18 eA-3
C147 0.356 0.432 0.876 !       2.17 eA-3
C148 0.388 0.444 0.978 !       2.17 eA-3
C149 0.872 0.234 0.281 !       2.11 eA-3
C150 0.875 0.283 0.776 !       2.11 eA-3
C151 0.672 0.989 0.249 !       2.11 eA-3
C152 0.975 0.788 0.875 !       2.11 eA-3
C153 0.784 0.927 0.813 !       2.11 eA-3
C154 0.121 0.478 0.943 !       2.10 eA-3
C155 0.311 0.493 0.250 !       2.09 eA-3
C156 0.623 0.950 0.536 !       2.07 eA-3
C157 0.725 0.805 0.479 !       2.07 eA-3
C158 0.389 0.095 0.892 !       2.07 eA-3
C159 0.224 0.133 0.947 !       2.05 eA-3
C160 0.288 0.934 0.915 !       2.04 eA-3
C161 0.252 0.952 0.219 !       2.02 eA-3
C162 0.141 0.856 0.209 !       2.00 eA-3
C163 0.628 0.567 0.086 !       1.99 eA-3
C164 0.666 0.681 0.841 !       1.99 eA-3
C165 0.395 0.648 0.656 !       1.98 eA-3
C166 0.344 0.412 0.397 !       1.98 eA-3
C167 0.446 0.852 0.847 !       1.98 eA-3
C168 0.029 0.199 0.078 !       1.96 eA-3
C169 0.112 0.723 0.306 !       1.96 eA-3
C170 0.884 0.522 0.086 !       1.93 eA-3
C171 0.725 0.067 0.991 !       1.93 eA-3
C172 0.107 0.034 0.430 !       1.92 eA-3
C173 0.618 0.307 0.050 !       1.92 eA-3
C174 0.862 0.532 0.008 !       1.91 eA-3
C175 0.764 0.443 0.266 !       1.91 eA-3
C176 0.846 0.288 0.735 !       1.90 eA-3
C177 0.170 0.377 0.432 !       1.89 eA-3
C178 0.743 0.960 0.579 !       1.89 eA-3
C179 0.746 0.298 0.579 !       1.88 eA-3
C180 0.926 0.787 0.446 !       1.87 eA-3
C181 0.305 0.307 0.025 !       1.87 eA-3
C182 0.041 0.214 0.576 !       1.86 eA-3
C183 0.180 0.291 0.923 !       1.86 eA-3
C184 0.705 0.106 0.594 !       1.86 eA-3
C185 0.935 0.658 0.282 !       1.85 eA-3
C186 0.932 0.836 0.773 !       1.85 eA-3
C187 0.968 0.360 0.467 !       1.85 eA-3
C188 0.082 0.938 0.302 !       1.83 eA-3
C189 0.319 0.932 0.755 !       1.83 eA-3
C190 0.062 0.578 0.853 !       1.83 eA-3
C191 0.648 0.779 0.603 !       1.82 eA-3
C192 0.051 0.167 0.679 !       1.82 eA-3
C193 0.642 0.067 0.250 !       1.81 eA-3
C194 0.286 0.817 0.022 !       1.79 eA-3
C195 0.350 0.876 0.274 !       1.78 eA-3
C196 0.847 0.179 0.236 !       1.78 eA-3
C197 0.123 0.587 0.844 !       1.77 eA-3
C198 0.950 0.014 0.915 !       1.76 eA-3
C199 0.024 0.614 0.487 !       1.76 eA-3
(replace by semicolon in column 1 when used as .sqf)
;
_shelx_fab_checksum              26520
loop_
_space_group_symop_operation_xyz
'x, y, z'
'-x, y+1/2, -z+1/2'
'-x, -y, -z'
'x, -y-1/2, z-1/2'
loop_
_atom_site_label
_atom_site_type_symbol
_atom_site_fract_x
_atom_site_fract_y
_atom_site_fract_z
_atom_site_U_iso_or_equiv
_atom_site_adp_type
_atom_site_occupancy
_atom_site_site_symmetry_order
_atom_site_calc_flag
_atom_site_refinement_flags_posn
_atom_site_refinement_flags_adp
Zn1 Zn 0.56449(11) 0.27006(7) 0.77165(12) 0.0990(12) Uani 1 1 d . .
Zn2 Zn -0.03443(11) 0.30288(8) 0.32742(12) 0.1045(12) Uani 1 1 d . .
Zn3 Zn 0.45735(13) -0.01366(7) 0.17210(11) 0.1066(13) Uani 1 1 d . .
Zn4 Zn 0.05361(15) -0.04970(8) 0.80419(12) 0.1271(15) Uani 1 1 d . .
N1_10 N 0.1288(6) -0.0455(4) 0.7955(6) 0.110(5) Uani 1 1 d D U
C2_10 C 0.1578(6) -0.0449(4) 0.7541(6) 0.118(6) Uani 1 1 d D U
C3_10 C 0.1623(7) -0.0710(4) 0.7270(7) 0.124(6) Uani 1 1 d D U
H3_10 H 0.1504 -0.0891 0.7390 0.149 Uiso 1 1 calc R U
C4_10 C 0.1844(7) -0.0701(4) 0.6823(7) 0.127(6) Uani 1 1 d D U
H4_10 H 0.1873 -0.0875 0.6629 0.153 Uiso 1 1 calc R U
C5_10 C 0.2026(6) -0.0433(4) 0.6659(6) 0.124(6) Uani 1 1 d D U
C6_10 C 0.2010(7) -0.0179(4) 0.6949(6) 0.124(6) Uani 1 1 d D U
H6_10 H 0.2155 -0.0002 0.6844 0.149 Uiso 1 1 calc R U
C7_10 C 0.1782(7) -0.0185(4) 0.7395(7) 0.128(6) Uani 1 1 d D U
H7_10 H 0.1764 -0.0012 0.7596 0.154 Uiso 1 1 calc R U
N8_10 N 0.2205(5) -0.0422(3) 0.6163(5) 0.122(5) Uani 1 1 d D U
C9_10 C 0.1896(6) -0.0458(4) 0.5759(5) 0.126(6) Uani 1 1 d D U
C10_10 C 0.2079(6) -0.0438(4) 0.5254(6) 0.120(5) Uani 1 1 d D U
C11_10 C 0.1800(7) -0.0475(5) 0.4839(6) 0.130(6) Uani 1 1 d D U
H11_10 H 0.1486 -0.0522 0.4875 0.156 Uiso 1 1 calc R U
C12_10 C 0.1978(7) -0.0444(5) 0.4368(7) 0.136(6) Uani 1 1 d D U
H12_10 H 0.1782 -0.0465 0.4083 0.163 Uiso 1 1 calc R U
C13_10 C 0.2435(6) -0.0383(4) 0.4311(5) 0.126(6) Uani 1 1 d D U
C14_10 C 0.2620(6) -0.0355(4) 0.3807(6) 0.129(6) Uani 1 1 d D U
N15_10 N 0.3078(5) -0.0274(3) 0.3770(5) 0.118(5) Uani 1 1 d D U
C16_10 C 0.3376(6) -0.0221(4) 0.4174(5) 0.111(6) Uani 1 1 d D U
C17_10 C 0.3191(6) -0.0264(3) 0.4675(5) 0.110(5) Uani 1 1 d D U
C18_10 C 0.3471(7) -0.0231(4) 0.5089(6) 0.112(6) Uani 1 1 d D U
H18_10 H 0.3782 -0.0179 0.5051 0.135 Uiso 1 1 calc R U
C19_10 C 0.3303(6) -0.0273(4) 0.5562(6) 0.110(6) Uani 1 1 d D U
H19_10 H 0.3504 -0.0254 0.5843 0.132 Uiso 1 1 calc R U
C20_10 C 0.2852(6) -0.0341(3) 0.5628(5) 0.112(5) Uani 1 1 d D U
C21_10 C 0.2678(6) -0.0369(4) 0.6136(5) 0.119(6) Uani 1 1 d D U
C22_10 C 0.2552(6) -0.0376(3) 0.5209(6) 0.111(5) Uani 1 1 d D U
C23_10 C 0.2729(6) -0.0342(3) 0.4731(6) 0.113(5) Uani 1 1 d D U
O24_10 O 0.1493(6) -0.0503(5) 0.5825(6) 0.154(7) Uani 1 1 d D U
O25_10 O 0.2401(6) -0.0406(5) 0.3424(6) 0.178(8) Uani 1 1 d D U
O26_10 O 0.3762(5) -0.0132(4) 0.4099(5) 0.121(5) Uani 1 1 d D U
O27_10 O 0.2904(5) -0.0346(3) 0.6518(5) 0.116(5) Uani 1 1 d D U
C28_10 C 0.3257(6) -0.0239(4) 0.3282(5) 0.116(5) Uani 1 1 d D U
C29_10 C 0.3480(7) -0.0475(4) 0.3067(6) 0.118(6) Uani 1 1 d D U
H29_10 H 0.3505 -0.0660 0.3234 0.142 Uiso 1 1 calc R U
C30_10 C 0.3666(7) -0.0435(4) 0.2605(6) 0.121(6) Uani 1 1 d D U
H30_10 H 0.3824 -0.0593 0.2451 0.146 Uiso 1 1 calc R U
C31_10 C 0.3618(6) -0.0162(4) 0.2366(6) 0.116(6) Uani 1 1 d D U
C32_10 C 0.3394(7) 0.0075(4) 0.2584(6) 0.125(6) Uani 1 1 d D U
H32_10 H 0.3364 0.0260 0.2416 0.150 Uiso 1 1 calc R U
C33_10 C 0.3216(7) 0.0035(4) 0.3051(6) 0.127(6) Uani 1 1 d D U
H33_10 H 0.3067 0.0194 0.3212 0.152 Uiso 1 1 calc R U
N34_10 N 0.3818(6) -0.0126(4) 0.1897(6) 0.108(5) Uani 1 1 d D U
C1A_10 C 0.1457(8) -0.0425(5) 0.8383(7) 0.144(7) Uani 1 1 d D U
H1A_10 H 0.1778 -0.0400 0.8423 0.172 Uiso 1 1 calc R U
C34A_10 C 0.3573(8) -0.0069(5) 0.1509(6) 0.138(7) Uani 1 1 d D U
H34A_10 H 0.3252 -0.0046 0.1533 0.166 Uiso 1 1 calc R U
C1B_10 C 0.1174(8) -0.0428(5) 0.8827(7) 0.168(7) Uani 1 1 d D U
C34B_10 C 0.3790(7) -0.0040(4) 0.1022(6) 0.151(7) Uani 1 1 d D U
N1C_10 N 0.0719(8) -0.0455(5) 0.8768(7) 0.169(7) Uani 1 1 d D U
N34C_10 N 0.4244(7) -0.0085(5) 0.1004(7) 0.150(7) Uani 1 1 d D U
C1D_10 C 0.0469(9) -0.0453(6) 0.9178(9) 0.194(9) Uani 1 1 d D U
H1D_10 H 0.0146 -0.0465 0.9143 0.233 Uiso 1 1 calc R U
C34D_10 C 0.4454(8) -0.0053(6) 0.0567(7) 0.160(8) Uani 1 1 d D U
H34D_10 H 0.4773 -0.0089 0.0553 0.191 Uiso 1 1 calc R U
C1E_10 C 0.0664(11) -0.0432(7) 0.9655(9) 0.211(9) Uani 1 1 d D U
H1E_10 H 0.0480 -0.0434 0.9941 0.253 Uiso 1 1 calc R U
C34E_10 C 0.4215(9) 0.0031(6) 0.0137(8) 0.172(8) Uani 1 1 d D U
H34E_10 H 0.4368 0.0058 -0.0166 0.207 Uiso 1 1 calc R U
C1F_10 C 0.1129(11) -0.0408(7) 0.9697(9) 0.214(9) Uani 1 1 d D U
H1F_10 H 0.1269 -0.0395 1.0019 0.257 Uiso 1 1 calc R U
C34F_10 C 0.3752(9) 0.0075(6) 0.0159(8) 0.174(8) Uani 1 1 d D U
H34F_10 H 0.3582 0.0132 -0.0132 0.209 Uiso 1 1 calc R U
C1G_10 C 0.1398(9) -0.0402(7) 0.9287(8) 0.197(9) Uani 1 1 d D U
H1G_10 H 0.1721 -0.0382 0.9316 0.236 Uiso 1 1 calc R U
C34G_10 C 0.3533(8) 0.0035(6) 0.0601(7) 0.165(8) Uani 1 1 d D U
H34G_10 H 0.3211 0.0058 0.0617 0.198 Uiso 1 1 calc R U
N1_11 N 0.5492(5) 0.2700(3) 0.6915(6) 0.093(5) Uani 1 1 d D U
C2_11 C 0.5062(5) 0.2692(4) 0.6655(6) 0.092(5) Uani 1 1 d D U
C3_11 C 0.4926(6) 0.2443(4) 0.6387(7) 0.101(6) Uani 1 1 d D U
H3_11 H 0.5125 0.2277 0.6375 0.121 Uiso 1 1 calc R U
C4_11 C 0.4507(6) 0.2431(4) 0.6138(7) 0.099(6) Uani 1 1 d D U
H4_11 H 0.4419 0.2260 0.5952 0.119 Uiso 1 1 calc R U
C5_11 C 0.4220(5) 0.2673(4) 0.6165(6) 0.094(5) Uani 1 1 d D U
C6_11 C 0.4347(6) 0.2924(4) 0.6444(6) 0.093(5) Uani 1 1 d D U
H6_11 H 0.4142 0.3086 0.6471 0.112 Uiso 1 1 calc R U
C7_11 C 0.4773(6) 0.2934(4) 0.6680(6) 0.090(5) Uani 1 1 d D U
H7_11 H 0.4866 0.3106 0.6858 0.108 Uiso 1 1 calc R U
N8_11 N 0.3779(4) 0.2658(3) 0.5916(5) 0.087(4) Uani 1 1 d D U
C9_11 C 0.3733(5) 0.2764(3) 0.5428(5) 0.094(5) Uani 1 1 d D U
C10_11 C 0.3258(5) 0.2783(3) 0.5229(5) 0.088(5) Uani 1 1 d D U
C11_11 C 0.3177(6) 0.2895(4) 0.4756(6) 0.095(5) Uani 1 1 d D U
H11_11 H 0.3424 0.2948 0.4552 0.114 Uiso 1 1 calc R U
C12_11 C 0.2732(5) 0.2927(4) 0.4585(6) 0.096(5) Uani 1 1 d D U
H12_11 H 0.2677 0.3011 0.4265 0.115 Uiso 1 1 calc R U
C13_11 C 0.2366(5) 0.2842(3) 0.4860(5) 0.085(5) Uani 1 1 d D U
C14_11 C 0.1895(5) 0.2877(3) 0.4663(6) 0.091(5) Uani 1 1 d D U
N15_11 N 0.1545(4) 0.2782(3) 0.4967(5) 0.090(4) Uani 1 1 d D U
C16_11 C 0.1596(5) 0.2665(3) 0.5446(5) 0.089(5) Uani 1 1 d D U
C17_11 C 0.2070(5) 0.2630(3) 0.5636(5) 0.087(5) Uani 1 1 d D U
C18_11 C 0.2158(6) 0.2508(4) 0.6096(6) 0.092(5) Uani 1 1 d D U
H18_11 H 0.1910 0.2445 0.6291 0.111 Uiso 1 1 calc R U
C19_11 C 0.2599(5) 0.2475(4) 0.6284(6) 0.090(5) Uani 1 1 d D U
H19_11 H 0.2655 0.2387 0.6601 0.108 Uiso 1 1 calc R U
C20_11 C 0.2956(5) 0.2571(3) 0.6003(5) 0.086(5) Uani 1 1 d D U
C21_11 C 0.3426(5) 0.2552(3) 0.6210(6) 0.091(5) Uani 1 1 d D U
C22_11 C 0.2890(5) 0.2691(3) 0.5522(5) 0.080(4) Uani 1 1 d D U
C23_11 C 0.2436(5) 0.2721(3) 0.5339(5) 0.086(5) Uani 1 1 d D U
O24_11 O 0.4063(5) 0.2836(4) 0.5199(6) 0.130(6) Uani 1 1 d D U
O25_11 O 0.1808(5) 0.2987(3) 0.4251(5) 0.104(5) Uani 1 1 d D U
O26_11 O 0.1266(5) 0.2611(3) 0.5684(5) 0.099(4) Uani 1 1 d D U
O27_11 O 0.3520(5) 0.2445(3) 0.6618(5) 0.102(5) Uani 1 1 d D U
C28_11 C 0.1085(5) 0.2815(4) 0.4766(6) 0.100(5) Uani 1 1 d D U
C29_11 C 0.0913(6) 0.3097(4) 0.4690(7) 0.102(6) Uani 1 1 d D U
H29_11 H 0.1087 0.3267 0.4786 0.122 Uiso 1 1 calc R U
C30_11 C 0.0483(6) 0.3127(4) 0.4472(7) 0.102(6) Uani 1 1 d D U
H30_11 H 0.0365 0.3321 0.4416 0.122 Uiso 1 1 calc R U
C31_11 C 0.0217(5) 0.2886(4) 0.4333(6) 0.097(5) Uani 1 1 d D U
C32_11 C 0.0396(6) 0.2607(4) 0.4430(7) 0.103(6) Uani 1 1 d D U
H32_11 H 0.0217 0.2437 0.4346 0.124 Uiso 1 1 calc R U
C33_11 C 0.0826(6) 0.2567(4) 0.4643(7) 0.105(6) Uani 1 1 d D U
H33_11 H 0.0942 0.2374 0.4705 0.126 Uiso 1 1 calc R U
N34_11 N -0.0209(5) 0.2929(4) 0.4085(6) 0.102(5) Uani 1 1 d D U
C1A_11 C 0.5862(6) 0.2725(4) 0.6679(8) 0.102(6) Uani 1 1 d D U
H1A_11 H 0.5843 0.2740 0.6327 0.123 Uiso 1 1 calc R U
C34A_11 C -0.0584(6) 0.2917(5) 0.4292(8) 0.115(6) Uani 1 1 d D U
H34A_11 H -0.0584 0.2884 0.4641 0.138 Uiso 1 1 calc R U
C1B_11 C 0.6315(6) 0.2731(4) 0.6925(7) 0.110(5) Uani 1 1 d D U
C34B_11 C -0.1027(5) 0.2952(4) 0.4029(7) 0.125(6) Uani 1 1 d D U
N1C_11 N 0.6327(6) 0.2718(3) 0.7427(6) 0.092(5) Uani 1 1 d D U
N34C_11 N -0.1031(5) 0.2999(4) 0.3535(6) 0.110(5) Uani 1 1 d D U
C1D_11 C 0.6733(6) 0.2745(5) 0.7660(8) 0.126(6) Uani 1 1 d D U
H1D_11 H 0.6753 0.2742 0.8013 0.151 Uiso 1 1 calc R U
C34D_11 C -0.1416(6) 0.3026(5) 0.3267(8) 0.137(7) Uani 1 1 d D U
H34D_11 H -0.1407 0.3059 0.2919 0.164 Uiso 1 1 calc R U
C1E_11 C 0.7124(7) 0.2777(5) 0.7389(9) 0.144(7) Uani 1 1 d D U
H1E_11 H 0.7409 0.2796 0.7563 0.173 Uiso 1 1 calc R U
C34E_11 C -0.1831(7) 0.3005(6) 0.3501(9) 0.146(7) Uani 1 1 d D U
H34E_11 H -0.2110 0.3019 0.3314 0.175 Uiso 1 1 calc R U
C1F_11 C 0.7114(7) 0.2782(5) 0.6876(9) 0.147(7) Uani 1 1 d D U
H1F_11 H 0.7388 0.2798 0.6697 0.177 Uiso 1 1 calc R U
C34F_11 C -0.1832(7) 0.2964(6) 0.4007(9) 0.152(7) Uani 1 1 d D U
H34F_11 H -0.2115 0.2954 0.4170 0.182 Uiso 1 1 calc R U
C1G_11 C 0.6696(7) 0.2762(5) 0.6627(8) 0.135(7) Uani 1 1 d D U
H1G_11 H 0.6670 0.2769 0.6275 0.161 Uiso 1 1 calc R U
C34G_11 C -0.1431(6) 0.2936(6) 0.4283(8) 0.146(7) Uani 1 1 d D U
H34G_11 H -0.1433 0.2906 0.4633 0.175 Uiso 1 1 calc R U
N1_12 N 0.0411(7) -0.0028(4) 0.7991(7) 0.125(6) Uani 1 1 d D U
C2_12 C 0.0743(6) 0.0195(4) 0.7918(7) 0.126(6) Uani 1 1 d D U
C3_12 C 0.1010(7) 0.0284(4) 0.8327(7) 0.129(6) Uani 1 1 d D U
H3_12 H 0.0959 0.0199 0.8643 0.155 Uiso 1 1 calc R U
C4_12 C 0.1348(7) 0.0495(4) 0.8278(7) 0.125(6) Uani 1 1 d D U
H4_12 H 0.1533 0.0552 0.8558 0.150 Uiso 1 1 calc R U
C5_12 C 0.1413(5) 0.0624(3) 0.7817(7) 0.111(5) Uani 1 1 d D U
C6_12 C 0.1141(6) 0.0541(4) 0.7413(7) 0.117(6) Uani 1 1 d D U
H6_12 H 0.1183 0.0634 0.7101 0.141 Uiso 1 1 calc R U
C7_12 C 0.0808(6) 0.0326(4) 0.7456(7) 0.118(6) Uani 1 1 d D U
H7_12 H 0.0627 0.0268 0.7175 0.142 Uiso 1 1 calc R U
N8_12 N 0.1772(5) 0.0841(3) 0.7779(5) 0.104(4) Uani 1 1 d D U
C9_12 C 0.1676(5) 0.1122(3) 0.7978(6) 0.106(5) Uani 1 1 d D U
C10_12 C 0.2059(5) 0.1332(3) 0.8012(6) 0.092(5) Uani 1 1 d D U
C11_12 C 0.1995(6) 0.1609(3) 0.8212(6) 0.094(5) Uani 1 1 d D U
H11_12 H 0.1698 0.1666 0.8309 0.112 Uiso 1 1 calc R U
C12_12 C 0.2352(5) 0.1807(4) 0.8274(6) 0.090(5) Uani 1 1 d D U
H12_12 H 0.2302 0.1995 0.8420 0.108 Uiso 1 1 calc R U
C13_12 C 0.2781(5) 0.1729(3) 0.8124(5) 0.076(4) Uani 1 1 d D U
C14_12 C 0.3162(5) 0.1940(3) 0.8181(5) 0.076(4) Uani 1 1 d D U
N15_12 N 0.3587(4) 0.1847(3) 0.8010(5) 0.081(4) Uani 1 1 d D U
C16_12 C 0.3686(5) 0.1570(3) 0.7794(5) 0.083(5) Uani 1 1 d D U
C17_12 C 0.3296(5) 0.1366(3) 0.7736(5) 0.083(4) Uani 1 1 d D U
C18_12 C 0.3361(6) 0.1093(3) 0.7526(6) 0.095(5) Uani 1 1 d D U
H18_12 H 0.3653 0.1040 0.7412 0.114 Uiso 1 1 calc R U
C19_12 C 0.3000(5) 0.0894(4) 0.7479(7) 0.102(6) Uani 1 1 d D U
H19_12 H 0.3053 0.0705 0.7337 0.122 Uiso 1 1 calc R U
C20_12 C 0.2569(5) 0.0962(3) 0.7632(6) 0.099(5) Uani 1 1 d D U
C21_12 C 0.2189(5) 0.0748(3) 0.7593(6) 0.102(5) Uani 1 1 d D U
C22_12 C 0.2493(5) 0.1246(3) 0.7844(5) 0.091(5) Uani 1 1 d D U
C23_12 C 0.2861(5) 0.1450(3) 0.7900(5) 0.083(4) Uani 1 1 d D U
O24_12 O 0.1287(5) 0.1187(3) 0.8081(6) 0.123(6) Uani 1 1 d D U
O25_12 O 0.3130(5) 0.2185(3) 0.8360(5) 0.092(4) Uani 1 1 d D U
O26_12 O 0.4075(5) 0.1514(3) 0.7667(5) 0.098(4) Uani 1 1 d D U
O27_12 O 0.2224(5) 0.0501(3) 0.7411(6) 0.112(5) Uani 1 1 d D U
C28_12 C 0.3944(5) 0.2067(3) 0.8004(6) 0.082(4) Uani 1 1 d D U
C29_12 C 0.4242(5) 0.2112(4) 0.8410(6) 0.089(5) Uani 1 1 d D U
H29_12 H 0.4225 0.1991 0.8699 0.107 Uiso 1 1 calc R U
C30_12 C 0.4564(6) 0.2336(3) 0.8384(6) 0.089(5) Uani 1 1 d D U
H30_12 H 0.4769 0.2370 0.8657 0.107 Uiso 1 1 calc R U
C31_12 C 0.4591(5) 0.2509(3) 0.7962(6) 0.085(5) Uani 1 1 d D U
C32_12 C 0.4296(6) 0.2461(4) 0.7559(6) 0.093(5) Uani 1 1 d D U
H32_12 H 0.4318 0.2581 0.7270 0.112 Uiso 1 1 calc R U
C33_12 C 0.3970(6) 0.2241(3) 0.7576(6) 0.087(5) Uani 1 1 d D U
H33_12 H 0.3766 0.2208 0.7301 0.105 Uiso 1 1 calc R U
N34_12 N 0.4916(5) 0.2737(3) 0.7933(5) 0.072(4) Uani 1 1 d D U
C1A_12 C -0.0013(7) 0.0042(5) 0.7986(8) 0.141(7) Uani 1 1 d D U
H1A_12 H -0.0107 0.0239 0.7912 0.169 Uiso 1 1 calc R U
C34A_12 C 0.4801(6) 0.3008(3) 0.8019(6) 0.078(5) Uani 1 1 d D U
H34A_12 H 0.4499 0.3054 0.8111 0.094 Uiso 1 1 calc R U
C1B_12 C -0.0350(7) -0.0188(4) 0.8096(7) 0.149(7) Uani 1 1 d D U
C34B_12 C 0.5143(6) 0.3245(3) 0.7973(5) 0.092(5) Uani 1 1 d D U
N1C_12 N -0.0172(6) -0.0457(5) 0.8190(7) 0.132(6) Uani 1 1 d D U
N34C_12 N 0.5556(6) 0.3154(4) 0.7825(6) 0.102(5) Uani 1 1 d D U
C1D_12 C -0.0470(9) -0.0668(5) 0.8302(9) 0.160(8) Uani 1 1 d D U
H1D_12 H -0.0353 -0.0860 0.8377 0.192 Uiso 1 1 calc R U
C34D_12 C 0.5873(6) 0.3367(4) 0.7758(7) 0.116(6) Uani 1 1 d D U
H34D_12 H 0.6166 0.3309 0.7649 0.139 Uiso 1 1 calc R U
C1E_12 C -0.0938(9) -0.0629(6) 0.8317(10) 0.177(8) Uani 1 1 d D U
H1E_12 H -0.1134 -0.0789 0.8391 0.212 Uiso 1 1 calc R U
C34E_12 C 0.5792(7) 0.3662(4) 0.7841(7) 0.111(6) Uani 1 1 d D U
H34E_12 H 0.6025 0.3805 0.7794 0.133 Uiso 1 1 calc R U
C1F_12 C -0.1111(8) -0.0347(6) 0.8222(10) 0.183(8) Uani 1 1 d D U
H1F_12 H -0.1430 -0.0311 0.8234 0.219 Uiso 1 1 calc R U
C34F_12 C 0.5373(7) 0.3748(4) 0.7991(7) 0.107(6) Uani 1 1 d D U
H34F_12 H 0.5313 0.3952 0.8048 0.128 Uiso 1 1 calc R U
C1G_12 C -0.0815(7) -0.0121(5) 0.8108(10) 0.171(8) Uani 1 1 d D U
H1G_12 H -0.0923 0.0074 0.8042 0.206 Uiso 1 1 calc R U
C34G_12 C 0.5032(6) 0.3541(4) 0.8063(6) 0.090(5) Uani 1 1 d D U
H34G_12 H 0.4737 0.3597 0.8169 0.108 Uiso 1 1 calc R U
N1_13 N 0.0421(6) -0.0574(4) 0.7234(6) 0.111(5) Uani 1 1 d D U
C2_13 C 0.0368(6) -0.0352(4) 0.6866(6) 0.112(6) Uani 1 1 d D U
C3_13 C -0.0037(7) -0.0195(4) 0.6818(7) 0.115(6) Uani 1 1 d D U
H3_13 H -0.0289 -0.0244 0.7017 0.137 Uiso 1 1 calc R U
C4_13 C -0.0069(7) 0.0033(4) 0.6478(7) 0.117(6) Uani 1 1 d D U
H4_13 H -0.0343 0.0145 0.6446 0.141 Uiso 1 1 calc R U
C5_13 C 0.0297(7) 0.0099(3) 0.6183(6) 0.113(5) Uani 1 1 d D U
C6_13 C 0.0701(7) -0.0063(4) 0.6218(7) 0.112(6) Uani 1 1 d D U
H6_13 H 0.0949 -0.0019 0.6009 0.134 Uiso 1 1 calc R U
C7_13 C 0.0735(7) -0.0290(4) 0.6562(7) 0.109(6) Uani 1 1 d D U
H7_13 H 0.1008 -0.0404 0.6592 0.131 Uiso 1 1 calc R U
N8_13 N 0.0266(5) 0.0340(3) 0.5833(5) 0.111(5) Uani 1 1 d D U
C9_13 C -0.0058(6) 0.0322(3) 0.5439(6) 0.121(6) Uani 1 1 d D U
C10_13 C -0.0103(5) 0.0576(3) 0.5093(6) 0.121(6) Uani 1 1 d D U
C11_13 C -0.0422(6) 0.0576(4) 0.4711(6) 0.118(6) Uani 1 1 d D U
H11_13 H -0.0609 0.0406 0.4662 0.142 Uiso 1 1 calc R U
C12_13 C -0.0482(6) 0.0816(4) 0.4395(7) 0.104(6) Uani 1 1 d D U
H12_13 H -0.0711 0.0811 0.4139 0.125 Uiso 1 1 calc R U
C13_13 C -0.0208(5) 0.1060(3) 0.4454(5) 0.103(5) Uani 1 1 d D U
C14_13 C -0.0264(5) 0.1317(3) 0.4119(6) 0.109(6) Uani 1 1 d D U
N15_13 N 0.0016(5) 0.1563(3) 0.4211(5) 0.107(5) Uani 1 1 d D U
C16_13 C 0.0358(5) 0.1584(3) 0.4584(6) 0.118(6) Uani 1 1 d D U
C17_13 C 0.0419(5) 0.1321(3) 0.4907(6) 0.122(6) Uani 1 1 d D U
C18_13 C 0.0731(6) 0.1323(4) 0.5297(7) 0.126(6) Uani 1 1 d D U
H18_13 H 0.0930 0.1488 0.5339 0.152 Uiso 1 1 calc R U
C19_13 C 0.0762(7) 0.1089(4) 0.5629(7) 0.126(6) Uani 1 1 d D U
H19_13 H 0.0968 0.1104 0.5906 0.152 Uiso 1 1 calc R U
C20_13 C 0.0503(5) 0.0836(3) 0.5571(6) 0.119(6) Uani 1 1 d D U
C21_13 C 0.0552(6) 0.0587(3) 0.5925(6) 0.115(6) Uani 1 1 d D U
C22_13 C 0.0183(5) 0.0826(3) 0.5168(6) 0.121(6) Uani 1 1 d D U
C23_13 C 0.0133(5) 0.1070(3) 0.4836(6) 0.114(5) Uani 1 1 d D U
O24_13 O -0.0299(6) 0.0104(4) 0.5408(6) 0.139(6) Uani 1 1 d D U
O25_13 O -0.0536(6) 0.1324(4) 0.3764(6) 0.140(6) Uani 1 1 d D U
O26_13 O 0.0571(5) 0.1811(3) 0.4648(6) 0.125(6) Uani 1 1 d D U
O27_13 O 0.0816(6) 0.0591(3) 0.6292(6) 0.130(6) Uani 1 1 d D U
C28_13 C -0.0060(6) 0.1818(3) 0.3898(6) 0.105(5) Uani 1 1 d D U
C29_13 C -0.0460(6) 0.1978(4) 0.3937(7) 0.104(6) Uani 1 1 d D U
H29_13 H -0.0682 0.1917 0.4166 0.125 Uiso 1 1 calc R U
C30_13 C -0.0537(6) 0.2224(4) 0.3647(6) 0.100(6) Uani 1 1 d D U
H30_13 H -0.0810 0.2336 0.3680 0.120 Uiso 1 1 calc R U
C31_13 C -0.0216(6) 0.2309(3) 0.3306(6) 0.101(5) Uani 1 1 d D U
C32_13 C 0.0187(6) 0.2148(4) 0.3279(6) 0.093(5) Uani 1 1 d D U
H32_13 H 0.0412 0.2211 0.3054 0.111 Uiso 1 1 calc R U
C33_13 C 0.0271(6) 0.1901(4) 0.3566(6) 0.098(6) Uani 1 1 d D U
H33_13 H 0.0546 0.1791 0.3538 0.118 Uiso 1 1 calc R U
N34_13 N -0.0308(6) 0.2567(4) 0.3012(6) 0.106(5) Uani 1 1 d D U
C1A_13 C 0.0430(7) -0.0845(4) 0.7123(7) 0.115(6) Uani 1 1 d D U
H1A_13 H 0.0405 -0.0907 0.6785 0.138 Uiso 1 1 calc R U
C34A_13 C -0.0352(6) 0.2557(4) 0.2548(7) 0.112(6) Uani 1 1 d D U
H34A_13 H -0.0314 0.2371 0.2388 0.134 Uiso 1 1 calc R U
C1B_13 C 0.0479(6) -0.1066(4) 0.7524(6) 0.129(6) Uani 1 1 d D U
C34B_13 C -0.0458(6) 0.2818(4) 0.2239(7) 0.124(6) Uani 1 1 d D U
N1C_13 N 0.0523(7) -0.0956(4) 0.7990(7) 0.142(6) Uani 1 1 d D U
N34C_13 N -0.0523(6) 0.3068(4) 0.2499(7) 0.119(6) Uani 1 1 d D U
C1D_13 C 0.0611(8) -0.1155(5) 0.8353(8) 0.151(7) Uani 1 1 d D U
H1D_13 H 0.0638 -0.1086 0.8687 0.182 Uiso 1 1 calc R U
C34D_13 C -0.0663(7) 0.3308(4) 0.2246(8) 0.137(7) Uani 1 1 d D U
H34D_13 H -0.0718 0.3486 0.2424 0.164 Uiso 1 1 calc R U
C1E_13 C 0.0665(8) -0.1454(5) 0.8265(8) 0.152(7) Uani 1 1 d D U
H1E_13 H 0.0734 -0.1585 0.8533 0.183 Uiso 1 1 calc R U
C34E_13 C -0.0730(8) 0.3307(6) 0.1738(8) 0.155(7) Uani 1 1 d D U
H34E_13 H -0.0838 0.3479 0.1570 0.185 Uiso 1 1 calc R U
C1F_13 C 0.0619(8) -0.1562(5) 0.7790(8) 0.146(7) Uani 1 1 d D U
H1F_13 H 0.0659 -0.1767 0.7724 0.176 Uiso 1 1 calc R U
C34F_13 C -0.0640(8) 0.3053(5) 0.1473(8) 0.158(8) Uani 1 1 d D U
H34F_13 H -0.0674 0.3052 0.1121 0.190 Uiso 1 1 calc R U
C1G_13 C 0.0512(7) -0.1366(4) 0.7409(7) 0.127(6) Uani 1 1 d D U
H1G_13 H 0.0463 -0.1434 0.7078 0.153 Uiso 1 1 calc R U
C34G_13 C -0.0499(8) 0.2799(5) 0.1722(7) 0.145(7) Uani 1 1 d D U
H34G_13 H -0.0433 0.2621 0.1549 0.174 Uiso 1 1 calc R U
N1_14 N 0.4844(6) -0.0245(3) 0.2501(5) 0.096(5) Uani 1 1 d D U
C2_14 C 0.4896(6) -0.0046(3) 0.2905(6) 0.096(5) Uani 1 1 d D U
C3_14 C 0.5295(6) 0.0113(4) 0.2992(6) 0.099(6) Uani 1 1 d D U
H3_14 H 0.5542 0.0091 0.2773 0.118 Uiso 1 1 calc R U
C4_14 C 0.5340(6) 0.0303(4) 0.3394(6) 0.102(6) Uani 1 1 d D U
H4_14 H 0.5614 0.0412 0.3454 0.123 Uiso 1 1 calc R U
C5_14 C 0.4973(6) 0.0331(3) 0.3706(5) 0.095(5) Uani 1 1 d D U
C6_14 C 0.4563(6) 0.0178(3) 0.3615(6) 0.088(5) Uani 1 1 d D U
H6_14 H 0.4313 0.0204 0.3828 0.106 Uiso 1 1 calc R U
C7_14 C 0.4526(6) -0.0013(4) 0.3214(6) 0.097(5) Uani 1 1 d D U
H7_14 H 0.4252 -0.0120 0.3149 0.116 Uiso 1 1 calc R U
N8_14 N 0.5021(5) 0.0510(3) 0.4150(5) 0.086(4) Uani 1 1 d D U
C9_14 C 0.5229(5) 0.0386(3) 0.4578(5) 0.094(5) Uani 1 1 d D U
C10_14 C 0.5238(5) 0.0567(3) 0.5037(5) 0.095(5) Uani 1 1 d D U
C11_14 C 0.5408(6) 0.0456(4) 0.5483(5) 0.094(5) Uani 1 1 d D U
H11_14 H 0.5521 0.0259 0.5491 0.112 Uiso 1 1 calc R U
C12_14 C 0.5420(6) 0.0619(3) 0.5917(6) 0.084(5) Uani 1 1 d D U
H12_14 H 0.5534 0.0533 0.6218 0.101 Uiso 1 1 calc R U
C13_14 C 0.5267(5) 0.0907(3) 0.5912(5) 0.084(5) Uani 1 1 d D U
C14_14 C 0.5312(5) 0.1095(3) 0.6359(5) 0.090(5) Uani 1 1 d D U
N15_14 N 0.5171(5) 0.1390(3) 0.6309(5) 0.094(4) Uani 1 1 d D U
C16_14 C 0.4970(5) 0.1520(3) 0.5883(5) 0.096(5) Uani 1 1 d D U
C17_14 C 0.4921(5) 0.1326(3) 0.5444(5) 0.096(5) Uani 1 1 d D U
C18_14 C 0.4744(6) 0.1435(4) 0.5005(6) 0.106(6) Uani 1 1 d D U
H18_14 H 0.4641 0.1635 0.4991 0.127 Uiso 1 1 calc R U
C19_14 C 0.4712(6) 0.1262(3) 0.4581(6) 0.098(6) Uani 1 1 d D U
H19_14 H 0.4580 0.1344 0.4285 0.118 Uiso 1 1 calc R U
C20_14 C 0.4868(5) 0.0974(3) 0.4581(5) 0.093(5) Uani 1 1 d D U
C21_14 C 0.4840(5) 0.0797(3) 0.4121(5) 0.089(5) Uani 1 1 d D U
C22_14 C 0.5061(5) 0.0857(3) 0.5027(5) 0.086(5) Uani 1 1 d D U
C23_14 C 0.5077(5) 0.1032(3) 0.5466(5) 0.087(5) Uani 1 1 d D U
O24_14 O 0.5380(5) 0.0135(3) 0.4557(5) 0.105(5) Uani 1 1 d D U
O25_14 O 0.5467(6) 0.1003(3) 0.6751(5) 0.119(5) Uani 1 1 d D U
O26_14 O 0.4871(6) 0.1781(3) 0.5866(6) 0.138(6) Uani 1 1 d D U
O27_14 O 0.4689(5) 0.0889(3) 0.3724(5) 0.106(5) Uani 1 1 d D U
C28_14 C 0.5285(6) 0.1592(3) 0.6707(6) 0.105(5) Uani 1 1 d D U
C29_14 C 0.5700(7) 0.1746(4) 0.6701(7) 0.117(6) Uani 1 1 d D U
H29_14 H 0.5906 0.1711 0.6441 0.140 Uiso 1 1 calc R U
C30_14 C 0.5810(6) 0.1948(4) 0.7071(6) 0.111(6) Uani 1 1 d D U
H30_14 H 0.6091 0.2052 0.7066 0.133 Uiso 1 1 calc R U
C31_14 C 0.5505(6) 0.1998(3) 0.7452(6) 0.100(5) Uani 1 1 d D U
C32_14 C 0.5091(6) 0.1847(4) 0.7463(6) 0.095(5) Uani 1 1 d D U
H32_14 H 0.4885 0.1882 0.7723 0.114 Uiso 1 1 calc R U
C33_14 C 0.4982(6) 0.1643(4) 0.7091(6) 0.092(5) Uani 1 1 d D U
H33_14 H 0.4701 0.1538 0.7097 0.111 Uiso 1 1 calc R U
N34_14 N 0.5625(6) 0.2215(3) 0.7815(6) 0.097(5) Uani 1 1 d D U
C1A_14 C 0.4997(7) -0.0511(4) 0.2531(6) 0.108(6) Uani 1 1 d D U
H1A_14 H 0.5153 -0.0578 0.2825 0.129 Uiso 1 1 calc R U
C34A_14 C 0.5736(6) 0.2129(4) 0.8257(7) 0.107(6) Uani 1 1 d D U
H34A_14 H 0.5725 0.1925 0.8340 0.129 Uiso 1 1 calc R U
C1B_14 C 0.4928(6) -0.0712(3) 0.2105(6) 0.115(6) Uani 1 1 d D U
C34B_14 C 0.5882(6) 0.2348(4) 0.8634(6) 0.128(6) Uani 1 1 d D U
N1C_14 N 0.4693(6) -0.0601(4) 0.1710(6) 0.118(6) Uani 1 1 d D U
N34C_14 N 0.5888(6) 0.2635(4) 0.8489(6) 0.131(6) Uani 1 1 d D U
C1D_14 C 0.4614(7) -0.0784(4) 0.1322(6) 0.119(6) Uani 1 1 d D U
H1D_14 H 0.4438 -0.0712 0.1045 0.143 Uiso 1 1 calc R U
C34D_14 C 0.6031(8) 0.2845(5) 0.8810(7) 0.138(7) Uani 1 1 d D U
H34D_14 H 0.6036 0.3046 0.8704 0.165 Uiso 1 1 calc R U
C1E_14 C 0.4776(7) -0.1073(4) 0.1306(7) 0.125(7) Uani 1 1 d D U
H1E_14 H 0.4723 -0.1191 0.1018 0.150 Uiso 1 1 calc R U
C34E_14 C 0.6170(8) 0.2775(5) 0.9292(8) 0.145(7) Uani 1 1 d D U
H34E_14 H 0.6274 0.2926 0.9515 0.174 Uiso 1 1 calc R U
C1F_14 C 0.5014(7) -0.1188(4) 0.1706(7) 0.120(6) Uani 1 1 d D U
H1F_14 H 0.5123 -0.1387 0.1706 0.144 Uiso 1 1 calc R U
C34F_14 C 0.6155(8) 0.2485(5) 0.9439(8) 0.151(7) Uani 1 1 d D U
H34F_14 H 0.6246 0.2434 0.9770 0.181 Uiso 1 1 calc R U
C1G_14 C 0.5088(7) -0.1002(4) 0.2115(7) 0.116(6) Uani 1 1 d D U
H1G_14 H 0.5249 -0.1074 0.2401 0.139 Uiso 1 1 calc R U
C34G_14 C 0.6012(8) 0.2264(5) 0.9114(7) 0.144(7) Uani 1 1 d D U
H34G_14 H 0.6003 0.2063 0.9216 0.173 Uiso 1 1 calc R U
N1_15 N 0.4697(6) 0.0340(4) 0.1838(6) 0.105(5) Uani 1 1 d D U
C2_15 C 0.4394(6) 0.0552(4) 0.2031(6) 0.109(5) Uani 1 1 d D U
C3_15 C 0.4015(6) 0.0633(4) 0.1738(7) 0.121(6) Uani 1 1 d D U
H3_15 H 0.3966 0.0544 0.1421 0.145 Uiso 1 1 calc R U
C4_15 C 0.3711(7) 0.0841(4) 0.1907(6) 0.118(6) Uani 1 1 d D U
H4_15 H 0.3452 0.0893 0.1706 0.142 Uiso 1 1 calc R U
C5_15 C 0.3784(6) 0.0975(3) 0.2372(6) 0.102(5) Uani 1 1 d D U
C6_15 C 0.4156(6) 0.0892(4) 0.2655(7) 0.102(6) Uani 1 1 d D U
H6_15 H 0.4206 0.0982 0.2972 0.123 Uiso 1 1 calc R U
C7_15 C 0.4464(6) 0.0682(4) 0.2494(6) 0.108(6) Uani 1 1 d D U
H7_15 H 0.4719 0.0627 0.2699 0.130 Uiso 1 1 calc R U
N8_15 N 0.3474(5) 0.1209(3) 0.2501(5) 0.099(4) Uani 1 1 d D U
C9_15 C 0.3056(5) 0.1119(3) 0.2690(6) 0.106(5) Uani 1 1 d D U
C10_15 C 0.2707(5) 0.1347(3) 0.2780(5) 0.098(5) Uani 1 1 d D U
C11_15 C 0.2284(6) 0.1265(4) 0.2945(7) 0.117(6) Uani 1 1 d D U
H11_15 H 0.2219 0.1062 0.3007 0.140 Uiso 1 1 calc R U
C12_15 C 0.1952(6) 0.1480(3) 0.3022(7) 0.115(6) Uani 1 1 d D U
H12_15 H 0.1666 0.1425 0.3152 0.138 Uiso 1 1 calc R U
C13_15 C 0.2039(5) 0.1774(3) 0.2908(6) 0.103(5) Uani 1 1 d D U
C14_15 C 0.1674(5) 0.1996(3) 0.2941(6) 0.108(5) Uani 1 1 d D U
N15_15 N 0.1784(5) 0.2288(3) 0.2801(5) 0.094(4) Uani 1 1 d D U
C16_15 C 0.2202(5) 0.2392(3) 0.2636(6) 0.091(5) Uani 1 1 d D U
C17_15 C 0.2561(5) 0.2165(3) 0.2606(5) 0.087(5) Uani 1 1 d D U
C18_15 C 0.2985(5) 0.2240(4) 0.2442(6) 0.094(5) Uani 1 1 d D U
H18_15 H 0.3049 0.2441 0.2359 0.113 Uiso 1 1 calc R U
C19_15 C 0.3323(6) 0.2027(3) 0.2396(6) 0.092(5) Uani 1 1 d D U
H19_15 H 0.3615 0.2085 0.2287 0.111 Uiso 1 1 calc R U
C20_15 C 0.3246(5) 0.1731(3) 0.2504(5) 0.088(5) Uani 1 1 d D U
C21_15 C 0.3600(5) 0.1505(3) 0.2413(5) 0.090(5) Uani 1 1 d D U
C22_15 C 0.2814(5) 0.1646(3) 0.2676(5) 0.085(4) Uani 1 1 d D U
C23_15 C 0.2471(5) 0.1866(3) 0.2736(5) 0.090(5) Uani 1 1 d D U
O24_15 O 0.2995(6) 0.0860(3) 0.2803(6) 0.118(5) Uani 1 1 d D U
O25_15 O 0.1299(5) 0.1936(3) 0.3095(7) 0.134(6) Uani 1 1 d D U
O26_15 O 0.2263(5) 0.2648(3) 0.2510(5) 0.102(5) Uani 1 1 d D U
O27_15 O 0.3995(5) 0.1564(3) 0.2300(5) 0.103(4) Uani 1 1 d D U
C28_15 C 0.1422(5) 0.2503(3) 0.2860(6) 0.094(5) Uani 1 1 d D U
C29_15 C 0.1090(6) 0.2556(4) 0.2492(7) 0.092(5) Uani 1 1 d D U
H29_15 H 0.1100 0.2457 0.2181 0.111 Uiso 1 1 calc R U
C30_15 C 0.0747(6) 0.2757(3) 0.2587(6) 0.083(5) Uani 1 1 d D U
H30_15 H 0.0517 0.2797 0.2340 0.100 Uiso 1 1 calc R U
C31_15 C 0.0739(5) 0.2899(3) 0.3044(6) 0.090(5) Uani 1 1 d D U
C32_15 C 0.1077(5) 0.2846(4) 0.3406(7) 0.089(5) Uani 1 1 d D U
H32_15 H 0.1071 0.2948 0.3715 0.107 Uiso 1 1 calc R U
C33_15 C 0.1420(6) 0.2646(4) 0.3315(7) 0.095(5) Uani 1 1 d D U
H33_15 H 0.1652 0.2608 0.3561 0.114 Uiso 1 1 calc R U
N34_15 N 0.0388(5) 0.3104(3) 0.3132(6) 0.081(4) Uani 1 1 d D U
C1A_15 C 0.5106(7) 0.0410(5) 0.1759(7) 0.110(6) Uani 1 1 d D U
H1A_15 H 0.5201 0.0607 0.1829 0.132 Uiso 1 1 calc R U
C34A_15 C 0.0500(6) 0.3372(4) 0.3246(7) 0.101(6) Uani 1 1 d D U
H34A_15 H 0.0812 0.3429 0.3244 0.121 Uiso 1 1 calc R U
C1B_15 C 0.5441(6) 0.0202(4) 0.1565(5) 0.105(5) Uani 1 1 d D U
C34B_15 C 0.0152(6) 0.3590(4) 0.3381(6) 0.114(6) Uani 1 1 d D U
N1C_15 N 0.5288(6) -0.0075(4) 0.1480(5) 0.097(5) Uani 1 1 d D U
N34C_15 N -0.0273(6) 0.3482(4) 0.3397(7) 0.115(5) Uani 1 1 d D U
C1D_15 C 0.5575(7) -0.0259(5) 0.1258(7) 0.121(6) Uani 1 1 d D U
H1D_15 H 0.5466 -0.0450 0.1169 0.146 Uiso 1 1 calc R U
C34D_15 C -0.0603(7) 0.3669(5) 0.3535(8) 0.122(6) Uani 1 1 d D U
H34D_15 H -0.0906 0.3595 0.3547 0.147 Uiso 1 1 calc R U
C1E_15 C 0.6024(7) -0.0190(5) 0.1148(7) 0.117(6) Uani 1 1 d D U
H1E_15 H 0.6220 -0.0331 0.1003 0.140 Uiso 1 1 calc R U
C34E_15 C -0.0533(7) 0.3960(5) 0.3660(9) 0.130(7) Uani 1 1 d D U
H34E_15 H -0.0778 0.4082 0.3760 0.156 Uiso 1 1 calc R U
C1F_15 C 0.6168(7) 0.0090(5) 0.1258(7) 0.126(6) Uani 1 1 d D U
H1F_15 H 0.6473 0.0147 0.1190 0.151 Uiso 1 1 calc R U
C34F_15 C -0.0095(7) 0.4071(4) 0.3635(9) 0.134(7) Uani 1 1 d D U
H34F_15 H -0.0033 0.4273 0.3715 0.161 Uiso 1 1 calc R U
C1G_15 C 0.5876(6) 0.0294(5) 0.1467(7) 0.111(6) Uani 1 1 d D U
H1G_15 H 0.5973 0.0491 0.1540 0.133 Uiso 1 1 calc R U
C34G_15 C 0.0252(7) 0.3884(4) 0.3490(8) 0.128(7) Uani 1 1 d D U
H34G_15 H 0.0555 0.3956 0.3466 0.153 Uiso 1 1 calc R U
P1_50 P 0.2578(6) 0.0368(4) 0.8887(7) 0.293(7) Uani 1 1 d D U
F2_50 F 0.2176(8) 0.0319(7) 0.9269(9) 0.299(9) Uani 1 1 d D U
F3_50 F 0.2889(9) 0.0529(7) 0.9320(9) 0.326(10) Uani 1 1 d D U
F4_50 F 0.3013(8) 0.0418(7) 0.8523(10) 0.311(9) Uani 1 1 d D U
F5_50 F 0.2311(9) 0.0204(6) 0.8424(9) 0.305(9) Uani 1 1 d D U
F6_50 F 0.2376(8) 0.0686(5) 0.8697(9) 0.288(9) Uani 1 1 d D U
F7_50 F 0.2778(10) 0.0040(5) 0.9053(11) 0.330(10) Uani 1 1 d D U
P1_51 P -0.0907(5) -0.0965(3) 0.6679(6) 0.238(5) Uani 1 1 d D U
F2_51 F -0.1198(7) -0.1040(4) 0.7174(8) 0.240(7) Uani 1 1 d D U
F3_51 F -0.0440(6) -0.1058(5) 0.6968(10) 0.266(8) Uani 1 1 d D U
F4_51 F -0.0622(7) -0.0913(5) 0.6169(8) 0.260(8) Uani 1 1 d D U
F5_51 F -0.1388(6) -0.0887(4) 0.6380(8) 0.229(7) Uani 1 1 d D U
F6_51 F -0.0983(7) -0.1314(3) 0.6483(9) 0.244(7) Uani 1 1 d D U
F7_51 F -0.0852(7) -0.0625(3) 0.6857(9) 0.240(7) Uani 1 1 d D U
P1_52 P 0.5023(7) 0.0729(3) 0.0189(5) 0.290(7) Uani 1 1 d D U
F2_52 F 0.4765(9) 0.0556(5) -0.0270(7) 0.306(9) Uani 1 1 d D U
F3_52 F 0.5497(8) 0.0734(5) -0.0115(9) 0.304(9) Uani 1 1 d D U
F4_52 F 0.5273(9) 0.0874(5) 0.0678(7) 0.313(9) Uani 1 1 d D U
F5_52 F 0.4530(8) 0.0707(6) 0.0447(10) 0.322(10) Uani 1 1 d D U
F6_52 F 0.4896(11) 0.1050(4) -0.0033(9) 0.332(10) Uani 1 1 d D U
F7_52 F 0.5168(10) 0.0408(4) 0.0425(7) 0.291(9) Uani 1 1 d D U
S1_60 S 0.2062(4) 0.3487(2) 0.5836(4) 0.182(3) Uani 1 1 d D U
O2_60 O 0.2112(8) 0.3806(3) 0.5846(8) 0.183(7) Uani 1 1 d D U
O3_60 O 0.1787(7) 0.3341(4) 0.5458(7) 0.181(7) Uani 1 1 d D U
C4_60 C 0.1751(8) 0.3404(6) 0.6400(7) 0.212(7) Uani 1 1 d D U
F5_60 F 0.1989(7) 0.3520(5) 0.6782(7) 0.218(7) Uani 1 1 d D U
F6_60 F 0.1327(8) 0.3499(6) 0.6323(9) 0.256(8) Uani 1 1 d D U
F7_60 F 0.1730(9) 0.3119(5) 0.6495(8) 0.250(8) Uani 1 1 d D U
N8_60 N 0.2566(5) 0.3329(5) 0.5855(9) 0.187(6) Uani 1 1 d D U
S9_60 S 0.3018(4) 0.3476(2) 0.6121(4) 0.190(4) Uani 1 1 d D U
O10_60 O 0.2902(8) 0.3692(4) 0.6484(7) 0.187(7) Uani 1 1 d D U
O11_60 O 0.3357(7) 0.3250(4) 0.6200(8) 0.203(8) Uani 1 1 d D U
C12_60 C 0.3292(8) 0.3692(5) 0.5635(8) 0.213(6) Uani 1 1 d D U
F13_60 F 0.3000(8) 0.3906(5) 0.5515(8) 0.227(7) Uani 1 1 d D U
F14_60 F 0.3687(7) 0.3788(5) 0.5803(8) 0.229(8) Uani 1 1 d D U
F15_60 F 0.3331(8) 0.3519(5) 0.5237(8) 0.235(8) Uani 1 1 d D U
loop_
_atom_site_aniso_label
_atom_site_aniso_U_11
_atom_site_aniso_U_22
_atom_site_aniso_U_33
_atom_site_aniso_U_23
_atom_site_aniso_U_13
_atom_site_aniso_U_12
Zn1 0.124(3) 0.089(2) 0.084(2) -0.0057(18) 0.0042(19) -0.0100(19)
Zn2 0.099(3) 0.118(3) 0.097(3) 0.003(2) 0.0085(19) 0.007(2)
Zn3 0.192(4) 0.078(2) 0.050(2) 0.0042(17) 0.022(2) 0.038(2)
Zn4 0.198(4) 0.114(3) 0.069(2) 0.010(2) 0.014(2) -0.040(3)
N1_10 0.172(12) 0.097(11) 0.061(9) 0.017(9) 0.016(8) -0.003(9)
C2_10 0.181(12) 0.105(10) 0.069(9) 0.011(8) 0.021(8) -0.014(10)
C3_10 0.180(14) 0.111(11) 0.082(10) 0.003(8) 0.028(10) -0.017(10)
C4_10 0.185(14) 0.114(11) 0.084(10) -0.002(8) 0.028(9) -0.027(10)
C5_10 0.180(12) 0.115(11) 0.077(8) 0.000(8) 0.028(8) -0.024(9)
C6_10 0.191(14) 0.112(11) 0.069(10) 0.006(8) 0.028(9) -0.024(10)
C7_10 0.201(14) 0.110(11) 0.075(10) 0.008(9) 0.034(9) -0.019(10)
N8_10 0.173(9) 0.118(10) 0.076(7) -0.005(7) 0.024(6) -0.029(8)
C9_10 0.172(10) 0.126(13) 0.081(8) -0.010(8) 0.023(7) -0.024(9)
C10_10 0.167(10) 0.117(12) 0.076(8) -0.009(8) 0.021(6) -0.018(9)
C11_10 0.169(11) 0.140(14) 0.081(9) -0.014(9) 0.022(7) -0.013(10)
C12_10 0.175(11) 0.154(15) 0.081(9) -0.015(10) 0.022(8) -0.016(10)
C13_10 0.170(10) 0.141(13) 0.070(8) -0.008(8) 0.018(6) -0.010(9)
C14_10 0.173(10) 0.144(14) 0.070(8) -0.001(9) 0.018(7) 0.000(9)
N15_10 0.170(9) 0.119(10) 0.065(7) 0.004(7) 0.017(6) 0.010(8)
C16_10 0.166(10) 0.104(12) 0.064(8) 0.004(8) 0.021(7) 0.011(9)
C17_10 0.166(10) 0.103(12) 0.063(7) -0.003(8) 0.020(6) -0.002(9)
C18_10 0.167(11) 0.105(13) 0.066(8) -0.003(9) 0.019(7) -0.003(10)
C19_10 0.167(11) 0.098(13) 0.065(9) -0.003(9) 0.017(7) -0.009(9)
C20_10 0.167(10) 0.102(12) 0.068(7) -0.008(7) 0.019(6) -0.015(9)
C21_10 0.171(10) 0.115(13) 0.071(8) -0.010(8) 0.019(7) -0.024(9)
C22_10 0.166(9) 0.098(11) 0.069(7) -0.012(7) 0.020(6) -0.012(8)
C23_10 0.165(10) 0.107(12) 0.068(7) -0.008(7) 0.021(6) -0.002(8)
O24_10 0.172(11) 0.202(18) 0.089(11) 0.009(11) 0.022(8) -0.037(10)
O25_10 0.198(14) 0.27(2) 0.070(9) -0.004(11) 0.014(8) -0.033(13)
O26_10 0.167(10) 0.129(13) 0.068(9) 0.010(9) 0.021(7) 0.008(9)
O27_10 0.170(12) 0.110(12) 0.068(8) -0.003(8) 0.015(7) -0.030(9)
C28_10 0.169(12) 0.117(11) 0.062(8) 0.009(7) 0.014(7) 0.018(9)
C29_10 0.178(14) 0.119(11) 0.058(9) 0.014(8) 0.009(9) 0.023(10)
C30_10 0.187(14) 0.120(11) 0.058(9) 0.013(8) 0.014(9) 0.030(10)
C31_10 0.170(13) 0.115(11) 0.063(9) 0.012(8) 0.013(8) 0.029(10)
C32_10 0.186(14) 0.119(11) 0.072(10) 0.018(8) 0.031(9) 0.035(10)
C33_10 0.187(14) 0.123(11) 0.072(10) 0.012(8) 0.030(9) 0.031(10)
N34_10 0.161(12) 0.108(11) 0.056(8) 0.018(8) 0.006(7) 0.044(9)
C1A_10 0.210(15) 0.154(15) 0.067(9) 0.012(10) 0.006(8) 0.007(12)
C34A_10 0.182(14) 0.168(15) 0.065(9) 0.027(9) 0.002(8) 0.049(12)
C1B_10 0.230(15) 0.200(16) 0.073(10) 0.013(10) 0.016(9) 0.012(14)
C34B_10 0.200(14) 0.189(15) 0.065(9) 0.032(9) 0.010(8) 0.041(12)
N1C_10 0.231(15) 0.209(17) 0.069(11) 0.014(12) 0.017(9) 0.008(14)
N34C_10 0.205(14) 0.180(15) 0.067(10) 0.028(11) 0.013(9) 0.042(12)
C1D_10 0.244(17) 0.26(2) 0.080(12) 0.007(14) 0.023(11) 0.003(15)
C34D_10 0.205(15) 0.207(18) 0.067(11) 0.032(12) 0.014(10) 0.041(13)
C1E_10 0.253(18) 0.30(2) 0.084(12) 0.003(14) 0.014(11) 0.000(17)
C34E_10 0.212(16) 0.228(19) 0.078(11) 0.037(12) 0.009(10) 0.043(15)
C1F_10 0.258(18) 0.30(2) 0.086(12) 0.003(13) 0.016(11) 0.004(17)
C34F_10 0.213(16) 0.233(19) 0.075(11) 0.039(12) 0.008(10) 0.044(15)
C1G_10 0.250(17) 0.26(2) 0.079(11) 0.004(12) 0.011(10) 0.005(15)
C34G_10 0.208(15) 0.215(18) 0.072(10) 0.037(11) 0.007(9) 0.042(13)
N1_11 0.113(9) 0.085(10) 0.082(10) -0.009(9) 0.003(7) -0.001(8)
C2_11 0.114(9) 0.080(9) 0.082(11) -0.013(8) -0.001(7) 0.002(7)
C3_11 0.123(10) 0.084(10) 0.096(12) -0.016(9) -0.015(8) 0.006(8)
C4_11 0.119(10) 0.079(9) 0.098(12) -0.016(9) -0.014(8) 0.007(8)
C5_11 0.118(8) 0.078(9) 0.086(10) -0.013(8) -0.009(7) 0.005(7)
C6_11 0.118(10) 0.080(9) 0.082(11) -0.013(8) -0.003(8) 0.007(8)
C7_11 0.117(10) 0.079(9) 0.074(11) -0.008(9) 0.001(8) -0.001(7)
N8_11 0.117(7) 0.075(9) 0.068(7) 0.000(6) -0.004(5) 0.004(6)
C9_11 0.117(8) 0.095(11) 0.069(8) 0.004(8) -0.004(6) -0.003(8)
C10_11 0.113(8) 0.090(10) 0.061(8) -0.002(7) -0.001(6) -0.001(7)
C11_11 0.106(9) 0.115(12) 0.062(9) 0.006(8) 0.001(7) -0.002(8)
C12_11 0.108(9) 0.118(12) 0.060(9) 0.013(9) -0.001(7) -0.004(8)
C13_11 0.106(8) 0.090(10) 0.060(8) 0.002(7) 0.000(6) -0.004(7)
C14_11 0.105(8) 0.096(11) 0.071(9) 0.011(8) -0.002(6) -0.006(7)
N15_11 0.102(7) 0.095(9) 0.074(8) 0.011(7) -0.001(5) -0.004(6)
C16_11 0.111(8) 0.083(11) 0.072(8) 0.008(8) 0.001(6) -0.006(7)
C17_11 0.112(8) 0.083(10) 0.068(8) 0.002(7) 0.001(6) -0.006(7)
C18_11 0.117(9) 0.091(11) 0.069(9) 0.004(8) 0.003(7) 0.000(8)
C19_11 0.119(9) 0.082(11) 0.070(9) -0.002(8) 0.003(7) 0.005(8)
C20_11 0.117(8) 0.079(10) 0.062(8) -0.007(7) -0.001(6) 0.001(7)
C21_11 0.121(8) 0.088(11) 0.064(9) 0.001(8) -0.005(6) 0.000(7)
C22_11 0.111(7) 0.071(10) 0.059(8) -0.010(7) -0.001(6) -0.001(7)
C23_11 0.112(7) 0.085(10) 0.062(8) 0.001(7) 0.000(6) -0.005(7)
O24_11 0.121(9) 0.184(16) 0.084(10) 0.035(10) -0.004(7) -0.013(9)
O25_11 0.110(10) 0.128(12) 0.075(8) 0.021(8) -0.008(7) -0.004(8)
O26_11 0.116(9) 0.110(11) 0.070(9) 0.013(8) -0.002(7) -0.012(8)
O27_11 0.120(10) 0.118(11) 0.068(8) 0.018(8) -0.006(7) -0.014(8)
C28_11 0.105(8) 0.106(9) 0.089(10) 0.016(9) -0.005(7) -0.007(7)
C29_11 0.101(10) 0.103(10) 0.101(12) 0.014(9) -0.007(8) -0.008(8)
C30_11 0.100(10) 0.104(10) 0.101(12) 0.020(9) -0.003(8) -0.011(8)
C31_11 0.092(9) 0.108(10) 0.092(11) 0.013(9) 0.008(7) -0.013(7)
C32_11 0.102(10) 0.109(10) 0.099(12) 0.009(9) -0.001(8) -0.013(8)
C33_11 0.106(10) 0.110(10) 0.099(12) 0.004(9) -0.004(8) -0.009(8)
N34_11 0.089(9) 0.123(11) 0.094(11) 0.002(9) 0.010(7) -0.008(8)
C1A_11 0.113(9) 0.091(12) 0.103(12) 0.000(10) 0.009(7) 0.000(8)
C34A_11 0.092(9) 0.145(14) 0.109(12) -0.005(11) 0.014(7) -0.011(9)
C1B_11 0.111(9) 0.106(12) 0.115(11) 0.001(10) 0.010(7) -0.002(8)
C34B_11 0.089(9) 0.173(14) 0.115(11) -0.013(11) 0.014(7) -0.009(9)
N1C_11 0.090(10) 0.081(10) 0.107(10) 0.003(9) 0.006(7) -0.006(8)
N34C_11 0.067(10) 0.156(14) 0.107(10) -0.017(10) 0.011(7) -0.009(9)
C1D_11 0.102(11) 0.149(15) 0.127(12) -0.003(11) 0.005(8) -0.010(11)
C34D_11 0.081(10) 0.213(17) 0.118(12) -0.011(12) 0.011(8) -0.009(11)
C1E_11 0.105(11) 0.186(16) 0.142(13) 0.001(13) 0.013(9) -0.013(11)
C34E_11 0.078(11) 0.235(18) 0.126(13) -0.007(14) 0.014(9) -0.012(11)
C1F_11 0.113(11) 0.187(16) 0.142(13) 0.001(13) 0.010(9) -0.008(11)
C34F_11 0.088(11) 0.242(18) 0.127(13) -0.004(14) 0.017(9) -0.009(11)
C1G_11 0.115(11) 0.158(15) 0.131(12) -0.001(11) 0.015(8) -0.010(10)
C34G_11 0.091(10) 0.225(18) 0.123(12) -0.008(12) 0.018(8) -0.010(10)
N1_12 0.157(11) 0.111(11) 0.109(11) -0.009(10) 0.022(10) -0.044(9)
C2_12 0.154(11) 0.115(11) 0.111(10) -0.007(9) 0.017(9) -0.044(9)
C3_12 0.163(13) 0.118(12) 0.108(11) -0.003(10) 0.017(9) -0.048(10)
C4_12 0.154(12) 0.115(12) 0.105(11) -0.005(9) 0.015(9) -0.044(10)
C5_12 0.136(10) 0.097(10) 0.102(10) -0.009(8) 0.019(8) -0.024(7)
C6_12 0.140(12) 0.106(12) 0.107(11) -0.006(9) 0.018(9) -0.028(9)
C7_12 0.141(12) 0.106(12) 0.109(11) -0.009(9) 0.021(9) -0.029(9)
N8_12 0.128(8) 0.090(8) 0.095(10) -0.014(7) 0.016(7) -0.011(6)
C9_12 0.124(9) 0.092(8) 0.102(12) -0.019(8) 0.017(8) -0.011(7)
C10_12 0.115(8) 0.087(8) 0.075(11) -0.015(7) 0.010(7) -0.005(6)
C11_12 0.114(10) 0.088(9) 0.078(12) -0.016(8) 0.006(8) -0.004(7)
C12_12 0.113(9) 0.084(9) 0.072(11) -0.010(8) 0.005(8) -0.002(7)
C13_12 0.109(8) 0.076(8) 0.043(9) -0.001(7) -0.004(7) 0.001(6)
C14_12 0.112(8) 0.075(8) 0.040(10) 0.002(7) -0.005(7) 0.000(6)
N15_12 0.113(7) 0.075(7) 0.055(8) -0.003(6) -0.002(6) -0.002(5)
C16_12 0.123(9) 0.072(8) 0.053(10) 0.001(7) 0.003(7) -0.001(6)
C17_12 0.122(8) 0.078(8) 0.048(10) 0.001(7) 0.006(7) -0.003(6)
C18_12 0.127(10) 0.080(9) 0.079(12) -0.010(8) 0.015(8) -0.009(7)
C19_12 0.128(9) 0.084(10) 0.094(12) -0.018(9) 0.022(8) -0.011(7)
C20_12 0.127(9) 0.087(8) 0.082(11) -0.018(7) 0.016(7) -0.008(6)
C21_12 0.130(9) 0.092(9) 0.086(12) -0.016(8) 0.016(8) -0.011(7)
C22_12 0.121(8) 0.086(8) 0.067(10) -0.013(7) 0.008(7) -0.004(6)
C23_12 0.118(8) 0.079(8) 0.051(10) -0.005(7) 0.002(7) -0.002(6)
O24_12 0.124(9) 0.101(10) 0.146(14) -0.030(10) 0.029(8) -0.016(7)
O25_12 0.124(10) 0.076(8) 0.077(10) -0.010(7) 0.004(7) -0.004(7)
O26_12 0.129(9) 0.067(9) 0.098(11) 0.009(8) 0.019(7) 0.005(7)
O27_12 0.132(11) 0.096(9) 0.110(12) -0.033(8) 0.016(9) -0.017(7)
C28_12 0.117(9) 0.079(8) 0.050(8) -0.011(7) 0.004(7) -0.011(7)
C29_12 0.125(11) 0.089(10) 0.053(9) -0.008(8) -0.001(8) -0.024(8)
C30_12 0.131(11) 0.086(10) 0.051(9) -0.009(7) -0.004(8) -0.024(8)
C31_12 0.117(10) 0.081(9) 0.058(9) -0.010(7) -0.003(8) -0.019(7)
C32_12 0.127(11) 0.094(10) 0.058(9) -0.004(8) -0.008(8) -0.028(8)
C33_12 0.122(11) 0.088(10) 0.052(9) -0.009(7) -0.002(8) -0.022(8)
N34_12 0.100(9) 0.072(8) 0.044(8) -0.001(7) -0.024(7) -0.014(6)
C1A_12 0.157(12) 0.131(12) 0.136(14) -0.012(11) 0.021(11) -0.042(9)
C34A_12 0.111(11) 0.077(8) 0.046(10) -0.003(8) -0.021(8) -0.012(7)
C1B_12 0.158(12) 0.145(12) 0.146(14) -0.007(11) 0.020(10) -0.045(9)
C34B_12 0.126(11) 0.081(9) 0.069(10) -0.007(8) -0.011(8) -0.023(7)
N1C_12 0.153(13) 0.136(12) 0.106(13) -0.018(11) 0.006(10) -0.049(9)
N34C_12 0.127(11) 0.087(10) 0.091(11) -0.004(8) -0.005(9) -0.022(7)
C1D_12 0.163(14) 0.154(13) 0.164(16) 0.000(12) 0.016(13) -0.049(10)
C34D_12 0.136(12) 0.095(11) 0.115(13) 0.000(10) -0.001(10) -0.027(8)
C1E_12 0.163(14) 0.167(15) 0.201(18) 0.013(14) 0.016(13) -0.047(11)
C34E_12 0.137(13) 0.089(11) 0.107(13) 0.004(10) 0.008(10) -0.033(9)
C1F_12 0.169(14) 0.172(15) 0.208(18) 0.016(15) 0.023(12) -0.046(11)
C34F_12 0.141(13) 0.085(10) 0.095(13) 0.000(9) 0.001(11) -0.031(8)
C1G_12 0.163(13) 0.159(14) 0.193(17) 0.006(13) 0.023(11) -0.042(10)
C34G_12 0.132(12) 0.075(9) 0.063(11) -0.004(8) 0.003(9) -0.027(7)
N1_13 0.162(12) 0.102(10) 0.068(10) 0.016(7) 0.001(9) -0.036(9)
C2_13 0.161(12) 0.103(10) 0.073(10) 0.014(8) 0.010(9) -0.028(8)
C3_13 0.154(12) 0.108(11) 0.083(11) 0.027(9) 0.019(9) -0.024(9)
C4_13 0.153(12) 0.109(11) 0.091(11) 0.029(9) 0.017(9) -0.022(9)
C5_13 0.152(11) 0.103(9) 0.083(10) 0.018(8) 0.011(8) -0.027(8)
C6_13 0.157(12) 0.107(11) 0.071(11) 0.011(9) 0.006(9) -0.024(9)
C7_13 0.155(12) 0.101(11) 0.071(11) 0.013(8) 0.009(9) -0.027(9)
N8_13 0.141(10) 0.102(8) 0.089(9) 0.024(7) 0.003(7) -0.037(7)
C9_13 0.157(12) 0.106(9) 0.100(10) 0.027(8) -0.008(9) -0.045(8)
C10_13 0.147(11) 0.110(9) 0.104(10) 0.031(7) -0.008(8) -0.044(8)
C11_13 0.145(12) 0.105(10) 0.105(11) 0.027(8) -0.009(9) -0.043(9)
C12_13 0.127(12) 0.099(10) 0.087(11) 0.022(8) 0.003(9) -0.035(8)
C13_13 0.121(11) 0.097(9) 0.093(10) 0.021(7) 0.004(8) -0.027(7)
C14_13 0.134(11) 0.100(9) 0.093(10) 0.022(7) 0.004(8) -0.027(8)
N15_13 0.132(10) 0.099(8) 0.090(9) 0.018(7) 0.008(7) -0.025(7)
C16_13 0.139(11) 0.113(9) 0.101(10) 0.027(8) 0.001(8) -0.036(8)
C17_13 0.138(11) 0.112(9) 0.116(10) 0.031(7) -0.009(8) -0.041(8)
C18_13 0.142(12) 0.115(11) 0.122(11) 0.034(9) -0.014(9) -0.040(9)
C19_13 0.141(13) 0.113(10) 0.125(12) 0.033(8) -0.008(10) -0.042(9)
C20_13 0.135(11) 0.110(9) 0.112(10) 0.029(7) -0.009(8) -0.039(8)
C21_13 0.140(12) 0.102(9) 0.104(10) 0.021(8) -0.001(8) -0.034(8)
C22_13 0.141(11) 0.110(9) 0.110(10) 0.030(7) -0.008(8) -0.040(7)
C23_13 0.131(11) 0.107(9) 0.104(10) 0.028(7) -0.003(8) -0.036(7)
O24_13 0.181(14) 0.113(10) 0.123(13) 0.032(9) -0.019(10) -0.060(10)
O25_13 0.193(14) 0.103(11) 0.122(11) 0.035(9) -0.040(10) -0.036(10)
O26_13 0.155(13) 0.125(10) 0.096(11) 0.022(9) 0.009(9) -0.049(9)
O27_13 0.164(13) 0.101(11) 0.124(11) 0.024(9) -0.023(9) -0.024(9)
C28_13 0.127(10) 0.101(9) 0.086(10) 0.014(7) 0.014(8) -0.018(7)
C29_13 0.125(11) 0.105(11) 0.083(11) 0.011(9) 0.013(9) -0.012(8)
C30_13 0.123(11) 0.097(11) 0.081(11) 0.006(8) 0.007(8) -0.017(8)
C31_13 0.129(11) 0.096(10) 0.079(10) 0.005(8) 0.008(8) -0.012(8)
C32_13 0.124(11) 0.084(10) 0.069(11) 0.003(8) 0.008(9) -0.020(8)
C33_13 0.122(11) 0.092(10) 0.081(11) 0.011(8) 0.014(8) -0.015(8)
N34_13 0.130(11) 0.103(10) 0.086(10) 0.012(8) 0.009(9) -0.002(8)
C1A_13 0.162(14) 0.103(10) 0.080(11) 0.018(8) 0.000(10) -0.038(9)
C34A_13 0.131(13) 0.119(11) 0.086(10) 0.012(8) 0.011(9) -0.005(10)
C1B_13 0.192(14) 0.112(10) 0.083(10) 0.024(8) -0.008(10) -0.043(10)
C34B_13 0.137(13) 0.133(11) 0.102(10) 0.023(8) 0.001(9) -0.003(10)
N1C_13 0.222(16) 0.119(11) 0.083(10) 0.024(8) -0.009(10) -0.046(11)
N34C_13 0.123(12) 0.130(11) 0.103(11) 0.021(8) 0.001(9) -0.002(10)
C1D_13 0.237(17) 0.123(12) 0.092(11) 0.028(9) -0.012(11) -0.040(13)
C34D_13 0.159(15) 0.139(12) 0.111(13) 0.028(10) -0.007(12) 0.002(11)
C1E_13 0.238(18) 0.121(12) 0.097(12) 0.027(9) -0.008(12) -0.040(13)
C34E_13 0.190(16) 0.155(14) 0.117(13) 0.028(10) -0.010(12) 0.009(12)
C1F_13 0.221(17) 0.120(12) 0.098(12) 0.029(9) -0.006(13) -0.040(11)
C34F_13 0.199(17) 0.159(14) 0.116(13) 0.028(10) -0.011(11) 0.010(13)
C1G_13 0.189(16) 0.108(10) 0.085(11) 0.026(8) -0.001(11) -0.052(10)
C34G_13 0.171(16) 0.153(13) 0.110(11) 0.027(9) 0.002(10) -0.001(12)
N1_14 0.161(12) 0.072(9) 0.057(9) -0.002(7) 0.031(8) 0.008(8)
C2_14 0.156(11) 0.074(9) 0.059(9) -0.003(7) 0.029(8) 0.012(8)
C3_14 0.154(12) 0.077(11) 0.067(10) -0.010(8) 0.034(8) 0.011(8)
C4_14 0.158(11) 0.082(11) 0.068(10) -0.010(8) 0.036(8) 0.005(9)
C5_14 0.153(11) 0.071(9) 0.062(8) -0.005(7) 0.030(7) 0.011(8)
C6_14 0.153(11) 0.062(10) 0.051(9) 0.006(7) 0.027(8) 0.014(8)
C7_14 0.158(11) 0.073(10) 0.061(10) -0.004(8) 0.029(8) 0.007(9)
N8_14 0.138(10) 0.066(7) 0.056(7) -0.002(5) 0.033(6) 0.009(6)
C9_14 0.144(12) 0.078(8) 0.061(7) -0.004(6) 0.029(7) 0.021(8)
C10_14 0.145(12) 0.080(8) 0.060(7) -0.002(6) 0.022(7) 0.026(8)
C11_14 0.144(13) 0.080(9) 0.057(8) -0.006(6) 0.023(8) 0.026(9)
C12_14 0.126(12) 0.074(8) 0.055(8) -0.003(6) 0.027(8) 0.017(8)
C13_14 0.120(11) 0.071(8) 0.063(7) -0.002(6) 0.029(7) 0.013(7)
C14_14 0.131(12) 0.077(8) 0.065(8) -0.004(6) 0.032(8) 0.006(7)
N15_14 0.137(10) 0.077(7) 0.070(7) -0.008(6) 0.023(6) 0.010(7)
C16_14 0.140(12) 0.078(8) 0.070(8) -0.009(6) 0.020(7) 0.013(8)
C17_14 0.141(12) 0.079(8) 0.070(8) -0.005(6) 0.017(7) 0.016(7)
C18_14 0.163(14) 0.081(9) 0.073(8) -0.009(7) 0.006(8) 0.019(9)
C19_14 0.153(13) 0.073(9) 0.068(9) -0.006(7) 0.011(9) 0.020(8)
C20_14 0.143(12) 0.072(8) 0.066(7) -0.003(6) 0.018(7) 0.016(8)
C21_14 0.135(12) 0.069(8) 0.064(8) -0.003(6) 0.024(7) 0.011(7)
C22_14 0.122(11) 0.074(8) 0.063(7) -0.001(6) 0.025(7) 0.011(7)
C23_14 0.123(11) 0.074(8) 0.065(7) -0.002(6) 0.026(7) 0.010(7)
O24_14 0.151(12) 0.080(8) 0.085(10) 0.000(7) 0.047(8) 0.026(8)
O25_14 0.187(14) 0.099(10) 0.074(8) -0.005(7) 0.022(8) 0.026(9)
O26_14 0.248(18) 0.085(9) 0.079(10) -0.017(7) -0.015(10) 0.037(9)
O27_14 0.173(13) 0.072(9) 0.073(8) -0.002(7) 0.007(8) 0.008(8)
C28_14 0.147(11) 0.092(9) 0.077(9) -0.013(7) 0.016(7) 0.004(8)
C29_14 0.153(11) 0.107(12) 0.093(11) -0.029(9) 0.029(9) -0.005(9)
C30_14 0.151(12) 0.094(11) 0.088(11) -0.022(9) 0.028(8) -0.007(9)
C31_14 0.142(11) 0.084(10) 0.074(9) -0.012(7) 0.015(8) 0.003(8)
C32_14 0.139(11) 0.079(11) 0.068(10) -0.002(8) 0.009(8) 0.009(8)
C33_14 0.134(11) 0.078(10) 0.066(9) -0.005(8) 0.006(8) 0.014(8)
N34_14 0.131(11) 0.085(10) 0.075(9) -0.014(7) 0.014(8) 0.001(8)
C1A_14 0.185(14) 0.080(9) 0.060(10) -0.006(7) 0.024(9) 0.018(9)
C34A_14 0.142(13) 0.110(11) 0.071(10) -0.013(8) 0.014(9) 0.001(10)
C1B_14 0.201(14) 0.087(9) 0.057(9) -0.011(7) 0.026(9) 0.019(9)
C34B_14 0.183(14) 0.124(11) 0.078(10) -0.018(8) -0.003(9) -0.002(10)
N1C_14 0.210(14) 0.094(10) 0.052(9) -0.013(7) 0.026(9) 0.025(9)
N34C_14 0.190(15) 0.122(11) 0.079(11) -0.020(8) -0.020(10) -0.011(10)
C1D_14 0.208(16) 0.097(11) 0.053(10) -0.014(8) 0.026(10) 0.019(11)
C34D_14 0.197(16) 0.131(12) 0.083(12) -0.024(9) -0.020(11) -0.007(11)
C1E_14 0.218(16) 0.101(11) 0.057(11) -0.015(9) 0.027(10) 0.023(11)
C34E_14 0.205(17) 0.144(13) 0.086(12) -0.022(10) -0.021(11) -0.002(13)
C1F_14 0.210(16) 0.095(11) 0.057(11) -0.013(8) 0.031(10) 0.024(10)
C34F_14 0.219(17) 0.145(13) 0.086(11) -0.020(10) -0.012(11) 0.001(13)
C1G_14 0.208(15) 0.088(10) 0.053(10) -0.005(8) 0.035(10) 0.020(9)
C34G_14 0.213(16) 0.138(13) 0.082(10) -0.015(9) -0.008(10) 0.000(12)
N1_15 0.162(11) 0.093(10) 0.061(9) 0.000(8) 0.007(8) 0.032(8)
C2_15 0.167(11) 0.091(10) 0.070(10) 0.001(8) 0.010(8) 0.034(8)
C3_15 0.179(12) 0.109(12) 0.075(10) -0.015(9) 0.000(8) 0.047(9)
C4_15 0.182(12) 0.102(11) 0.071(10) -0.015(9) -0.003(8) 0.047(9)
C5_15 0.166(10) 0.080(9) 0.060(9) -0.002(8) 0.010(7) 0.027(7)
C6_15 0.169(11) 0.078(11) 0.060(10) 0.005(8) 0.011(8) 0.027(8)
C7_15 0.170(12) 0.087(11) 0.068(10) 0.004(8) 0.011(8) 0.031(9)
N8_15 0.163(9) 0.076(7) 0.058(9) 0.002(6) 0.015(7) 0.021(6)
C9_15 0.165(9) 0.076(8) 0.078(11) 0.010(8) 0.022(8) 0.021(7)
C10_15 0.159(9) 0.072(7) 0.063(10) 0.008(7) 0.020(8) 0.019(6)
C11_15 0.168(10) 0.079(9) 0.104(13) 0.015(9) 0.036(9) 0.022(7)
C12_15 0.164(11) 0.080(9) 0.103(13) 0.017(8) 0.037(9) 0.022(7)
C13_15 0.150(9) 0.079(8) 0.081(11) 0.012(7) 0.026(8) 0.016(6)
C14_15 0.148(10) 0.083(8) 0.096(12) 0.015(7) 0.023(8) 0.018(7)
N15_15 0.131(8) 0.082(7) 0.070(9) 0.010(7) 0.016(7) 0.021(6)
C16_15 0.133(9) 0.080(8) 0.060(11) 0.004(7) 0.010(7) 0.019(6)
C17_15 0.136(9) 0.073(8) 0.052(10) 0.007(7) 0.010(7) 0.018(6)
C18_15 0.140(10) 0.071(9) 0.072(12) 0.008(8) 0.016(8) 0.015(7)
C19_15 0.140(10) 0.074(8) 0.064(11) 0.002(8) 0.014(9) 0.019(7)
C20_15 0.146(9) 0.075(8) 0.042(9) 0.004(7) 0.008(7) 0.019(6)
C21_15 0.155(10) 0.076(8) 0.041(10) 0.003(7) 0.009(8) 0.023(6)
C22_15 0.144(9) 0.072(7) 0.039(9) 0.006(7) 0.007(7) 0.019(6)
C23_15 0.142(9) 0.072(7) 0.055(10) 0.009(7) 0.012(7) 0.016(6)
O24_15 0.183(13) 0.071(8) 0.101(12) 0.014(8) 0.030(10) 0.018(7)
O25_15 0.159(10) 0.098(10) 0.148(15) 0.021(10) 0.044(9) 0.018(8)
O26_15 0.139(11) 0.080(8) 0.087(11) 0.007(7) 0.017(8) 0.018(7)
O27_15 0.157(10) 0.085(9) 0.067(10) 0.002(8) 0.018(8) 0.024(7)
C28_15 0.125(9) 0.083(9) 0.074(9) 0.012(7) 0.012(7) 0.021(7)
C29_15 0.118(10) 0.083(11) 0.077(10) 0.009(8) 0.010(8) 0.015(8)
C30_15 0.107(10) 0.071(10) 0.074(9) 0.016(8) 0.017(8) 0.002(8)
C31_15 0.109(10) 0.077(9) 0.084(9) 0.011(8) 0.017(7) 0.004(7)
C32_15 0.107(10) 0.081(10) 0.081(10) 0.009(8) 0.018(8) 0.008(8)
C33_15 0.116(11) 0.089(11) 0.082(10) 0.005(8) 0.014(8) 0.017(8)
N34_15 0.092(9) 0.073(9) 0.078(10) 0.005(8) 0.010(7) 0.000(6)
C1A_15 0.162(12) 0.103(11) 0.063(11) 0.008(9) 0.008(9) 0.031(8)
C34A_15 0.106(11) 0.078(9) 0.120(13) -0.002(9) 0.013(9) 0.001(7)
C1B_15 0.155(11) 0.109(11) 0.050(10) 0.005(9) 0.003(8) 0.031(8)
C34B_15 0.112(11) 0.089(9) 0.142(13) -0.014(9) 0.016(10) 0.007(7)
N1C_15 0.137(11) 0.107(10) 0.048(10) 0.004(8) 0.001(8) 0.038(8)
N34C_15 0.109(11) 0.101(11) 0.134(13) -0.003(10) 0.010(9) 0.007(7)
C1D_15 0.157(13) 0.124(12) 0.083(13) -0.012(10) 0.013(10) 0.034(9)
C34D_15 0.116(11) 0.108(12) 0.144(15) -0.001(11) 0.018(10) 0.010(8)
C1E_15 0.152(13) 0.128(13) 0.072(12) -0.004(11) 0.014(10) 0.032(9)
C34E_15 0.118(12) 0.109(12) 0.165(16) -0.009(12) 0.021(12) 0.010(9)
C1F_15 0.162(12) 0.133(13) 0.082(13) -0.002(11) 0.008(10) 0.030(10)
C34F_15 0.118(12) 0.102(11) 0.184(17) -0.022(11) 0.025(12) 0.009(9)
C1G_15 0.153(12) 0.122(12) 0.057(12) 0.008(10) 0.002(9) 0.030(9)
C34G_15 0.117(12) 0.092(10) 0.175(16) -0.020(10) 0.022(11) 0.004(8)
P1_50 0.273(15) 0.369(17) 0.238(15) 0.089(13) 0.010(9) 0.028(12)
F2_50 0.283(17) 0.38(2) 0.238(18) 0.083(16) 0.016(12) 0.023(15)
F3_50 0.31(2) 0.41(2) 0.251(18) 0.071(16) 0.008(13) 0.017(16)
F4_50 0.284(17) 0.40(2) 0.249(18) 0.074(16) 0.026(12) 0.025(15)
F5_50 0.287(19) 0.38(2) 0.253(18) 0.068(15) 0.019(13) 0.025(15)
F6_50 0.278(19) 0.366(19) 0.222(19) 0.084(15) 0.018(13) 0.018(14)
F7_50 0.32(2) 0.394(19) 0.28(2) 0.090(15) 0.012(15) 0.043(15)
P1_51 0.195(10) 0.146(8) 0.372(15) 0.062(9) 0.023(8) -0.049(8)
F2_51 0.219(14) 0.150(13) 0.353(17) 0.058(11) 0.026(11) -0.061(11)
F3_51 0.205(13) 0.183(14) 0.41(2) 0.060(13) 0.002(11) -0.049(10)
F4_51 0.217(15) 0.179(14) 0.387(18) 0.053(11) 0.048(11) -0.057(11)
F5_51 0.186(12) 0.161(13) 0.342(18) 0.070(12) 0.033(11) -0.039(9)
F6_51 0.199(14) 0.147(10) 0.38(2) 0.051(10) 0.015(12) -0.032(9)
F7_51 0.201(14) 0.153(10) 0.368(19) 0.054(10) 0.023(12) -0.061(9)
P1_52 0.55(2) 0.178(10) 0.143(10) -0.029(8) 0.051(10) 0.068(12)
F2_52 0.55(2) 0.209(16) 0.160(13) -0.026(11) 0.041(13) 0.067(15)
F3_52 0.55(2) 0.211(16) 0.154(15) -0.039(12) 0.044(13) 0.058(14)
F4_52 0.56(3) 0.215(16) 0.164(13) -0.046(11) 0.050(13) 0.064(15)
F5_52 0.56(2) 0.219(17) 0.196(17) -0.022(13) 0.062(13) 0.071(15)
F6_52 0.58(3) 0.210(13) 0.205(17) -0.008(11) 0.052(16) 0.073(14)
F7_52 0.54(3) 0.183(12) 0.155(14) -0.028(10) 0.032(14) 0.062(14)
S1_60 0.260(9) 0.143(7) 0.141(7) -0.034(6) -0.023(6) -0.009(6)
O2_60 0.256(18) 0.144(9) 0.149(15) -0.041(9) 0.010(13) -0.009(10)
O3_60 0.260(15) 0.149(14) 0.133(12) -0.020(10) -0.022(10) -0.025(11)
C4_60 0.283(13) 0.199(13) 0.154(10) -0.027(9) -0.013(9) -0.027(10)
F5_60 0.285(17) 0.202(15) 0.164(12) -0.028(11) -0.031(11) -0.012(12)
F6_60 0.285(14) 0.256(18) 0.224(17) -0.014(14) -0.020(11) -0.018(12)
F7_60 0.36(2) 0.204(13) 0.188(16) -0.024(10) 0.004(14) -0.034(11)
N8_60 0.257(10) 0.145(11) 0.158(12) -0.045(9) -0.031(8) -0.009(8)
S9_60 0.262(10) 0.151(8) 0.154(8) -0.037(6) -0.029(6) -0.011(6)
O10_60 0.268(18) 0.142(13) 0.150(13) -0.033(10) -0.012(11) -0.027(11)
O11_60 0.274(15) 0.169(14) 0.166(16) -0.041(11) -0.039(12) 0.005(10)
C12_60 0.281(13) 0.183(12) 0.173(12) -0.022(9) -0.016(10) -0.017(9)
F13_60 0.273(16) 0.191(13) 0.217(16) -0.005(11) -0.016(12) -0.025(11)
F14_60 0.283(14) 0.207(16) 0.196(16) -0.045(12) -0.014(11) -0.012(11)
F15_60 0.323(19) 0.196(14) 0.184(13) -0.026(11) -0.012(11) -0.016(13)
loop_
_atom_type_symbol
_atom_type_description
_atom_type_scat_dispersion_real
_atom_type_scat_dispersion_imag
_atom_type_scat_source
C C 0.0181 0.0091 'International Tables Vol C Tables 4.2.6.8 and 6.1.1.4'
H H 0.0000 0.0000 'International Tables Vol C Tables 4.2.6.8 and 6.1.1.4'
N N 0.0311 0.0180 'International Tables Vol C Tables 4.2.6.8 and 6.1.1.4'
Zn Zn -1.5491 0.6778 'International Tables Vol C Tables 4.2.6.8 and 6.1.1.4'
P P 0.2955 0.4335 'International Tables Vol C Tables 4.2.6.8 and 6.1.1.4'
F F 0.0727 0.0534 'International Tables Vol C Tables 4.2.6.8 and 6.1.1.4'
O O 0.0492 0.0322 'International Tables Vol C Tables 4.2.6.8 and 6.1.1.4'
S S 0.3331 0.5567 'International Tables Vol C Tables 4.2.6.8 and 6.1.1.4'
loop_
_exptl_crystal_face_index_h
_exptl_crystal_face_index_k
_exptl_crystal_face_index_l
_exptl_crystal_face_perp_dist
_exptl_oxdiff_crystal_face_indexfrac_h
_exptl_oxdiff_crystal_face_indexfrac_k
_exptl_oxdiff_crystal_face_indexfrac_l
_exptl_oxdiff_crystal_face_x
_exptl_oxdiff_crystal_face_y
_exptl_oxdiff_crystal_face_z
1 0 -19 0.0760 0.9999 -0.0001 -18.9997 0.2418 0.9617 0.1265
-1 -1 19 0.0939 -0.9999 -0.9999 18.9997 -0.2132 -0.9709 -0.1103
-15 14 -5 0.1406 -15.0002 13.9997 -4.9998 0.0883 0.3482 -0.9579
-16 11 2 0.1685 -16.0001 10.9998 2.0001 0.1025 -0.0351 -0.9873
3 29 1 0.1912 2.9999 28.9999 0.9995 -0.9265 0.2227 -0.3259
1 -29 -1 0.1310 1.0001 -28.9998 -0.9995 0.8152 -0.2139 0.5260
-9 -25 0 0.1262 -9.0000 -25.0000 0.0006 0.9649 -0.2496 -0.0432
15 -16 -2 0.2184 15.0001 -15.9998 -2.0000 0.0682 -0.0131 1.0186
16 13 -1 0.2305 16.0001 13.0001 -1.0005 -0.8026 0.2052 0.5926
10 -10 14 0.1849 10.0002 -9.9998 13.9997 -0.1912 -0.7769 0.6065
12 -10 -13 0.1646 12.0000 -9.9999 -12.9999 0.1363 0.5910 0.8152
loop_
_geom_angle_atom_site_label_1
_geom_angle_atom_site_label_2
_geom_angle_atom_site_label_3
_geom_angle
N34C_12 Zn1 N1C_11 97.7(6)
N34C_12 Zn1 N1_11 96.7(6)
N1C_11 Zn1 N1_11 79.2(6)
N34C_12 Zn1 N34C_14 92.2(7)
N1C_11 Zn1 N34C_14 93.8(7)
N1_11 Zn1 N34C_14 169.3(7)
N34C_12 Zn1 N34_14 162.4(6)
N1C_11 Zn1 N34_14 96.2(6)
N1_11 Zn1 N34_14 96.4(6)
N34C_14 Zn1 N34_14 76.2(6)
N34C_12 Zn1 N34_12 76.5(6)
N1C_11 Zn1 N34_12 171.3(6)
N1_11 Zn1 N34_12 94.9(5)
N34C_14 Zn1 N34_12 93.0(6)
N34_14 Zn1 N34_12 90.8(6)
N34C_15 Zn2 N34C_13 95.4(7)
N34C_15 Zn2 N34C_11 95.7(7)
N34C_13 Zn2 N34C_11 96.7(7)
N34C_15 Zn2 N34_13 167.1(7)
N34C_13 Zn2 N34_13 77.2(7)
N34C_11 Zn2 N34_13 95.7(7)
N34C_15 Zn2 N34_15 77.5(6)
N34C_13 Zn2 N34_15 91.8(6)
N34C_11 Zn2 N34_15 169.6(6)
N34_13 Zn2 N34_15 91.9(6)
N34C_15 Zn2 N34_11 91.7(7)
N34C_13 Zn2 N34_11 172.2(7)
N34C_11 Zn2 N34_11 79.3(6)
N34_13 Zn2 N34_11 96.4(6)
N34_15 Zn2 N34_11 92.9(6)
N1C_14 Zn3 N34C_10 99.5(8)
N1C_14 Zn3 N1_15 159.8(7)
N34C_10 Zn3 N1_15 95.2(7)
N1C_14 Zn3 N1C_15 87.8(7)
N34C_10 Zn3 N1C_15 97.4(7)
N1_15 Zn3 N1C_15 76.6(6)
N1C_14 Zn3 N1_14 75.4(6)
N34C_10 Zn3 N1_14 171.5(7)
N1_15 Zn3 N1_14 91.4(6)
N1C_15 Zn3 N1_14 89.3(6)
N1C_14 Zn3 N34_10 100.7(7)
N34C_10 Zn3 N34_10 76.6(7)
N1_15 Zn3 N34_10 96.1(6)
N1C_15 Zn3 N34_10 170.2(6)
N1_14 Zn3 N34_10 97.5(6)
N1C_10 Zn4 N1C_13 99.3(9)
N1C_10 Zn4 N1C_12 92.6(8)
N1C_13 Zn4 N1C_12 94.7(8)
N1C_10 Zn4 N1_12 90.6(9)
N1C_13 Zn4 N1_12 167.0(8)
N1C_12 Zn4 N1_12 76.3(8)
N1C_10 Zn4 N1_13 172.5(8)
N1C_13 Zn4 N1_13 77.0(7)
N1C_12 Zn4 N1_13 94.2(7)
N1_12 Zn4 N1_13 94.1(7)
N1C_10 Zn4 N1_10 81.7(8)
N1C_13 Zn4 N1_10 95.3(7)
N1C_12 Zn4 N1_10 169.2(7)
N1_12 Zn4 N1_10 94.5(7)
N1_13 Zn4 N1_10 92.0(6)
C1A_10 N1_10 C2_10 119.2(17)
C1A_10 N1_10 Zn4 106.4(13)
C2_10 N1_10 Zn4 134.4(13)
C3_10 C2_10 C7_10 121.8(14)
C3_10 C2_10 N1_10 117.4(14)
C7_10 C2_10 N1_10 120.6(15)
C4_10 C3_10 C2_10 119.0(16)
C4_10 C3_10 H3_10 120.5
C2_10 C3_10 H3_10 120.5
C3_10 C4_10 C5_10 119.5(16)
C3_10 C4_10 H4_10 120.2
C5_10 C4_10 H4_10 120.2
C6_10 C5_10 C4_10 121.1(14)
C6_10 C5_10 N8_10 120.7(14)
C4_10 C5_10 N8_10 118.1(14)
C5_10 C6_10 C7_10 119.7(16)
C5_10 C6_10 H6_10 120.2
C7_10 C6_10 H6_10 120.2
C6_10 C7_10 C2_10 118.6(16)
C6_10 C7_10 H7_10 120.7
C2_10 C7_10 H7_10 120.7
C9_10 N8_10 C21_10 126.4(13)
C9_10 N8_10 C5_10 117.8(12)
C21_10 N8_10 C5_10 115.8(12)
O24_10 C9_10 N8_10 121.0(15)
O24_10 C9_10 C10_10 121.5(15)
N8_10 C9_10 C10_10 117.5(13)
C11_10 C10_10 C22_10 120.9(13)
C11_10 C10_10 C9_10 121.0(13)
C22_10 C10_10 C9_10 118.1(13)
C10_10 C11_10 C12_10 119.9(16)
C10_10 C11_10 H11_10 120.1
C12_10 C11_10 H11_10 120.1
C13_10 C12_10 C11_10 120.7(16)
C13_10 C12_10 H12_10 119.7
C11_10 C12_10 H12_10 119.7
C12_10 C13_10 C23_10 120.5(13)
C12_10 C13_10 C14_10 120.0(13)
C23_10 C13_10 C14_10 119.5(14)
O25_10 C14_10 N15_10 118.3(15)
O25_10 C14_10 C13_10 124.1(15)
N15_10 C14_10 C13_10 117.6(13)
C16_10 N15_10 C14_10 125.0(13)
C16_10 N15_10 C28_10 117.1(12)
C14_10 N15_10 C28_10 117.9(12)
O26_10 C16_10 N15_10 119.4(14)
O26_10 C16_10 C17_10 123.9(14)
N15_10 C16_10 C17_10 116.6(13)
C18_10 C17_10 C23_10 119.7(13)
C18_10 C17_10 C16_10 119.9(13)
C23_10 C17_10 C16_10 120.4(13)
C17_10 C18_10 C19_10 120.7(16)
C17_10 C18_10 H18_10 119.7
C19_10 C18_10 H18_10 119.7
C20_10 C19_10 C18_10 120.9(16)
C20_10 C19_10 H19_10 119.5
C18_10 C19_10 H19_10 119.5
C19_10 C20_10 C22_10 119.9(13)
C19_10 C20_10 C21_10 119.8(13)
C22_10 C20_10 C21_10 120.2(13)
O27_10 C21_10 N8_10 119.1(14)
O27_10 C21_10 C20_10 125.6(15)
N8_10 C21_10 C20_10 115.3(13)
C23_10 C22_10 C20_10 118.7(13)
C23_10 C22_10 C10_10 118.8(13)
C20_10 C22_10 C10_10 122.5(13)
C22_10 C23_10 C17_10 120.0(13)
C22_10 C23_10 C13_10 119.1(13)
C17_10 C23_10 C13_10 120.9(13)
C29_10 C28_10 C33_10 122.3(14)
C29_10 C28_10 N15_10 118.9(14)
C33_10 C28_10 N15_10 118.8(14)
C30_10 C29_10 C28_10 118.6(16)
C30_10 C29_10 H29_10 120.7
C28_10 C29_10 H29_10 120.7
C29_10 C30_10 C31_10 119.4(16)
C29_10 C30_10 H30_10 120.3
C31_10 C30_10 H30_10 120.3
C32_10 C31_10 C30_10 121.9(14)
C32_10 C31_10 N34_10 119.8(14)
C30_10 C31_10 N34_10 118.3(14)
C33_10 C32_10 C31_10 118.3(16)
C33_10 C32_10 H32_10 120.9
C31_10 C32_10 H32_10 120.9
C32_10 C33_10 C28_10 119.6(16)
C32_10 C33_10 H33_10 120.2
C28_10 C33_10 H33_10 120.2
C34A_10 N34_10 C31_10 121.0(16)
C34A_10 N34_10 Zn3 111.3(12)
C31_10 N34_10 Zn3 127.6(12)
N1_10 C1A_10 C1B_10 121.8(19)
N1_10 C1A_10 H1A_10 119.1
C1B_10 C1A_10 H1A_10 119.1
N34_10 C34A_10 C34B_10 119.7(17)
N34_10 C34A_10 H34A_10 120.1
C34B_10 C34A_10 H34A_10 120.1
N1C_10 C1B_10 C1G_10 123.8(16)
N1C_10 C1B_10 C1A_10 119.0(17)
C1G_10 C1B_10 C1A_10 117.1(17)
N34C_10 C34B_10 C34G_10 121.6(15)
N34C_10 C34B_10 C34A_10 117.9(16)
C34G_10 C34B_10 C34A_10 120.5(16)
C1D_10 N1C_10 C1B_10 117.7(18)
C1D_10 N1C_10 Zn4 131.3(18)
C1B_10 N1C_10 Zn4 111.0(14)
C34B_10 N34C_10 C34D_10 119.2(16)
C34B_10 N34C_10 Zn3 113.9(13)
C34D_10 N34C_10 Zn3 126.2(15)
N1C_10 C1D_10 C1E_10 123(2)
N1C_10 C1D_10 H1D_10 118.7
C1E_10 C1D_10 H1D_10 118.7
N34C_10 C34D_10 C34E_10 121.5(18)
N34C_10 C34D_10 H34D_10 119.2
C34E_10 C34D_10 H34D_10 119.2
C1F_10 C1E_10 C1D_10 118(2)
C1F_10 C1E_10 H1E_10 121.2
C1D_10 C1E_10 H1E_10 121.2
C34F_10 C34E_10 C34D_10 118.8(19)
C34F_10 C34E_10 H34E_10 120.6
C34D_10 C34E_10 H34E_10 120.6
C1E_10 C1F_10 C1G_10 122(2)
C1E_10 C1F_10 H1F_10 119.1
C1G_10 C1F_10 H1F_10 119.1
C34E_10 C34F_10 C34G_10 120.1(19)
C34E_10 C34F_10 H34F_10 120.0
C34G_10 C34F_10 H34F_10 120.0
C1F_10 C1G_10 C1B_10 116.3(18)
C1F_10 C1G_10 H1G_10 121.8
C1B_10 C1G_10 H1G_10 121.8
C34F_10 C34G_10 C34B_10 118.7(17)
C34F_10 C34G_10 H34G_10 120.6
C34B_10 C34G_10 H34G_10 120.6
C1A_11 N1_11 C2_11 120.7(15)
C1A_11 N1_11 Zn1 109.6(12)
C2_11 N1_11 Zn1 129.6(12)
C7_11 C2_11 C3_11 119.6(14)
C7_11 C2_11 N1_11 119.4(14)
C3_11 C2_11 N1_11 121.0(14)
C4_11 C3_11 C2_11 121.5(15)
C4_11 C3_11 H3_11 119.2
C2_11 C3_11 H3_11 119.2
C5_11 C4_11 C3_11 118.4(15)
C5_11 C4_11 H4_11 120.8
C3_11 C4_11 H4_11 120.8
C4_11 C5_11 C6_11 120.9(13)
C4_11 C5_11 N8_11 118.4(13)
C6_11 C5_11 N8_11 120.6(13)
C7_11 C6_11 C5_11 119.6(15)
C7_11 C6_11 H6_11 120.2
C5_11 C6_11 H6_11 120.2
C2_11 C7_11 C6_11 119.8(15)
C2_11 C7_11 H7_11 120.1
C6_11 C7_11 H7_11 120.1
C21_11 N8_11 C9_11 126.2(12)
C21_11 N8_11 C5_11 114.8(11)
C9_11 N8_11 C5_11 118.8(12)
O24_11 C9_11 N8_11 120.8(14)
O24_11 C9_11 C10_11 124.1(14)
N8_11 C9_11 C10_11 115.1(12)
C11_11 C10_11 C22_11 120.3(13)
C11_11 C10_11 C9_11 119.4(12)
C22_11 C10_11 C9_11 120.3(12)
C12_11 C11_11 C10_11 118.8(15)
C12_11 C11_11 H11_11 120.6
C10_11 C11_11 H11_11 120.6
C13_11 C12_11 C11_11 122.5(15)
C13_11 C12_11 H12_11 118.8
C11_11 C12_11 H12_11 118.8
C12_11 C13_11 C23_11 120.2(13)
C12_11 C13_11 C14_11 120.9(12)
C23_11 C13_11 C14_11 118.9(12)
O25_11 C14_11 N15_11 120.9(13)
O25_11 C14_11 C13_11 122.2(13)
N15_11 C14_11 C13_11 116.9(12)
C16_11 N15_11 C14_11 126.4(12)
C16_11 N15_11 C28_11 117.4(11)
C14_11 N15_11 C28_11 116.2(11)
O26_11 C16_11 N15_11 120.0(13)
O26_11 C16_11 C17_11 123.9(14)
N15_11 C16_11 C17_11 116.0(12)
C18_11 C17_11 C23_11 119.9(13)
C18_11 C17_11 C16_11 120.6(13)
C23_11 C17_11 C16_11 119.5(12)
C17_11 C18_11 C19_11 121.6(15)
C17_11 C18_11 H18_11 119.2
C19_11 C18_11 H18_11 119.2
C20_11 C19_11 C18_11 118.8(15)
C20_11 C19_11 H19_11 120.6
C18_11 C19_11 H19_11 120.6
C19_11 C20_11 C22_11 122.5(13)
C19_11 C20_11 C21_11 119.3(13)
C22_11 C20_11 C21_11 118.1(12)
O27_11 C21_11 N8_11 119.3(13)
O27_11 C21_11 C20_11 123.2(13)
N8_11 C21_11 C20_11 117.6(12)
C20_11 C22_11 C23_11 117.3(12)
C20_11 C22_11 C10_11 122.4(13)
C23_11 C22_11 C10_11 120.2(12)
C13_11 C23_11 C22_11 117.9(12)
C13_11 C23_11 C17_11 122.3(13)
C22_11 C23_11 C17_11 119.8(12)
C29_11 C28_11 C33_11 120.8(14)
C29_11 C28_11 N15_11 118.7(14)
C33_11 C28_11 N15_11 120.4(14)
C28_11 C29_11 C30_11 118.4(15)
C28_11 C29_11 H29_11 120.8
C30_11 C29_11 H29_11 120.8
C29_11 C30_11 C31_11 122.6(16)
C29_11 C30_11 H30_11 118.7
C31_11 C30_11 H30_11 118.7
C30_11 C31_11 C32_11 117.1(14)
C30_11 C31_11 N34_11 120.3(14)
C32_11 C31_11 N34_11 122.5(15)
C33_11 C32_11 C31_11 122.1(16)
C33_11 C32_11 H32_11 119.0
C31_11 C32_11 H32_11 119.0
C32_11 C33_11 C28_11 118.9(16)
C32_11 C33_11 H33_11 120.6
C28_11 C33_11 H33_11 120.6
C34A_11 N34_11 C31_11 124.1(16)
C34A_11 N34_11 Zn2 107.9(13)
C31_11 N34_11 Zn2 128.0(12)
N1_11 C1A_11 C1B_11 123.3(17)
N1_11 C1A_11 H1A_11 118.4
C1B_11 C1A_11 H1A_11 118.4
N34_11 C34A_11 C34B_11 123.8(18)
N34_11 C34A_11 H34A_11 118.1
C34B_11 C34A_11 H34A_11 118.1
N1C_11 C1B_11 C1G_11 125.3(15)
N1C_11 C1B_11 C1A_11 116.6(15)
C1G_11 C1B_11 C1A_11 118.1(15)
N34C_11 C34B_11 C34G_11 120.6(15)
N34C_11 C34B_11 C34A_11 118.6(15)
C34G_11 C34B_11 C34A_11 120.8(15)
C1D_11 N1C_11 C1B_11 117.6(15)
C1D_11 N1C_11 Zn1 130.8(14)
C1B_11 N1C_11 Zn1 111.2(12)
C34D_11 N34C_11 C34B_11 122.4(15)
C34D_11 N34C_11 Zn2 127.2(14)
C34B_11 N34C_11 Zn2 110.3(12)
N1C_11 C1D_11 C1E_11 120.3(18)
N1C_11 C1D_11 H1D_11 119.9
C1E_11 C1D_11 H1D_11 119.9
N34C_11 C34D_11 C34E_11 119.4(17)
N34C_11 C34D_11 H34D_11 120.3
C34E_11 C34D_11 H34D_11 120.3
C1F_11 C1E_11 C1D_11 122.2(19)
C1F_11 C1E_11 H1E_11 118.9
C1D_11 C1E_11 H1E_11 118.9
C34F_11 C34E_11 C34D_11 118.8(17)
C34F_11 C34E_11 H34E_11 120.6
C34D_11 C34E_11 H34E_11 120.6
C1E_11 C1F_11 C1G_11 118.5(18)
C1E_11 C1F_11 H1F_11 120.7
C1G_11 C1F_11 H1F_11 120.7
C34E_11 C34F_11 C34G_11 121.6(18)
C34E_11 C34F_11 H34F_11 119.2
C34G_11 C34F_11 H34F_11 119.2
C1F_11 C1G_11 C1B_11 116.1(17)
C1F_11 C1G_11 H1G_11 121.9
C1B_11 C1G_11 H1G_11 121.9
C34F_11 C34G_11 C34B_11 117.2(17)
C34F_11 C34G_11 H34G_11 121.4
C34B_11 C34G_11 H34G_11 121.4
C1A_12 N1_12 C2_12 119.6(17)
C1A_12 N1_12 Zn4 114.0(13)
C2_12 N1_12 Zn4 126.1(14)
C3_12 C2_12 C7_12 119.7(14)
C3_12 C2_12 N1_12 118.0(15)
C7_12 C2_12 N1_12 122.3(15)
C4_12 C3_12 C2_12 120.9(16)
C4_12 C3_12 H3_12 119.6
C2_12 C3_12 H3_12 119.6
C3_12 C4_12 C5_12 119.2(16)
C3_12 C4_12 H4_12 120.4
C5_12 C4_12 H4_12 120.4
C6_12 C5_12 C4_12 120.1(14)
C6_12 C5_12 N8_12 122.2(14)
C4_12 C5_12 N8_12 117.7(14)
C5_12 C6_12 C7_12 121.1(16)
C5_12 C6_12 H6_12 119.5
C7_12 C6_12 H6_12 119.5
C6_12 C7_12 C2_12 119.0(16)
C6_12 C7_12 H7_12 120.5
C2_12 C7_12 H7_12 120.5
C21_12 N8_12 C9_12 126.2(12)
C21_12 N8_12 C5_12 117.9(12)
C9_12 N8_12 C5_12 115.6(11)
O24_12 C9_12 N8_12 120.1(13)
O24_12 C9_12 C10_12 123.3(14)
N8_12 C9_12 C10_12 116.4(12)
C11_12 C10_12 C22_12 120.4(12)
C11_12 C10_12 C9_12 119.9(12)
C22_12 C10_12 C9_12 119.6(12)
C10_12 C11_12 C12_12 121.5(15)
C10_12 C11_12 H11_12 119.3
C12_12 C11_12 H11_12 119.3
C13_12 C12_12 C11_12 119.8(15)
C13_12 C12_12 H12_12 120.1
C11_12 C12_12 H12_12 120.1
C12_12 C13_12 C23_12 120.9(12)
C12_12 C13_12 C14_12 120.1(12)
C23_12 C13_12 C14_12 119.0(12)
O25_12 C14_12 N15_12 118.6(12)
O25_12 C14_12 C13_12 124.5(13)
N15_12 C14_12 C13_12 116.9(12)
C14_12 N15_12 C16_12 126.2(11)
C14_12 N15_12 C28_12 116.9(11)
C16_12 N15_12 C28_12 116.5(11)
O26_12 C16_12 N15_12 120.0(13)
O26_12 C16_12 C17_12 124.6(13)
N15_12 C16_12 C17_12 115.4(12)
C18_12 C17_12 C23_12 120.5(12)
C18_12 C17_12 C16_12 119.3(12)
C23_12 C17_12 C16_12 120.2(12)
C17_12 C18_12 C19_12 120.3(15)
C17_12 C18_12 H18_12 119.8
C19_12 C18_12 H18_12 119.8
C20_12 C19_12 C18_12 122.0(15)
C20_12 C19_12 H19_12 119.0
C18_12 C19_12 H19_12 119.0
C19_12 C20_12 C22_12 118.6(12)
C19_12 C20_12 C21_12 121.8(12)
C22_12 C20_12 C21_12 119.5(12)
O27_12 C21_12 N8_12 120.0(13)
O27_12 C21_12 C20_12 123.7(13)
N8_12 C21_12 C20_12 116.3(12)
C10_12 C22_12 C20_12 121.8(12)
C10_12 C22_12 C23_12 118.4(12)
C20_12 C22_12 C23_12 119.8(12)
C17_12 C23_12 C13_12 122.2(12)
C17_12 C23_12 C22_12 118.8(12)
C13_12 C23_12 C22_12 119.0(11)
C29_12 C28_12 C33_12 121.1(13)
C29_12 C28_12 N15_12 122.1(13)
C33_12 C28_12 N15_12 116.8(12)
C30_12 C29_12 C28_12 118.6(14)
C30_12 C29_12 H29_12 120.7
C28_12 C29_12 H29_12 120.7
C31_12 C30_12 C29_12 120.6(14)
C31_12 C30_12 H30_12 119.7
C29_12 C30_12 H30_12 119.7
C30_12 C31_12 C32_12 120.4(13)
C30_12 C31_12 N34_12 120.9(13)
C32_12 C31_12 N34_12 118.7(13)
C33_12 C32_12 C31_12 120.3(14)
C33_12 C32_12 H32_12 119.9
C31_12 C32_12 H32_12 119.9
C32_12 C33_12 C28_12 119.0(14)
C32_12 C33_12 H33_12 120.5
C28_12 C33_12 H33_12 120.5
C34A_12 N34_12 C31_12 120.1(14)
C34A_12 N34_12 Zn1 111.9(11)
C31_12 N34_12 Zn1 127.9(11)
N1_12 C1A_12 C1B_12 118.8(18)
N1_12 C1A_12 H1A_12 120.6
C1B_12 C1A_12 H1A_12 120.6
N34_12 C34A_12 C34B_12 119.4(15)
N34_12 C34A_12 H34A_12 120.3
C34B_12 C34A_12 H34A_12 120.3
N1C_12 C1B_12 C1G_12 124.6(16)
N1C_12 C1B_12 C1A_12 114.4(17)
C1G_12 C1B_12 C1A_12 121.0(17)
N34C_12 C34B_12 C34G_12 123.8(14)
N34C_12 C34B_12 C34A_12 115.1(14)
C34G_12 C34B_12 C34A_12 121.0(14)
C1D_12 N1C_12 C1B_12 115.7(17)
C1D_12 N1C_12 Zn4 129.0(17)
C1B_12 N1C_12 Zn4 114.7(13)
C34B_12 N34C_12 C34D_12 116.9(15)
C34B_12 N34C_12 Zn1 117.1(11)
C34D_12 N34C_12 Zn1 126.1(13)
N1C_12 C1D_12 C1E_12 125(2)
N1C_12 C1D_12 H1D_12 117.6
C1E_12 C1D_12 H1D_12 117.6
N34C_12 C34D_12 C34E_12 122.9(17)
N34C_12 C34D_12 H34D_12 118.5
C34E_12 C34D_12 H34D_12 118.5
C1D_12 C1E_12 C1F_12 118.0(19)
C1D_12 C1E_12 H1E_12 121.0
C1F_12 C1E_12 H1E_12 121.0
C34F_12 C34E_12 C34D_12 119.0(17)
C34F_12 C34E_12 H34E_12 120.5
C34D_12 C34E_12 H34E_12 120.5
C1G_12 C1F_12 C1E_12 119(2)
C1G_12 C1F_12 H1F_12 120.4
C1E_12 C1F_12 H1F_12 120.4
C34E_12 C34F_12 C34G_12 120.9(17)
C34E_12 C34F_12 H34F_12 119.6
C34G_12 C34F_12 H34F_12 119.6
C1F_12 C1G_12 C1B_12 117.7(18)
C1F_12 C1G_12 H1G_12 121.2
C1B_12 C1G_12 H1G_12 121.2
C34F_12 C34G_12 C34B_12 116.5(15)
C34F_12 C34G_12 H34G_12 121.8
C34B_12 C34G_12 H34G_12 121.8
C1A_13 N1_13 C2_13 121.6(15)
C1A_13 N1_13 Zn4 112.4(12)
C2_13 N1_13 Zn4 125.9(12)
C3_13 C2_13 C7_13 121.0(14)
C3_13 C2_13 N1_13 120.4(15)
C7_13 C2_13 N1_13 118.6(14)
C4_13 C3_13 C2_13 119.1(16)
C4_13 C3_13 H3_13 120.5
C2_13 C3_13 H3_13 120.5
C3_13 C4_13 C5_13 120.1(16)
C3_13 C4_13 H4_13 119.9
C5_13 C4_13 H4_13 119.9
C4_13 C5_13 C6_13 121.2(14)
C4_13 C5_13 N8_13 120.1(14)
C6_13 C5_13 N8_13 118.7(14)
C7_13 C6_13 C5_13 118.7(16)
C7_13 C6_13 H6_13 120.6
C5_13 C6_13 H6_13 120.6
C6_13 C7_13 C2_13 119.9(16)
C6_13 C7_13 H7_13 120.1
C2_13 C7_13 H7_13 120.1
C9_13 N8_13 C21_13 124.2(12)
C9_13 N8_13 C5_13 118.7(12)
C21_13 N8_13 C5_13 117.0(11)
O24_13 C9_13 N8_13 118.6(14)
O24_13 C9_13 C10_13 122.9(14)
N8_13 C9_13 C10_13 118.5(12)
C11_13 C10_13 C22_13 119.8(13)
C11_13 C10_13 C9_13 121.3(13)
C22_13 C10_13 C9_13 118.9(12)
C10_13 C11_13 C12_13 122.2(15)
C10_13 C11_13 H11_13 118.9
C12_13 C11_13 H11_13 118.9
C13_13 C12_13 C11_13 119.5(15)
C13_13 C12_13 H12_13 120.3
C11_13 C12_13 H12_13 120.3
C12_13 C13_13 C23_13 120.9(12)
C12_13 C13_13 C14_13 120.3(12)
C23_13 C13_13 C14_13 118.8(12)
O25_13 C14_13 N15_13 118.9(13)
O25_13 C14_13 C13_13 123.7(14)
N15_13 C14_13 C13_13 117.4(12)
C14_13 N15_13 C16_13 125.9(12)
C14_13 N15_13 C28_13 116.8(11)
C16_13 N15_13 C28_13 117.3(12)
O26_13 C16_13 N15_13 121.1(14)
O26_13 C16_13 C17_13 122.9(14)
N15_13 C16_13 C17_13 115.9(12)
C18_13 C17_13 C23_13 119.2(13)
C18_13 C17_13 C16_13 120.6(13)
C23_13 C17_13 C16_13 120.1(13)
C17_13 C18_13 C19_13 121.2(15)
C17_13 C18_13 H18_13 119.4
C19_13 C18_13 H18_13 119.4
C20_13 C19_13 C18_13 122.1(16)
C20_13 C19_13 H19_13 118.9
C18_13 C19_13 H19_13 118.9
C19_13 C20_13 C22_13 117.8(13)
C19_13 C20_13 C21_13 120.9(13)
C22_13 C20_13 C21_13 121.3(13)
O27_13 C21_13 N8_13 120.3(13)
O27_13 C21_13 C20_13 123.6(14)
N8_13 C21_13 C20_13 116.1(12)
C20_13 C22_13 C10_13 120.9(13)
C20_13 C22_13 C23_13 120.6(12)
C10_13 C22_13 C23_13 118.4(12)
C13_13 C23_13 C17_13 121.9(13)
C13_13 C23_13 C22_13 119.2(12)
C17_13 C23_13 C22_13 118.9(12)
C29_13 C28_13 C33_13 121.0(14)
C29_13 C28_13 N15_13 119.4(14)
C33_13 C28_13 N15_13 119.6(14)
C30_13 C29_13 C28_13 120.6(16)
C30_13 C29_13 H29_13 119.7
C28_13 C29_13 H29_13 119.7
C29_13 C30_13 C31_13 119.6(16)
C29_13 C30_13 H30_13 120.2
C31_13 C30_13 H30_13 120.2
C30_13 C31_13 C32_13 118.9(14)
C30_13 C31_13 N34_13 118.0(14)
C32_13 C31_13 N34_13 123.1(14)
C33_13 C32_13 C31_13 122.3(15)
C33_13 C32_13 H32_13 118.9
C31_13 C32_13 H32_13 118.9
C32_13 C33_13 C28_13 117.6(15)
C32_13 C33_13 H33_13 121.2
C28_13 C33_13 H33_13 121.2
C34A_13 N34_13 C31_13 122.2(16)
C34A_13 N34_13 Zn2 110.6(13)
C31_13 N34_13 Zn2 127.1(12)
N1_13 C1A_13 C1B_13 119.0(17)
N1_13 C1A_13 H1A_13 120.5
C1B_13 C1A_13 H1A_13 120.5
N34_13 C34A_13 C34B_13 123.1(18)
N34_13 C34A_13 H34A_13 118.4
C34B_13 C34A_13 H34A_13 118.4
N1C_13 C1B_13 C1G_13 123.8(14)
N1C_13 C1B_13 C1A_13 116.0(15)
C1G_13 C1B_13 C1A_13 120.0(15)
N34C_13 C34B_13 C34G_13 124.1(15)
N34C_13 C34B_13 C34A_13 114.2(16)
C34G_13 C34B_13 C34A_13 121.8(16)
C1D_13 N1C_13 C1B_13 116.3(16)
C1D_13 N1C_13 Zn4 127.8(14)
C1B_13 N1C_13 Zn4 115.4(12)
C34D_13 N34C_13 C34B_13 117.5(16)
C34D_13 N34C_13 Zn2 128.6(15)
C34B_13 N34C_13 Zn2 113.8(13)
N1C_13 C1D_13 C1E_13 123.1(18)
N1C_13 C1D_13 H1D_13 118.4
C1E_13 C1D_13 H1D_13 118.4
N34C_13 C34D_13 C34E_13 122.2(18)
N34C_13 C34D_13 H34D_13 118.9
C34E_13 C34D_13 H34D_13 118.9
C1F_13 C1E_13 C1D_13 119.8(19)
C1F_13 C1E_13 H1E_13 120.1
C1D_13 C1E_13 H1E_13 120.1
C34D_13 C34E_13 C34F_13 119.6(19)
C34D_13 C34E_13 H34E_13 120.2
C34F_13 C34E_13 H34E_13 120.2
C1E_13 C1F_13 C1G_13 118.8(18)
C1E_13 C1F_13 H1F_13 120.6
C1G_13 C1F_13 H1F_13 120.6
C34E_13 C34F_13 C34G_13 119.9(19)
C34E_13 C34F_13 H34F_13 120.1
C34G_13 C34F_13 H34F_13 120.1
C1F_13 C1G_13 C1B_13 118.1(16)
C1F_13 C1G_13 H1G_13 120.9
C1B_13 C1G_13 H1G_13 120.9
C34F_13 C34G_13 C34B_13 116.6(17)
C34F_13 C34G_13 H34G_13 121.7
C34B_13 C34G_13 H34G_13 121.7
C1A_14 N1_14 C2_14 120.8(14)
C1A_14 N1_14 Zn3 111.8(11)
C2_14 N1_14 Zn3 127.0(11)
C3_14 C2_14 C7_14 120.6(14)
C3_14 C2_14 N1_14 122.1(14)
C7_14 C2_14 N1_14 117.3(14)
C4_14 C3_14 C2_14 121.0(15)
C4_14 C3_14 H3_14 119.5
C2_14 C3_14 H3_14 119.5
C3_14 C4_14 C5_14 118.0(15)
C3_14 C4_14 H4_14 121.0
C5_14 C4_14 H4_14 121.0
C4_14 C5_14 C6_14 121.5(13)
C4_14 C5_14 N8_14 119.4(13)
C6_14 C5_14 N8_14 119.0(13)
C7_14 C6_14 C5_14 119.5(15)
C7_14 C6_14 H6_14 120.2
C5_14 C6_14 H6_14 120.2
C6_14 C7_14 C2_14 119.2(15)
C6_14 C7_14 H7_14 120.4
C2_14 C7_14 H7_14 120.4
C21_14 N8_14 C9_14 124.7(11)
C21_14 N8_14 C5_14 116.2(11)
C9_14 N8_14 C5_14 119.1(11)
O24_14 C9_14 N8_14 118.9(13)
O24_14 C9_14 C10_14 123.6(13)
N8_14 C9_14 C10_14 117.5(12)
C11_14 C10_14 C22_14 118.5(12)
C11_14 C10_14 C9_14 121.6(12)
C22_14 C10_14 C9_14 119.9(12)
C12_14 C11_14 C10_14 123.0(14)
C12_14 C11_14 H11_14 118.5
C10_14 C11_14 H11_14 118.5
C13_14 C12_14 C11_14 119.5(14)
C13_14 C12_14 H12_14 120.2
C11_14 C12_14 H12_14 120.2
C12_14 C13_14 C23_14 120.2(12)
C12_14 C13_14 C14_14 120.8(12)
C23_14 C13_14 C14_14 119.0(12)
O25_14 C14_14 N15_14 120.8(13)
O25_14 C14_14 C13_14 122.5(13)
N15_14 C14_14 C13_14 116.6(12)
C14_14 N15_14 C16_14 126.4(12)
C14_14 N15_14 C28_14 118.0(11)
C16_14 N15_14 C28_14 115.2(11)
O26_14 C16_14 N15_14 122.1(13)
O26_14 C16_14 C17_14 121.9(13)
N15_14 C16_14 C17_14 115.8(12)
C18_14 C17_14 C23_14 119.5(12)
C18_14 C17_14 C16_14 120.3(12)
C23_14 C17_14 C16_14 120.2(12)
C17_14 C18_14 C19_14 121.6(15)
C17_14 C18_14 H18_14 119.2
C19_14 C18_14 H18_14 119.2
C20_14 C19_14 C18_14 121.1(14)
C20_14 C19_14 H19_14 119.4
C18_14 C19_14 H19_14 119.4
C19_14 C20_14 C22_14 118.6(12)
C19_14 C20_14 C21_14 120.1(12)
C22_14 C20_14 C21_14 121.3(12)
O27_14 C21_14 N8_14 119.4(12)
O27_14 C21_14 C20_14 124.2(13)
N8_14 C21_14 C20_14 116.4(12)
C10_14 C22_14 C20_14 120.2(12)
C10_14 C22_14 C23_14 119.8(11)
C20_14 C22_14 C23_14 120.0(11)
C17_14 C23_14 C22_14 119.1(11)
C17_14 C23_14 C13_14 121.9(12)
C22_14 C23_14 C13_14 118.9(11)
C29_14 C28_14 C33_14 119.8(13)
C29_14 C28_14 N15_14 119.4(14)
C33_14 C28_14 N15_14 120.8(14)
C30_14 C29_14 C28_14 120.3(15)
C30_14 C29_14 H29_14 119.8
C28_14 C29_14 H29_14 119.8
C29_14 C30_14 C31_14 119.5(15)
C29_14 C30_14 H30_14 120.2
C31_14 C30_14 H30_14 120.2
C32_14 C31_14 C30_14 120.8(14)
C32_14 C31_14 N34_14 121.5(14)
C30_14 C31_14 N34_14 117.7(14)
C33_14 C32_14 C31_14 119.5(15)
C33_14 C32_14 H32_14 120.3
C31_14 C32_14 H32_14 120.3
C32_14 C33_14 C28_14 120.1(15)
C32_14 C33_14 H33_14 120.0
C28_14 C33_14 H33_14 120.0
C34A_14 N34_14 C31_14 118.5(15)
C34A_14 N34_14 Zn1 113.9(12)
C31_14 N34_14 Zn1 127.6(11)
N1_14 C1A_14 C1B_14 119.0(16)
N1_14 C1A_14 H1A_14 120.5
C1B_14 C1A_14 H1A_14 120.5
N34_14 C34A_14 C34B_14 119.7(17)
N34_14 C34A_14 H34A_14 120.2
C34B_14 C34A_14 H34A_14 120.2
N1C_14 C1B_14 C1G_14 122.0(14)
N1C_14 C1B_14 C1A_14 116.3(14)
C1G_14 C1B_14 C1A_14 121.7(14)
N34C_14 C34B_14 C34G_14 121.5(15)
N34C_14 C34B_14 C34A_14 116.9(15)
C34G_14 C34B_14 C34A_14 121.6(16)
C1D_14 N1C_14 C1B_14 117.1(14)
C1D_14 N1C_14 Zn3 126.3(13)
C1B_14 N1C_14 Zn3 115.9(11)
C34D_14 N34C_14 C34B_14 119.9(15)
C34D_14 N34C_14 Zn1 126.9(14)
C34B_14 N34C_14 Zn1 113.2(12)
N1C_14 C1D_14 C1E_14 123.3(17)
N1C_14 C1D_14 H1D_14 118.3
C1E_14 C1D_14 H1D_14 118.3
N34C_14 C34D_14 C34E_14 121.5(17)
N34C_14 C34D_14 H34D_14 119.3
C34E_14 C34D_14 H34D_14 119.3
C1F_14 C1E_14 C1D_14 120.0(17)
C1F_14 C1E_14 H1E_14 120.0
C1D_14 C1E_14 H1E_14 120.0
C34F_14 C34E_14 C34D_14 118.4(18)
C34F_14 C34E_14 H34E_14 120.8
C34D_14 C34E_14 H34E_14 120.8
C1E_14 C1F_14 C1G_14 117.1(17)
C1E_14 C1F_14 H1F_14 121.5
C1G_14 C1F_14 H1F_14 121.5
C34E_14 C34F_14 C34G_14 121.1(19)
C34E_14 C34F_14 H34F_14 119.4
C34G_14 C34F_14 H34F_14 119.4
C1B_14 C1G_14 C1F_14 120.4(15)
C1B_14 C1G_14 H1G_14 119.8
C1F_14 C1G_14 H1G_14 119.8
C34F_14 C34G_14 C34B_14 117.6(17)
C34F_14 C34G_14 H34G_14 121.2
C34B_14 C34G_14 H34G_14 121.2
C1A_15 N1_15 C2_15 120.1(16)
C1A_15 N1_15 Zn3 112.0(13)
C2_15 N1_15 Zn3 127.6(13)
C7_15 C2_15 C3_15 119.8(14)
C7_15 C2_15 N1_15 122.4(14)
C3_15 C2_15 N1_15 117.8(14)
C4_15 C3_15 C2_15 120.1(16)
C4_15 C3_15 H3_15 119.9
C2_15 C3_15 H3_15 119.9
C3_15 C4_15 C5_15 120.3(15)
C3_15 C4_15 H4_15 119.8
C5_15 C4_15 H4_15 119.8
C6_15 C5_15 C4_15 118.6(13)
C6_15 C5_15 N8_15 124.4(14)
C4_15 C5_15 N8_15 116.8(13)
C5_15 C6_15 C7_15 122.0(15)
C5_15 C6_15 H6_15 119.0
C7_15 C6_15 H6_15 119.0
C2_15 C7_15 C6_15 119.1(15)
C2_15 C7_15 H7_15 120.4
C6_15 C7_15 H7_15 120.4
C9_15 N8_15 C21_15 125.0(12)
C9_15 N8_15 C5_15 115.9(12)
C21_15 N8_15 C5_15 119.1(12)
O24_15 C9_15 N8_15 120.2(13)
O24_15 C9_15 C10_15 121.4(13)
N8_15 C9_15 C10_15 118.2(12)
C11_15 C10_15 C22_15 121.6(13)
C11_15 C10_15 C9_15 119.9(12)
C22_15 C10_15 C9_15 118.5(12)
C10_15 C11_15 C12_15 120.0(15)
C10_15 C11_15 H11_15 120.0
C12_15 C11_15 H11_15 120.0
C13_15 C12_15 C11_15 119.9(15)
C13_15 C12_15 H12_15 120.1
C11_15 C12_15 H12_15 120.1
C12_15 C13_15 C23_15 121.5(12)
C12_15 C13_15 C14_15 120.0(12)
C23_15 C13_15 C14_15 118.4(12)
O25_15 C14_15 N15_15 120.9(13)
O25_15 C14_15 C13_15 122.3(14)
N15_15 C14_15 C13_15 116.7(12)
C16_15 N15_15 C14_15 127.5(12)
C16_15 N15_15 C28_15 117.4(11)
C14_15 N15_15 C28_15 115.1(11)
O26_15 C16_15 N15_15 123.0(13)
O26_15 C16_15 C17_15 122.3(13)
N15_15 C16_15 C17_15 114.6(12)
C18_15 C17_15 C23_15 119.4(12)
C18_15 C17_15 C16_15 119.9(12)
C23_15 C17_15 C16_15 120.8(12)
C17_15 C18_15 C19_15 120.5(15)
C17_15 C18_15 H18_15 119.7
C19_15 C18_15 H18_15 119.7
C20_15 C19_15 C18_15 122.1(15)
C20_15 C19_15 H19_15 119.0
C18_15 C19_15 H19_15 119.0
C19_15 C20_15 C22_15 118.7(12)
C19_15 C20_15 C21_15 120.8(12)
C22_15 C20_15 C21_15 120.5(12)
O27_15 C21_15 N8_15 120.0(13)
O27_15 C21_15 C20_15 123.8(13)
N8_15 C21_15 C20_15 116.0(12)
C20_15 C22_15 C10_15 121.8(12)
C20_15 C22_15 C23_15 119.4(12)
C10_15 C22_15 C23_15 118.8(12)
C17_15 C23_15 C13_15 122.0(12)
C17_15 C23_15 C22_15 119.9(12)
C13_15 C23_15 C22_15 118.1(12)
C33_15 C28_15 C29_15 122.1(13)
C33_15 C28_15 N15_15 115.4(13)
C29_15 C28_15 N15_15 122.5(13)
C30_15 C29_15 C28_15 118.7(15)
C30_15 C29_15 H29_15 120.7
C28_15 C29_15 H29_15 120.7
C29_15 C30_15 C31_15 119.7(15)
C29_15 C30_15 H30_15 120.1
C31_15 C30_15 H30_15 120.1
C30_15 C31_15 C32_15 120.9(13)
C30_15 C31_15 N34_15 118.8(14)
C32_15 C31_15 N34_15 120.3(14)
C33_15 C32_15 C31_15 119.9(15)
C33_15 C32_15 H32_15 120.1
C31_15 C32_15 H32_15 120.1
C32_15 C33_15 C28_15 118.8(15)
C32_15 C33_15 H33_15 120.6
C28_15 C33_15 H33_15 120.6
C34A_15 N34_15 C31_15 118.2(14)
C34A_15 N34_15 Zn2 110.1(11)
C31_15 N34_15 Zn2 130.2(11)
N1_15 C1A_15 C1B_15 123.2(18)
N1_15 C1A_15 H1A_15 118.4
C1B_15 C1A_15 H1A_15 118.4
N34_15 C34A_15 C34B_15 121.0(16)
N34_15 C34A_15 H34A_15 119.5
C34B_15 C34A_15 H34A_15 119.5
N1C_15 C1B_15 C1G_15 123.8(15)
N1C_15 C1B_15 C1A_15 115.7(15)
C1G_15 C1B_15 C1A_15 120.5(16)
N34C_15 C34B_15 C34G_15 122.1(14)
N34C_15 C34B_15 C34A_15 114.5(15)
C34G_15 C34B_15 C34A_15 123.3(15)
C1D_15 N1C_15 C1B_15 116.2(15)
C1D_15 N1C_15 Zn3 131.6(14)
C1B_15 N1C_15 Zn3 112.2(12)
C34B_15 N34C_15 C34D_15 117.2(15)
C34B_15 N34C_15 Zn2 116.2(12)
C34D_15 N34C_15 Zn2 126.3(14)
N1C_15 C1D_15 C1E_15 124.8(18)
N1C_15 C1D_15 H1D_15 117.6
C1E_15 C1D_15 H1D_15 117.6
N34C_15 C34D_15 C34E_15 124.4(18)
N34C_15 C34D_15 H34D_15 117.8
C34E_15 C34D_15 H34D_15 117.8
C1F_15 C1E_15 C1D_15 116.7(18)
C1F_15 C1E_15 H1E_15 121.6
C1D_15 C1E_15 H1E_15 121.6
C34D_15 C34E_15 C34F_15 118.1(18)
C34D_15 C34E_15 H34E_15 120.9
C34F_15 C34E_15 H34E_15 120.9
C1E_15 C1F_15 C1G_15 120.8(18)
C1E_15 C1F_15 H1F_15 119.6
C1G_15 C1F_15 H1F_15 119.6
C34E_15 C34F_15 C34G_15 118.8(17)
C34E_15 C34F_15 H34F_15 120.6
C34G_15 C34F_15 H34F_15 120.6
C1B_15 C1G_15 C1F_15 117.6(17)
C1B_15 C1G_15 H1G_15 121.2
C1F_15 C1G_15 H1G_15 121.2
C34F_15 C34G_15 C34B_15 119.3(16)
C34F_15 C34G_15 H34G_15 120.3
C34B_15 C34G_15 H34G_15 120.3
F2_50 P1_50 F6_50 93.2(14)
F2_50 P1_50 F5_50 94.7(15)
F6_50 P1_50 F5_50 89.9(14)
F2_50 P1_50 F3_50 90.6(15)
F6_50 P1_50 F3_50 91.4(15)
F5_50 P1_50 F3_50 174.5(17)
F2_50 P1_50 F4_50 176.5(17)
F6_50 P1_50 F4_50 88.6(13)
F5_50 P1_50 F4_50 88.4(14)
F3_50 P1_50 F4_50 86.3(14)
F2_50 P1_50 F7_50 88.1(14)
F6_50 P1_50 F7_50 177.4(17)
F5_50 P1_50 F7_50 87.6(15)
F3_50 P1_50 F7_50 90.9(14)
F4_50 P1_50 F7_50 90.4(14)
F3_51 P1_51 F7_51 91.8(12)
F3_51 P1_51 F2_51 90.6(13)
F7_51 P1_51 F2_51 90.3(12)
F3_51 P1_51 F4_51 89.8(13)
F7_51 P1_51 F4_51 93.6(11)
F2_51 P1_51 F4_51 176.0(12)
F3_51 P1_51 F5_51 177.2(13)
F7_51 P1_51 F5_51 91.0(11)
F2_51 P1_51 F5_51 89.0(12)
F4_51 P1_51 F5_51 90.5(13)
F3_51 P1_51 F6_51 90.6(12)
F7_51 P1_51 F6_51 177.6(14)
F2_51 P1_51 F6_51 89.6(10)
F4_51 P1_51 F6_51 86.4(12)
F5_51 P1_51 F6_51 86.6(11)
F6_52 P1_52 F5_52 90.8(14)
F6_52 P1_52 F4_52 91.9(13)
F5_52 P1_52 F4_52 93.7(12)
F6_52 P1_52 F2_52 93.1(14)
F5_52 P1_52 F2_52 83.9(14)
F4_52 P1_52 F2_52 174.5(16)
F6_52 P1_52 F3_52 89.7(13)
F5_52 P1_52 F3_52 174.6(15)
F4_52 P1_52 F3_52 91.6(14)
F2_52 P1_52 F3_52 90.7(12)
F6_52 P1_52 F7_52 177.9(17)
F5_52 P1_52 F7_52 90.3(13)
F4_52 P1_52 F7_52 86.2(13)
F2_52 P1_52 F7_52 88.8(12)
F3_52 P1_52 F7_52 89.4(13)
O3_60 S1_60 O2_60 121.5(14)
O3_60 S1_60 N8_60 108.0(12)
O2_60 S1_60 N8_60 110.1(13)
O3_60 S1_60 C4_60 102.0(12)
O2_60 S1_60 C4_60 104.1(12)
N8_60 S1_60 C4_60 110.6(13)
F7_60 C4_60 F6_60 107(2)
F7_60 C4_60 F5_60 105(2)
F6_60 C4_60 F5_60 117(2)
F7_60 C4_60 S1_60 113.1(18)
F6_60 C4_60 S1_60 106.8(16)
F5_60 C4_60 S1_60 107.3(15)
S9_60 N8_60 S1_60 123.8(12)
O10_60 S9_60 O11_60 124.1(14)
O10_60 S9_60 N8_60 111.9(13)
O11_60 S9_60 N8_60 109.0(12)
O10_60 S9_60 C12_60 104.1(13)
O11_60 S9_60 C12_60 99.7(14)
N8_60 S9_60 C12_60 105.6(13)
F14_60 C12_60 F13_60 114(2)
F14_60 C12_60 F15_60 112(2)
F13_60 C12_60 F15_60 107(2)
F14_60 C12_60 S9_60 109.4(17)
F13_60 C12_60 S9_60 105.7(16)
F15_60 C12_60 S9_60 108.1(16)
loop_
_geom_bond_atom_site_label_1
_geom_bond_atom_site_label_2
_geom_bond_distance
Zn1 N34C_12 2.085(17)
Zn1 N1C_11 2.165(16)
Zn1 N1_11 2.190(16)
Zn1 N34C_14 2.199(17)
Zn1 N34_14 2.206(17)
Zn1 N34_12 2.234(15)
Zn2 N34C_15 2.082(18)
Zn2 N34C_13 2.143(18)
Zn2 N34C_11 2.152(16)
Zn2 N34_13 2.200(18)
Zn2 N34_15 2.215(15)
Zn2 N34_11 2.251(17)
Zn3 N1C_14 2.122(16)
Zn3 N34C_10 2.145(18)
Zn3 N1_15 2.202(18)
Zn3 N1C_15 2.225(17)
Zn3 N1_14 2.275(16)
Zn3 N34_10 2.277(18)
Zn4 N1C_10 2.02(2)
Zn4 N1C_13 2.077(18)
Zn4 N1C_12 2.129(19)
Zn4 N1_12 2.15(2)
Zn4 N1_13 2.219(17)
Zn4 N1_10 2.229(18)
N1_10 C1A_10 1.249(16)
N1_10 C2_10 1.420(11)
C2_10 C3_10 1.393(12)
C2_10 C7_10 1.394(12)
C3_10 C4_10 1.379(10)
C3_10 H3_10 0.9500
C4_10 C5_10 1.397(14)
C4_10 H4_10 0.9500
C5_10 C6_10 1.387(14)
C5_10 N8_10 1.446(11)
C6_10 C7_10 1.389(10)
C6_10 H6_10 0.9500
C7_10 H7_10 0.9500
N8_10 C9_10 1.405(12)
N8_10 C21_10 1.411(12)
C9_10 O24_10 1.215(13)
C9_10 C10_10 1.476(8)
C10_10 C11_10 1.377(12)
C10_10 C22_10 1.423(11)
C11_10 C12_10 1.389(10)
C11_10 H11_10 0.9500
C12_10 C13_10 1.382(12)
C12_10 H12_10 0.9500
C13_10 C23_10 1.413(11)
C13_10 C14_10 1.478(8)
C14_10 O25_10 1.220(13)
C14_10 N15_10 1.398(12)
N15_10 C16_10 1.396(12)
N15_10 C28_10 1.435(10)
C16_10 O26_10 1.221(12)
C16_10 C17_10 1.479(8)
C17_10 C18_10 1.372(12)
C17_10 C23_10 1.412(11)
C18_10 C19_10 1.388(10)
C18_10 H18_10 0.9500
C19_10 C20_10 1.373(12)
C19_10 H19_10 0.9500
C20_10 C22_10 1.420(11)
C20_10 C21_10 1.476(8)
C21_10 O27_10 1.213(12)
C22_10 C23_10 1.406(16)
C28_10 C29_10 1.384(14)
C28_10 C33_10 1.387(14)
C29_10 C30_10 1.382(10)
C29_10 H29_10 0.9500
C30_10 C31_10 1.395(12)
C30_10 H30_10 0.9500
C31_10 C32_10 1.394(12)
C31_10 N34_10 1.416(11)
C32_10 C33_10 1.384(10)
C32_10 H32_10 0.9500
C33_10 H33_10 0.9500
N34_10 C34A_10 1.277(16)
C1A_10 C1B_10 1.473(9)
C1A_10 H1A_10 0.9500
C34A_10 C34B_10 1.477(9)
C34A_10 H34A_10 0.9500
C1B_10 N1C_10 1.344(8)
C1B_10 C1G_10 1.391(12)
C34B_10 N34C_10 1.348(8)
C34B_10 C34G_10 1.386(12)
N1C_10 C1D_10 1.341(11)
N34C_10 C34D_10 1.349(11)
C1D_10 C1E_10 1.393(15)
C1D_10 H1D_10 0.9500
C34D_10 C34E_10 1.390(15)
C34D_10 H34D_10 0.9500
C1E_10 C1F_10 1.368(15)
C1E_10 H1E_10 0.9500
C34E_10 C34F_10 1.373(15)
C34E_10 H34E_10 0.9500
C1F_10 C1G_10 1.375(12)
C1F_10 H1F_10 0.9500
C34F_10 C34G_10 1.379(12)
C34F_10 H34F_10 0.9500
C1G_10 H1G_10 0.9500
C34G_10 H34G_10 0.9500
N1_11 C1A_11 1.274(16)
N1_11 C2_11 1.425(11)
C2_11 C7_11 1.386(12)
C2_11 C3_11 1.387(12)
C3_11 C4_11 1.385(10)
C3_11 H3_11 0.9500
C4_11 C5_11 1.383(13)
C4_11 H4_11 0.9500
C5_11 C6_11 1.399(13)
C5_11 N8_11 1.442(10)
C6_11 C7_11 1.387(10)
C6_11 H6_11 0.9500
C7_11 H7_11 0.9500
N8_11 C21_11 1.402(12)
N8_11 C9_11 1.403(12)
C9_11 O24_11 1.206(12)
C9_11 C10_11 1.480(8)
C10_11 C11_11 1.382(11)
C10_11 C22_11 1.415(11)
C11_11 C12_11 1.379(10)
C11_11 H11_11 0.9500
C12_11 C13_11 1.375(11)
C12_11 H12_11 0.9500
C13_11 C23_11 1.409(11)
C13_11 C14_11 1.474(8)
C14_11 O25_11 1.234(12)
C14_11 N15_11 1.396(12)
N15_11 C16_11 1.396(12)
N15_11 C28_11 1.446(10)
C16_11 O26_11 1.199(12)
C16_11 C17_11 1.476(8)
C17_11 C18_11 1.372(11)
C17_11 C23_11 1.415(11)
C18_11 C19_11 1.385(10)
C18_11 H18_11 0.9500
C19_11 C20_11 1.375(11)
C19_11 H19_11 0.9500
C20_11 C22_11 1.412(11)
C20_11 C21_11 1.476(8)
C21_11 O27_11 1.222(12)
C22_11 C23_11 1.413(15)
C28_11 C29_11 1.382(14)
C28_11 C33_11 1.385(14)
C29_11 C30_11 1.384(10)
C29_11 H29_11 0.9500
C30_11 C31_11 1.384(12)
C30_11 H30_11 0.9500
C31_11 C32_11 1.386(12)
C31_11 N34_11 1.413(11)
C32_11 C33_11 1.384(10)
C32_11 H32_11 0.9500
C33_11 H33_11 0.9500
N34_11 C34A_11 1.247(16)
C1A_11 C1B_11 1.469(9)
C1A_11 H1A_11 0.9500
C34A_11 C34B_11 1.469(9)
C34A_11 H34A_11 0.9500
C1B_11 N1C_11 1.350(8)
C1B_11 C1G_11 1.399(12)
C34B_11 N34C_11 1.345(8)
C34B_11 C34G_11 1.387(12)
N1C_11 C1D_11 1.335(11)
N34C_11 C34D_11 1.328(11)
C1D_11 C1E_11 1.382(14)
C1D_11 H1D_11 0.9500
C34D_11 C34E_11 1.389(14)
C34D_11 H34D_11 0.9500
C1E_11 C1F_11 1.381(15)
C1E_11 H1E_11 0.9500
C34E_11 C34F_11 1.374(14)
C34E_11 H34E_11 0.9500
C1F_11 C1G_11 1.382(12)
C1F_11 H1F_11 0.9500
C34F_11 C34G_11 1.378(12)
C34F_11 H34F_11 0.9500
C1G_11 H1G_11 0.9500
C34G_11 H34G_11 0.9500
N1_12 C1A_12 1.281(17)
N1_12 C2_12 1.418(11)
C2_12 C3_12 1.390(12)
C2_12 C7_12 1.393(12)
C3_12 C4_12 1.384(10)
C3_12 H3_12 0.9500
C4_12 C5_12 1.387(14)
C4_12 H4_12 0.9500
C5_12 C6_12 1.381(14)
C5_12 N8_12 1.442(10)
C6_12 C7_12 1.384(10)
C6_12 H6_12 0.9500
C7_12 H7_12 0.9500
N8_12 C21_12 1.400(12)
N8_12 C9_12 1.408(12)
C9_12 O24_12 1.217(12)
C9_12 C10_12 1.470(8)
C10_12 C11_12 1.375(11)
C10_12 C22_12 1.416(11)
C11_12 C12_12 1.382(10)
C11_12 H11_12 0.9500
C12_12 C13_12 1.375(11)
C12_12 H12_12 0.9500
C13_12 C23_12 1.418(11)
C13_12 C14_12 1.469(8)
C14_12 O25_12 1.212(12)
C14_12 N15_12 1.402(11)
N15_12 C16_12 1.414(11)
N15_12 C28_12 1.440(10)
C16_12 O26_12 1.223(12)
C16_12 C17_12 1.474(8)
C17_12 C18_12 1.369(11)
C17_12 C23_12 1.411(11)
C18_12 C19_12 1.390(10)
C18_12 H18_12 0.9500
C19_12 C20_12 1.374(11)
C19_12 H19_12 0.9500
C20_12 C22_12 1.422(11)
C20_12 C21_12 1.476(8)
C21_12 O27_12 1.222(12)
C22_12 C23_12 1.422(15)
C28_12 C29_12 1.396(13)
C28_12 C33_12 1.397(13)
C29_12 C30_12 1.386(10)
C29_12 H29_12 0.9500
C30_12 C31_12 1.382(11)
C30_12 H30_12 0.9500
C31_12 C32_12 1.385(11)
C31_12 N34_12 1.407(10)
C32_12 C33_12 1.382(10)
C32_12 H32_12 0.9500
C33_12 H33_12 0.9500
N34_12 C34A_12 1.289(15)
C1A_12 C1B_12 1.468(9)
C1A_12 H1A_12 0.9500
C34A_12 C34B_12 1.471(9)
C34A_12 H34A_12 0.9500
C1B_12 N1C_12 1.343(9)
C1B_12 C1G_12 1.397(12)
C34B_12 N34C_12 1.347(8)
C34B_12 C34G_12 1.398(12)
N1C_12 C1D_12 1.332(11)
N34C_12 C34D_12 1.351(11)
C1D_12 C1E_12 1.385(15)
C1D_12 H1D_12 0.9500
C34D_12 C34E_12 1.374(14)
C34D_12 H34D_12 0.9500
C1E_12 C1F_12 1.391(15)
C1E_12 H1E_12 0.9500
C34E_12 C34F_12 1.359(14)
C34E_12 H34E_12 0.9500
C1F_12 C1G_12 1.379(12)
C1F_12 H1F_12 0.9500
C34F_12 C34G_12 1.384(12)
C34F_12 H34F_12 0.9500
C1G_12 H1G_12 0.9500
C34G_12 H34G_12 0.9500
N1_13 C1A_13 1.259(16)
N1_13 C2_13 1.413(11)
C2_13 C3_13 1.385(12)
C2_13 C7_13 1.397(12)
C3_13 C4_13 1.380(10)
C3_13 H3_13 0.9500
C4_13 C5_13 1.383(14)
C4_13 H4_13 0.9500
C5_13 C6_13 1.394(14)
C5_13 N8_13 1.438(10)
C6_13 C7_13 1.382(10)
C6_13 H6_13 0.9500
C7_13 H7_13 0.9500
N8_13 C9_13 1.406(12)
N8_13 C21_13 1.415(12)
C9_13 O24_13 1.212(12)
C9_13 C10_13 1.480(8)
C10_13 C11_13 1.370(11)
C10_13 C22_13 1.416(11)
C11_13 C12_13 1.385(10)
C11_13 H11_13 0.9500
C12_13 C13_13 1.368(11)
C12_13 H12_13 0.9500
C13_13 C23_13 1.415(11)
C13_13 C14_13 1.476(8)
C14_13 O25_13 1.227(12)
C14_13 N15_13 1.398(12)
N15_13 C16_13 1.403(12)
N15_13 C28_13 1.438(10)
C16_13 O26_13 1.210(12)
C16_13 C17_13 1.480(8)
C17_13 C18_13 1.374(12)
C17_13 C23_13 1.415(11)
C18_13 C19_13 1.383(10)
C18_13 H18_13 0.9500
C19_13 C20_13 1.377(11)
C19_13 H19_13 0.9500
C20_13 C22_13 1.415(11)
C20_13 C21_13 1.478(8)
C21_13 O27_13 1.238(12)
C22_13 C23_13 1.424(16)
C28_13 C29_13 1.384(14)
C28_13 C33_13 1.388(14)
C29_13 C30_13 1.373(10)
C29_13 H29_13 0.9500
C30_13 C31_13 1.387(12)
C30_13 H30_13 0.9500
C31_13 C32_13 1.389(12)
C31_13 N34_13 1.429(11)
C32_13 C33_13 1.376(10)
C32_13 H32_13 0.9500
C33_13 H33_13 0.9500
N34_13 C34A_13 1.254(16)
C1A_13 C1B_13 1.473(9)
C1A_13 H1A_13 0.9500
C34A_13 C34B_13 1.469(9)
C34A_13 H34A_13 0.9500
C1B_13 N1C_13 1.350(8)
C1B_13 C1G_13 1.392(12)
C34B_13 N34C_13 1.343(8)
C34B_13 C34G_13 1.396(12)
N1C_13 C1D_13 1.346(11)
N34C_13 C34D_13 1.340(11)
C1D_13 C1E_13 1.381(15)
C1D_13 H1D_13 0.9500
C34D_13 C34E_13 1.376(15)
C34D_13 H34D_13 0.9500
C1E_13 C1F_13 1.370(14)
C1E_13 H1E_13 0.9500
C34E_13 C34F_13 1.377(15)
C34E_13 H34E_13 0.9500
C1F_13 C1G_13 1.382(12)
C1F_13 H1F_13 0.9500
C34F_13 C34G_13 1.384(12)
C34F_13 H34F_13 0.9500
C1G_13 H1G_13 0.9500
C34G_13 H34G_13 0.9500
N1_14 C1A_14 1.285(15)
N1_14 C2_14 1.413(11)
C2_14 C3_14 1.387(12)
C2_14 C7_14 1.391(12)
C3_14 C4_14 1.384(10)
C3_14 H3_14 0.9500
C4_14 C5_14 1.388(13)
C4_14 H4_14 0.9500
C5_14 C6_14 1.401(13)
C5_14 N8_14 1.443(10)
C6_14 C7_14 1.383(10)
C6_14 H6_14 0.9500
C7_14 H7_14 0.9500
N8_14 C21_14 1.401(11)
N8_14 C9_14 1.405(11)
C9_14 O24_14 1.215(12)
C9_14 C10_14 1.480(8)
C10_14 C11_14 1.380(11)
C10_14 C22_14 1.408(11)
C11_14 C12_14 1.380(10)
C11_14 H11_14 0.9500
C12_14 C13_14 1.375(11)
C12_14 H12_14 0.9500
C13_14 C23_14 1.424(11)
C13_14 C14_14 1.474(8)
C14_14 O25_14 1.211(12)
C14_14 N15_14 1.399(12)
N15_14 C16_14 1.403(12)
N15_14 C28_14 1.441(10)
C16_14 O26_14 1.215(12)
C16_14 C17_14 1.473(8)
C17_14 C18_14 1.371(11)
C17_14 C23_14 1.404(11)
C18_14 C19_14 1.381(10)
C18_14 H18_14 0.9500
C19_14 C20_14 1.377(11)
C19_14 H19_14 0.9500
C20_14 C22_14 1.417(11)
C20_14 C21_14 1.473(8)
C21_14 O27_14 1.219(12)
C22_14 C23_14 1.420(15)
C28_14 C29_14 1.399(14)
C28_14 C33_14 1.399(14)
C29_14 C30_14 1.383(10)
C29_14 H29_14 0.9500
C30_14 C31_14 1.395(12)
C30_14 H30_14 0.9500
C31_14 C32_14 1.394(12)
C31_14 N34_14 1.422(11)
C32_14 C33_14 1.390(10)
C32_14 H32_14 0.9500
C33_14 H33_14 0.9500
N34_14 C34A_14 1.285(16)
C1A_14 C1B_14 1.470(9)
C1A_14 H1A_14 0.9500
C34A_14 C34B_14 1.470(9)
C34A_14 H34A_14 0.9500
C1B_14 N1C_14 1.348(8)
C1B_14 C1G_14 1.392(12)
C34B_14 N34C_14 1.350(8)
C34B_14 C34G_14 1.391(12)
N1C_14 C1D_14 1.347(11)
N34C_14 C34D_14 1.341(11)
C1D_14 C1E_14 1.388(14)
C1D_14 H1D_14 0.9500
C34D_14 C34E_14 1.385(14)
C34D_14 H34D_14 0.9500
C1E_14 C1F_14 1.369(14)
C1E_14 H1E_14 0.9500
C34E_14 C34F_14 1.371(15)
C34E_14 H34E_14 0.9500
C1F_14 C1G_14 1.396(12)
C1F_14 H1F_14 0.9500
C34F_14 C34G_14 1.382(12)
C34F_14 H34F_14 0.9500
C1G_14 H1G_14 0.9500
C34G_14 H34G_14 0.9500
N1_15 C1A_15 1.261(16)
N1_15 C2_15 1.416(11)
C2_15 C7_15 1.386(12)
C2_15 C3_15 1.393(12)
C3_15 C4_15 1.379(10)
C3_15 H3_15 0.9500
C4_15 C5_15 1.402(14)
C4_15 H4_15 0.9500
C5_15 C6_15 1.367(13)
C5_15 N8_15 1.440(10)
C6_15 C7_15 1.386(10)
C6_15 H6_15 0.9500
C7_15 H7_15 0.9500
N8_15 C9_15 1.401(12)
N8_15 C21_15 1.405(12)
C9_15 O24_15 1.222(12)
C9_15 C10_15 1.475(8)
C10_15 C11_15 1.380(11)
C10_15 C22_15 1.414(11)
C11_15 C12_15 1.391(10)
C11_15 H11_15 0.9500
C12_15 C13_15 1.387(11)
C12_15 H12_15 0.9500
C13_15 C23_15 1.422(11)
C13_15 C14_15 1.472(8)
C14_15 O25_15 1.217(12)
C14_15 N15_15 1.407(12)
N15_15 C16_15 1.397(12)
N15_15 C28_15 1.450(10)
C16_15 O26_15 1.216(12)
C16_15 C17_15 1.473(8)
C17_15 C18_15 1.375(11)
C17_15 C23_15 1.418(11)
C18_15 C19_15 1.389(10)
C18_15 H18_15 0.9500
C19_15 C20_15 1.386(11)
C19_15 H19_15 0.9500
C20_15 C22_15 1.412(11)
C20_15 C21_15 1.480(8)
C21_15 O27_15 1.234(12)
C22_15 C23_15 1.423(15)
C28_15 C33_15 1.385(14)
C28_15 C29_15 1.389(13)
C29_15 C30_15 1.381(10)
C29_15 H29_15 0.9500
C30_15 C31_15 1.387(11)
C30_15 H30_15 0.9500
C31_15 C32_15 1.389(12)
C31_15 N34_15 1.408(10)
C32_15 C33_15 1.378(10)
C32_15 H32_15 0.9500
C33_15 H33_15 0.9500
N34_15 C34A_15 1.287(15)
C1A_15 C1B_15 1.465(9)
C1A_15 H1A_15 0.9500
C34A_15 C34B_15 1.470(9)
C34A_15 H34A_15 0.9500
C1B_15 N1C_15 1.345(8)
C1B_15 C1G_15 1.375(12)
C34B_15 N34C_15 1.340(8)
C34B_15 C34G_15 1.386(12)
N1C_15 C1D_15 1.333(11)
N34C_15 C34D_15 1.344(11)
C1D_15 C1E_15 1.391(14)
C1D_15 H1D_15 0.9500
C34D_15 C34E_15 1.368(14)
C34D_15 H34D_15 0.9500
C1E_15 C1F_15 1.363(14)
C1E_15 H1E_15 0.9500
C34E_15 C34F_15 1.379(14)
C34E_15 H34E_15 0.9500
C1F_15 C1G_15 1.387(12)
C1F_15 H1F_15 0.9500
C34F_15 C34G_15 1.386(12)
C34F_15 H34F_15 0.9500
C1G_15 H1G_15 0.9500
C34G_15 H34G_15 0.9500
P1_50 F2_50 1.598(16)
P1_50 F6_50 1.627(17)
P1_50 F5_50 1.630(17)
P1_50 F3_50 1.632(17)
P1_50 F4_50 1.644(17)
P1_50 F7_50 1.648(17)
P1_51 F3_51 1.610(16)
P1_51 F7_51 1.613(15)
P1_51 F2_51 1.635(16)
P1_51 F4_51 1.642(16)
P1_51 F5_51 1.645(15)
P1_51 F6_51 1.676(15)
P1_52 F6_52 1.604(16)
P1_52 F5_52 1.623(17)
P1_52 F4_52 1.626(16)
P1_52 F2_52 1.629(16)
P1_52 F3_52 1.629(16)
P1_52 F7_52 1.635(16)
S1_60 O3_60 1.441(11)
S1_60 O2_60 1.445(12)
S1_60 N8_60 1.639(12)
S1_60 C4_60 1.829(10)
C4_60 F7_60 1.310(18)
C4_60 F6_60 1.329(18)
C4_60 F5_60 1.334(18)
N8_60 S9_60 1.632(12)
S9_60 O10_60 1.426(12)
S9_60 O11_60 1.437(12)
S9_60 C12_60 1.831(10)
C12_60 F14_60 1.307(18)
C12_60 F13_60 1.324(19)
C12_60 F15_60 1.333(18)
loop_
_geom_torsion_atom_site_label_1
_geom_torsion_atom_site_label_2
_geom_torsion_atom_site_label_3
_geom_torsion_atom_site_label_4
_geom_torsion
C1A_10 N1_10 C2_10 C3_10 113.6(19)
Zn4 N1_10 C2_10 C3_10 -69(2)
C1A_10 N1_10 C2_10 C7_10 -71(2)
Zn4 N1_10 C2_10 C7_10 106.7(18)
C7_10 C2_10 C3_10 C4_10 -5.2(18)
N1_10 C2_10 C3_10 C4_10 170.1(18)
C2_10 C3_10 C4_10 C5_10 1.3(19)
C3_10 C4_10 C5_10 C6_10 3.6(18)
C3_10 C4_10 C5_10 N8_10 -172.6(17)
C4_10 C5_10 C6_10 C7_10 -4.7(17)
N8_10 C5_10 C6_10 C7_10 171.4(17)
C5_10 C6_10 C7_10 C2_10 0.8(19)
C3_10 C2_10 C7_10 C6_10 4.2(18)
N1_10 C2_10 C7_10 C6_10 -171.0(18)
C6_10 C5_10 N8_10 C9_10 -110.0(15)
C4_10 C5_10 N8_10 C9_10 66.2(16)
C6_10 C5_10 N8_10 C21_10 68.4(16)
C4_10 C5_10 N8_10 C21_10 -115.4(14)
C21_10 N8_10 C9_10 O24_10 179.9(17)
C5_10 N8_10 C9_10 O24_10 -2(2)
C21_10 N8_10 C9_10 C10_10 0.0(14)
C5_10 N8_10 C9_10 C10_10 178.2(13)
O24_10 C9_10 C10_10 C11_10 -1(2)
N8_10 C9_10 C10_10 C11_10 178.9(13)
O24_10 C9_10 C10_10 C22_10 178.3(17)
N8_10 C9_10 C10_10 C22_10 -1.8(13)
C22_10 C10_10 C11_10 C12_10 -1.7(17)
C9_10 C10_10 C11_10 C12_10 177.5(14)
C10_10 C11_10 C12_10 C13_10 1.6(19)
C11_10 C12_10 C13_10 C23_10 -2.0(17)
C11_10 C12_10 C13_10 C14_10 179.1(14)
C12_10 C13_10 C14_10 O25_10 -6(2)
C23_10 C13_10 C14_10 O25_10 174.7(19)
C12_10 C13_10 C14_10 N15_10 175.9(13)
C23_10 C13_10 C14_10 N15_10 -3.0(14)
O25_10 C14_10 N15_10 C16_10 -177.3(18)
C13_10 C14_10 N15_10 C16_10 0.6(14)
O25_10 C14_10 N15_10 C28_10 4(2)
C13_10 C14_10 N15_10 C28_10 -178.3(14)
C14_10 N15_10 C16_10 O26_10 -175.1(16)
C28_10 N15_10 C16_10 O26_10 3.9(19)
C14_10 N15_10 C16_10 C17_10 2.2(14)
C28_10 N15_10 C16_10 C17_10 -178.8(13)
O26_10 C16_10 C17_10 C18_10 -6(2)
N15_10 C16_10 C17_10 C18_10 176.4(13)
O26_10 C16_10 C17_10 C23_10 174.4(16)
N15_10 C16_10 C17_10 C23_10 -2.8(13)
C23_10 C17_10 C18_10 C19_10 -0.2(16)
C16_10 C17_10 C18_10 C19_10 -179.4(13)
C17_10 C18_10 C19_10 C20_10 -1.6(18)
C18_10 C19_10 C20_10 C22_10 1.3(16)
C18_10 C19_10 C20_10 C21_10 -176.7(14)
C9_10 N8_10 C21_10 O27_10 -179.3(16)
C5_10 N8_10 C21_10 O27_10 2.5(18)
C9_10 N8_10 C21_10 C20_10 1.8(14)
C5_10 N8_10 C21_10 C20_10 -176.5(13)
C19_10 C20_10 C21_10 O27_10 -3(2)
C22_10 C20_10 C21_10 O27_10 179.4(16)
C19_10 C20_10 C21_10 N8_10 176.3(13)
C22_10 C20_10 C21_10 N8_10 -1.7(13)
C19_10 C20_10 C22_10 C23_10 0.7(13)
C21_10 C20_10 C22_10 C23_10 178.8(12)
C19_10 C20_10 C22_10 C10_10 -178.1(13)
C21_10 C20_10 C22_10 C10_10 0.0(13)
C11_10 C10_10 C22_10 C23_10 2.3(14)
C9_10 C10_10 C22_10 C23_10 -177.0(12)
C11_10 C10_10 C22_10 C20_10 -178.9(13)
C9_10 C10_10 C22_10 C20_10 1.8(13)
C20_10 C22_10 C23_10 C17_10 -2.5(13)
C10_10 C22_10 C23_10 C17_10 176.3(11)
C20_10 C22_10 C23_10 C13_10 178.5(11)
C10_10 C22_10 C23_10 C13_10 -2.7(12)
C18_10 C17_10 C23_10 C22_10 2.3(13)
C16_10 C17_10 C23_10 C22_10 -178.5(12)
C18_10 C17_10 C23_10 C13_10 -178.8(13)
C16_10 C17_10 C23_10 C13_10 0.4(13)
C12_10 C13_10 C23_10 C22_10 2.5(14)
C14_10 C13_10 C23_10 C22_10 -178.5(12)
C12_10 C13_10 C23_10 C17_10 -176.4(13)
C14_10 C13_10 C23_10 C17_10 2.5(13)
C16_10 N15_10 C28_10 C29_10 86.0(16)
C14_10 N15_10 C28_10 C29_10 -95.0(15)
C16_10 N15_10 C28_10 C33_10 -91.5(15)
C14_10 N15_10 C28_10 C33_10 87.5(15)
C33_10 C28_10 C29_10 C30_10 -0.3(17)
N15_10 C28_10 C29_10 C30_10 -177.7(16)
C28_10 C29_10 C30_10 C31_10 -0.9(19)
C29_10 C30_10 C31_10 C32_10 1.0(18)
C29_10 C30_10 C31_10 N34_10 179.0(18)
C30_10 C31_10 C32_10 C33_10 0.1(18)
N34_10 C31_10 C32_10 C33_10 -177.9(18)
C31_10 C32_10 C33_10 C28_10 -1.3(19)
C29_10 C28_10 C33_10 C32_10 1.4(18)
N15_10 C28_10 C33_10 C32_10 178.8(17)
C32_10 C31_10 N34_10 C34A_10 -64(2)
C30_10 C31_10 N34_10 C34A_10 118.1(19)
C32_10 C31_10 N34_10 Zn3 113.4(15)
C30_10 C31_10 N34_10 Zn3 -64.7(18)
C2_10 N1_10 C1A_10 C1B_10 179.6(15)
Zn4 N1_10 C1A_10 C1B_10 1(2)
C31_10 N34_10 C34A_10 C34B_10 -178.5(15)
Zn3 N34_10 C34A_10 C34B_10 4(2)
N1_10 C1A_10 C1B_10 N1C_10 -2(2)
N1_10 C1A_10 C1B_10 C1G_10 177.9(18)
N34_10 C34A_10 C34B_10 N34C_10 2(2)
N34_10 C34A_10 C34B_10 C34G_10 -177.0(17)
C1G_10 C1B_10 N1C_10 C1D_10 1.1(19)
C1A_10 C1B_10 N1C_10 C1D_10 -179.0(18)
C1G_10 C1B_10 N1C_10 Zn4 -178.5(16)
C1A_10 C1B_10 N1C_10 Zn4 1.4(17)
C34G_10 C34B_10 N34C_10 C34D_10 0.6(18)
C34A_10 C34B_10 N34C_10 C34D_10 -178.5(18)
C34G_10 C34B_10 N34C_10 Zn3 171.7(14)
C34A_10 C34B_10 N34C_10 Zn3 -7.4(16)
C1B_10 N1C_10 C1D_10 C1E_10 -2(2)
Zn4 N1C_10 C1D_10 C1E_10 178(2)
C34B_10 N34C_10 C34D_10 C34E_10 1(2)
Zn3 N34C_10 C34D_10 C34E_10 -168.4(18)
N1C_10 C1D_10 C1E_10 C1F_10 1(2)
N34C_10 C34D_10 C34E_10 C34F_10 -2(2)
C1D_10 C1E_10 C1F_10 C1G_10 0(2)
C34D_10 C34E_10 C34F_10 C34G_10 0(2)
C1E_10 C1F_10 C1G_10 C1B_10 -1(2)
N1C_10 C1B_10 C1G_10 C1F_10 0.4(19)
C1A_10 C1B_10 C1G_10 C1F_10 -179.4(18)
C34E_10 C34F_10 C34G_10 C34B_10 2(2)
N34C_10 C34B_10 C34G_10 C34F_10 -2.3(18)
C34A_10 C34B_10 C34G_10 C34F_10 176.7(18)
C1A_11 N1_11 C2_11 C7_11 -108.2(18)
Zn1 N1_11 C2_11 C7_11 68.0(17)
C1A_11 N1_11 C2_11 C3_11 73(2)
Zn1 N1_11 C2_11 C3_11 -110.6(15)
C7_11 C2_11 C3_11 C4_11 0.7(17)
N1_11 C2_11 C3_11 C4_11 179.3(17)
C2_11 C3_11 C4_11 C5_11 -0.8(18)
C3_11 C4_11 C5_11 C6_11 -0.8(17)
C3_11 C4_11 C5_11 N8_11 -178.4(15)
C4_11 C5_11 C6_11 C7_11 2.5(16)
N8_11 C5_11 C6_11 C7_11 -180.0(15)
C3_11 C2_11 C7_11 C6_11 1.1(16)
N1_11 C2_11 C7_11 C6_11 -177.7(16)
C5_11 C6_11 C7_11 C2_11 -2.6(18)
C4_11 C5_11 N8_11 C21_11 91.5(14)
C6_11 C5_11 N8_11 C21_11 -86.1(14)
C4_11 C5_11 N8_11 C9_11 -92.6(14)
C6_11 C5_11 N8_11 C9_11 89.8(15)
C21_11 N8_11 C9_11 O24_11 -176.1(16)
C5_11 N8_11 C9_11 O24_11 8.4(19)
C21_11 N8_11 C9_11 C10_11 4.5(14)
C5_11 N8_11 C9_11 C10_11 -171.0(12)
O24_11 C9_11 C10_11 C11_11 -1.5(19)
N8_11 C9_11 C10_11 C11_11 177.8(12)
O24_11 C9_11 C10_11 C22_11 179.4(16)
N8_11 C9_11 C10_11 C22_11 -1.3(13)
C22_11 C10_11 C11_11 C12_11 2.8(16)
C9_11 C10_11 C11_11 C12_11 -176.3(13)
C10_11 C11_11 C12_11 C13_11 -2.5(18)
C11_11 C12_11 C13_11 C23_11 0.9(16)
C11_11 C12_11 C13_11 C14_11 -179.3(13)
C12_11 C13_11 C14_11 O25_11 -1.1(19)
C23_11 C13_11 C14_11 O25_11 178.7(15)
C12_11 C13_11 C14_11 N15_11 179.4(12)
C23_11 C13_11 C14_11 N15_11 -0.8(13)
O25_11 C14_11 N15_11 C16_11 -177.5(15)
C13_11 C14_11 N15_11 C16_11 1.9(14)
O25_11 C14_11 N15_11 C28_11 1.2(18)
C13_11 C14_11 N15_11 C28_11 -179.3(12)
C14_11 N15_11 C16_11 O26_11 174.6(15)
C28_11 N15_11 C16_11 O26_11 -4.1(18)
C14_11 N15_11 C16_11 C17_11 -2.3(14)
C28_11 N15_11 C16_11 C17_11 179.0(12)
O26_11 C16_11 C17_11 C18_11 5.4(19)
N15_11 C16_11 C17_11 C18_11 -177.9(13)
O26_11 C16_11 C17_11 C23_11 -175.2(15)
N15_11 C16_11 C17_11 C23_11 1.5(13)
C23_11 C17_11 C18_11 C19_11 1.0(16)
C16_11 C17_11 C18_11 C19_11 -179.6(13)
C17_11 C18_11 C19_11 C20_11 1.0(17)
C18_11 C19_11 C20_11 C22_11 -2.6(16)
C18_11 C19_11 C20_11 C21_11 176.5(12)
C9_11 N8_11 C21_11 O27_11 174.6(15)
C5_11 N8_11 C21_11 O27_11 -9.8(17)
C9_11 N8_11 C21_11 C20_11 -4.1(14)
C5_11 N8_11 C21_11 C20_11 171.5(12)
C19_11 C20_11 C21_11 O27_11 2.6(18)
C22_11 C20_11 C21_11 O27_11 -178.2(15)
C19_11 C20_11 C21_11 N8_11 -178.7(12)
C22_11 C20_11 C21_11 N8_11 0.4(13)
C19_11 C20_11 C22_11 C23_11 2.1(13)
C21_11 C20_11 C22_11 C23_11 -177.0(10)
C19_11 C20_11 C22_11 C10_11 -178.4(12)
C21_11 C20_11 C22_11 C10_11 2.5(12)
C11_11 C10_11 C22_11 C20_11 178.8(13)
C9_11 C10_11 C22_11 C20_11 -2.1(12)
C11_11 C10_11 C22_11 C23_11 -1.7(13)
C9_11 C10_11 C22_11 C23_11 177.4(11)
C12_11 C13_11 C23_11 C22_11 0.3(13)
C14_11 C13_11 C23_11 C22_11 -179.5(11)
C12_11 C13_11 C23_11 C17_11 180.0(12)
C14_11 C13_11 C23_11 C17_11 0.2(12)
C20_11 C22_11 C23_11 C13_11 179.7(10)
C10_11 C22_11 C23_11 C13_11 0.1(12)
C20_11 C22_11 C23_11 C17_11 0.0(12)
C10_11 C22_11 C23_11 C17_11 -179.6(10)
C18_11 C17_11 C23_11 C13_11 178.9(12)
C16_11 C17_11 C23_11 C13_11 -0.5(12)
C18_11 C17_11 C23_11 C22_11 -1.4(13)
C16_11 C17_11 C23_11 C22_11 179.1(11)
C16_11 N15_11 C28_11 C29_11 112.1(14)
C14_11 N15_11 C28_11 C29_11 -66.7(15)
C16_11 N15_11 C28_11 C33_11 -69.1(15)
C14_11 N15_11 C28_11 C33_11 112.0(14)
C33_11 C28_11 C29_11 C30_11 -2.3(17)
N15_11 C28_11 C29_11 C30_11 176.4(15)
C28_11 C29_11 C30_11 C31_11 0.8(19)
C29_11 C30_11 C31_11 C32_11 1.1(17)
C29_11 C30_11 C31_11 N34_11 -176.2(17)
C30_11 C31_11 C32_11 C33_11 -1.6(17)
N34_11 C31_11 C32_11 C33_11 175.6(17)
C31_11 C32_11 C33_11 C28_11 0.2(19)
C29_11 C28_11 C33_11 C32_11 1.8(17)
N15_11 C28_11 C33_11 C32_11 -176.9(15)
C30_11 C31_11 N34_11 C34A_11 -100(2)
C32_11 C31_11 N34_11 C34A_11 83(2)
C30_11 C31_11 N34_11 Zn2 79.5(17)
C32_11 C31_11 N34_11 Zn2 -97.6(16)
C2_11 N1_11 C1A_11 C1B_11 -179.2(13)
Zn1 N1_11 C1A_11 C1B_11 3.9(18)
C31_11 N34_11 C34A_11 C34B_11 -177.9(15)
Zn2 N34_11 C34A_11 C34B_11 2(2)
N1_11 C1A_11 C1B_11 N1C_11 -2.0(19)
N1_11 C1A_11 C1B_11 C1G_11 -179.5(15)
N34_11 C34A_11 C34B_11 N34C_11 0(2)
N34_11 C34A_11 C34B_11 C34G_11 179.8(17)
C1G_11 C1B_11 N1C_11 C1D_11 1.8(17)
C1A_11 C1B_11 N1C_11 C1D_11 -175.4(15)
C1G_11 C1B_11 N1C_11 Zn1 176.1(11)
C1A_11 C1B_11 N1C_11 Zn1 -1.1(14)
C34G_11 C34B_11 N34C_11 C34D_11 -1.5(18)
C34A_11 C34B_11 N34C_11 C34D_11 178.3(17)
C34G_11 C34B_11 N34C_11 Zn2 177.7(12)
C34A_11 C34B_11 N34C_11 Zn2 -2.4(15)
C1B_11 N1C_11 C1D_11 C1E_11 -1.5(19)
Zn1 N1C_11 C1D_11 C1E_11 -174.5(13)
C34B_11 N34C_11 C34D_11 C34E_11 0(2)
Zn2 N34C_11 C34D_11 C34E_11 -179.0(14)
N1C_11 C1D_11 C1E_11 C1F_11 0(2)
N34C_11 C34D_11 C34E_11 C34F_11 2(2)
C1D_11 C1E_11 C1F_11 C1G_11 2(2)
C34D_11 C34E_11 C34F_11 C34G_11 -2(2)
C1E_11 C1F_11 C1G_11 C1B_11 -1.5(19)
N1C_11 C1B_11 C1G_11 C1F_11 -0.3(17)
C1A_11 C1B_11 C1G_11 C1F_11 176.9(15)
C34E_11 C34F_11 C34G_11 C34B_11 0(2)
N34C_11 C34B_11 C34G_11 C34F_11 1.3(17)
C34A_11 C34B_11 C34G_11 C34F_11 -178.5(16)
C1A_12 N1_12 C2_12 C3_12 107(2)
Zn4 N1_12 C2_12 C3_12 -79.2(17)
C1A_12 N1_12 C2_12 C7_12 -72(2)
Zn4 N1_12 C2_12 C7_12 101.1(17)
C7_12 C2_12 C3_12 C4_12 -1.9(18)
N1_12 C2_12 C3_12 C4_12 178.4(19)
C2_12 C3_12 C4_12 C5_12 1.5(19)
C3_12 C4_12 C5_12 C6_12 0.3(17)
C3_12 C4_12 C5_12 N8_12 -179.4(16)
C4_12 C5_12 C6_12 C7_12 -1.7(17)
N8_12 C5_12 C6_12 C7_12 178.0(17)
C5_12 C6_12 C7_12 C2_12 1.3(19)
C3_12 C2_12 C7_12 C6_12 0.5(17)
N1_12 C2_12 C7_12 C6_12 -179.8(19)
C6_12 C5_12 N8_12 C21_12 -80.8(16)
C4_12 C5_12 N8_12 C21_12 98.8(15)
C6_12 C5_12 N8_12 C9_12 104.7(15)
C4_12 C5_12 N8_12 C9_12 -75.7(15)
C21_12 N8_12 C9_12 O24_12 172.4(16)
C5_12 N8_12 C9_12 O24_12 -13.6(18)
C21_12 N8_12 C9_12 C10_12 -3.0(14)
C5_12 N8_12 C9_12 C10_12 171.0(13)
O24_12 C9_12 C10_12 C11_12 6.2(19)
N8_12 C9_12 C10_12 C11_12 -178.6(13)
O24_12 C9_12 C10_12 C22_12 -174.6(15)
N8_12 C9_12 C10_12 C22_12 0.6(13)
C22_12 C10_12 C11_12 C12_12 -2.7(16)
C9_12 C10_12 C11_12 C12_12 176.5(13)
C10_12 C11_12 C12_12 C13_12 1.5(17)
C11_12 C12_12 C13_12 C23_12 0.7(15)
C11_12 C12_12 C13_12 C14_12 178.9(12)
C12_12 C13_12 C14_12 O25_12 0.9(18)
C23_12 C13_12 C14_12 O25_12 179.1(14)
C12_12 C13_12 C14_12 N15_12 -178.8(11)
C23_12 C13_12 C14_12 N15_12 -0.6(12)
O25_12 C14_12 N15_12 C16_12 179.7(14)
C13_12 C14_12 N15_12 C16_12 -0.7(13)
O25_12 C14_12 N15_12 C28_12 -7.7(16)
C13_12 C14_12 N15_12 C28_12 171.9(11)
C14_12 N15_12 C16_12 O26_12 -178.8(14)
C28_12 N15_12 C16_12 O26_12 8.6(16)
C14_12 N15_12 C16_12 C17_12 1.5(13)
C28_12 N15_12 C16_12 C17_12 -171.2(11)
O26_12 C16_12 C17_12 C18_12 -0.3(18)
N15_12 C16_12 C17_12 C18_12 179.5(12)
O26_12 C16_12 C17_12 C23_12 179.2(14)
N15_12 C16_12 C17_12 C23_12 -1.1(12)
C23_12 C17_12 C18_12 C19_12 -1.0(16)
C16_12 C17_12 C18_12 C19_12 178.4(13)
C17_12 C18_12 C19_12 C20_12 0.9(18)
C18_12 C19_12 C20_12 C22_12 0.1(16)
C18_12 C19_12 C20_12 C21_12 -178.5(13)
C9_12 N8_12 C21_12 O27_12 -176.9(16)
C5_12 N8_12 C21_12 O27_12 9.2(18)
C9_12 N8_12 C21_12 C20_12 3.1(14)
C5_12 N8_12 C21_12 C20_12 -170.7(13)
C19_12 C20_12 C21_12 O27_12 -2.3(19)
C22_12 C20_12 C21_12 O27_12 179.1(16)
C19_12 C20_12 C21_12 N8_12 177.7(12)
C22_12 C20_12 C21_12 N8_12 -1.0(13)
C11_12 C10_12 C22_12 C20_12 -179.5(12)
C9_12 C10_12 C22_12 C20_12 1.3(12)
C11_12 C10_12 C22_12 C23_12 1.7(13)
C9_12 C10_12 C22_12 C23_12 -177.5(11)
C19_12 C20_12 C22_12 C10_12 -179.8(12)
C21_12 C20_12 C22_12 C10_12 -1.1(12)
C19_12 C20_12 C22_12 C23_12 -1.0(13)
C21_12 C20_12 C22_12 C23_12 177.7(11)
C18_12 C17_12 C23_12 C13_12 179.4(12)
C16_12 C17_12 C23_12 C13_12 -0.1(12)
C18_12 C17_12 C23_12 C22_12 0.1(13)
C16_12 C17_12 C23_12 C22_12 -179.3(10)
C12_12 C13_12 C23_12 C17_12 179.1(12)
C14_12 C13_12 C23_12 C17_12 0.9(12)
C12_12 C13_12 C23_12 C22_12 -1.6(13)
C14_12 C13_12 C23_12 C22_12 -179.8(10)
C10_12 C22_12 C23_12 C17_12 179.7(10)
C20_12 C22_12 C23_12 C17_12 0.9(12)
C10_12 C22_12 C23_12 C13_12 0.4(12)
C20_12 C22_12 C23_12 C13_12 -178.4(10)
C14_12 N15_12 C28_12 C29_12 90.4(14)
C16_12 N15_12 C28_12 C29_12 -96.3(14)
C14_12 N15_12 C28_12 C33_12 -87.6(13)
C16_12 N15_12 C28_12 C33_12 85.7(13)
C33_12 C28_12 C29_12 C30_12 0.6(16)
N15_12 C28_12 C29_12 C30_12 -177.3(15)
C28_12 C29_12 C30_12 C31_12 -0.4(18)
C29_12 C30_12 C31_12 C32_12 -0.2(17)
C29_12 C30_12 C31_12 N34_12 179.9(16)
C30_12 C31_12 C32_12 C33_12 0.5(17)
N34_12 C31_12 C32_12 C33_12 -179.5(16)
C31_12 C32_12 C33_12 C28_12 -0.3(18)
C29_12 C28_12 C33_12 C32_12 -0.3(16)
N15_12 C28_12 C33_12 C32_12 177.7(15)
C30_12 C31_12 N34_12 C34A_12 -98.7(17)
C32_12 C31_12 N34_12 C34A_12 81.4(18)
C30_12 C31_12 N34_12 Zn1 84.1(15)
C32_12 C31_12 N34_12 Zn1 -95.8(14)
C2_12 N1_12 C1A_12 C1B_12 -175.9(15)
Zn4 N1_12 C1A_12 C1B_12 10(2)
C31_12 N34_12 C34A_12 C34B_12 -178.3(12)
Zn1 N34_12 C34A_12 C34B_12 -0.6(16)
N1_12 C1A_12 C1B_12 N1C_12 -1(2)
N1_12 C1A_12 C1B_12 C1G_12 178.2(16)
N34_12 C34A_12 C34B_12 N34C_12 1.9(17)
N34_12 C34A_12 C34B_12 C34G_12 180.0(14)
C1G_12 C1B_12 N1C_12 C1D_12 -0.1(18)
C1A_12 C1B_12 N1C_12 C1D_12 178.5(17)
C1G_12 C1B_12 N1C_12 Zn4 172.0(13)
C1A_12 C1B_12 N1C_12 Zn4 -9.3(15)
C34G_12 C34B_12 N34C_12 C34D_12 -0.7(16)
C34A_12 C34B_12 N34C_12 C34D_12 177.3(13)
C34G_12 C34B_12 N34C_12 Zn1 179.7(11)
C34A_12 C34B_12 N34C_12 Zn1 -2.3(13)
C1B_12 N1C_12 C1D_12 C1E_12 1(2)
Zn4 N1C_12 C1D_12 C1E_12 -169.5(16)
C34B_12 N34C_12 C34D_12 C34E_12 1.0(19)
Zn1 N34C_12 C34D_12 C34E_12 -179.5(14)
N1C_12 C1D_12 C1E_12 C1F_12 -2(2)
N34C_12 C34D_12 C34E_12 C34F_12 -1(2)
C1D_12 C1E_12 C1F_12 C1G_12 1(2)
C34D_12 C34E_12 C34F_12 C34G_12 0.3(19)
C1E_12 C1F_12 C1G_12 C1B_12 0(2)
N1C_12 C1B_12 C1G_12 C1F_12 -0.5(18)
C1A_12 C1B_12 C1G_12 C1F_12 -179.1(17)
C34E_12 C34F_12 C34G_12 C34B_12 -0.1(18)
N34C_12 C34B_12 C34G_12 C34F_12 0.3(16)
C34A_12 C34B_12 C34G_12 C34F_12 -177.6(13)
C1A_13 N1_13 C2_13 C3_13 108(2)
Zn4 N1_13 C2_13 C3_13 -75.2(17)
C1A_13 N1_13 C2_13 C7_13 -73(2)
Zn4 N1_13 C2_13 C7_13 103.1(15)
C7_13 C2_13 C3_13 C4_13 -2.5(17)
N1_13 C2_13 C3_13 C4_13 175.8(17)
C2_13 C3_13 C4_13 C5_13 1.2(18)
C3_13 C4_13 C5_13 C6_13 0.7(17)
C3_13 C4_13 C5_13 N8_13 -179.1(16)
C4_13 C5_13 C6_13 C7_13 -1.3(17)
N8_13 C5_13 C6_13 C7_13 178.5(15)
C5_13 C6_13 C7_13 C2_13 0.1(18)
C3_13 C2_13 C7_13 C6_13 1.9(17)
N1_13 C2_13 C7_13 C6_13 -176.5(16)
C4_13 C5_13 N8_13 C9_13 -63.4(16)
C6_13 C5_13 N8_13 C9_13 116.7(14)
C4_13 C5_13 N8_13 C21_13 113.5(14)
C6_13 C5_13 N8_13 C21_13 -66.4(16)
C21_13 N8_13 C9_13 O24_13 -176.9(17)
C5_13 N8_13 C9_13 O24_13 0(2)
C21_13 N8_13 C9_13 C10_13 0.6(14)
C5_13 N8_13 C9_13 C10_13 177.2(14)
O24_13 C9_13 C10_13 C11_13 -1(2)
N8_13 C9_13 C10_13 C11_13 -178.0(14)
O24_13 C9_13 C10_13 C22_13 177.9(17)
N8_13 C9_13 C10_13 C22_13 0.6(13)
C22_13 C10_13 C11_13 C12_13 -1.0(17)
C9_13 C10_13 C11_13 C12_13 177.5(14)
C10_13 C11_13 C12_13 C13_13 1.6(19)
C11_13 C12_13 C13_13 C23_13 -0.4(16)
C11_13 C12_13 C13_13 C14_13 179.6(14)
C12_13 C13_13 C14_13 O25_13 -3(2)
C23_13 C13_13 C14_13 O25_13 176.7(17)
C12_13 C13_13 C14_13 N15_13 177.8(13)
C23_13 C13_13 C14_13 N15_13 -2.2(13)
O25_13 C14_13 N15_13 C16_13 -176.6(17)
C13_13 C14_13 N15_13 C16_13 2.3(14)
O25_13 C14_13 N15_13 C28_13 4.3(19)
C13_13 C14_13 N15_13 C28_13 -176.7(13)
C14_13 N15_13 C16_13 O26_13 -177.0(17)
C28_13 N15_13 C16_13 O26_13 2.1(19)
C14_13 N15_13 C16_13 C17_13 -0.6(14)
C28_13 N15_13 C16_13 C17_13 178.5(13)
O26_13 C16_13 C17_13 C18_13 -1(2)
N15_13 C16_13 C17_13 C18_13 -177.3(14)
O26_13 C16_13 C17_13 C23_13 175.0(16)
N15_13 C16_13 C17_13 C23_13 -1.4(13)
C23_13 C17_13 C18_13 C19_13 -2.0(17)
C16_13 C17_13 C18_13 C19_13 173.9(15)
C17_13 C18_13 C19_13 C20_13 4.0(19)
C18_13 C19_13 C20_13 C22_13 -2.8(17)
C18_13 C19_13 C20_13 C21_13 178.3(14)
C9_13 N8_13 C21_13 O27_13 176.9(17)
C5_13 N8_13 C21_13 O27_13 0.2(19)
C9_13 N8_13 C21_13 C20_13 -1.1(14)
C5_13 N8_13 C21_13 C20_13 -177.8(13)
C19_13 C20_13 C21_13 O27_13 1(2)
C22_13 C20_13 C21_13 O27_13 -177.4(17)
C19_13 C20_13 C21_13 N8_13 179.4(14)
C22_13 C20_13 C21_13 N8_13 0.5(13)
C19_13 C20_13 C22_13 C10_13 -178.3(14)
C21_13 C20_13 C22_13 C10_13 0.6(13)
C19_13 C20_13 C22_13 C23_13 -0.2(14)
C21_13 C20_13 C22_13 C23_13 178.7(12)
C11_13 C10_13 C22_13 C20_13 177.5(14)
C9_13 C10_13 C22_13 C20_13 -1.1(13)
C11_13 C10_13 C22_13 C23_13 -0.7(14)
C9_13 C10_13 C22_13 C23_13 -179.3(12)
C12_13 C13_13 C23_13 C17_13 -179.6(13)
C14_13 C13_13 C23_13 C17_13 0.4(13)
C12_13 C13_13 C23_13 C22_13 -1.3(14)
C14_13 C13_13 C23_13 C22_13 178.7(12)
C18_13 C17_13 C23_13 C13_13 177.4(14)
C16_13 C17_13 C23_13 C13_13 1.4(13)
C18_13 C17_13 C23_13 C22_13 -0.9(14)
C16_13 C17_13 C23_13 C22_13 -176.9(12)
C20_13 C22_13 C23_13 C13_13 -176.4(12)
C10_13 C22_13 C23_13 C13_13 1.8(13)
C20_13 C22_13 C23_13 C17_13 2.0(13)
C10_13 C22_13 C23_13 C17_13 -179.8(11)
C14_13 N15_13 C28_13 C29_13 68.2(15)
C16_13 N15_13 C28_13 C29_13 -110.9(14)
C14_13 N15_13 C28_13 C33_13 -112.4(14)
C16_13 N15_13 C28_13 C33_13 68.5(15)
C33_13 C28_13 C29_13 C30_13 -0.2(17)
N15_13 C28_13 C29_13 C30_13 179.2(15)
C28_13 C29_13 C30_13 C31_13 1.2(18)
C29_13 C30_13 C31_13 C32_13 -2.2(16)
C29_13 C30_13 C31_13 N34_13 -179.8(16)
C30_13 C31_13 C32_13 C33_13 2.2(17)
N34_13 C31_13 C32_13 C33_13 179.7(16)
C31_13 C32_13 C33_13 C28_13 -1.2(18)
C29_13 C28_13 C33_13 C32_13 0.1(16)
N15_13 C28_13 C33_13 C32_13 -179.2(15)
C30_13 C31_13 N34_13 C34A_13 -117.5(18)
C32_13 C31_13 N34_13 C34A_13 65(2)
C30_13 C31_13 N34_13 Zn2 67.3(17)
C32_13 C31_13 N34_13 Zn2 -110.2(15)
C2_13 N1_13 C1A_13 C1B_13 -179.0(15)
Zn4 N1_13 C1A_13 C1B_13 4(2)
C31_13 N34_13 C34A_13 C34B_13 178.4(14)
Zn2 N34_13 C34A_13 C34B_13 -6(2)
N1_13 C1A_13 C1B_13 N1C_13 -2(2)
N1_13 C1A_13 C1B_13 C1G_13 -176.8(16)
N34_13 C34A_13 C34B_13 N34C_13 -2(2)
N34_13 C34A_13 C34B_13 C34G_13 179.1(16)
C1G_13 C1B_13 N1C_13 C1D_13 0.9(17)
C1A_13 C1B_13 N1C_13 C1D_13 -173.9(16)
C1G_13 C1B_13 N1C_13 Zn4 172.8(13)
C1A_13 C1B_13 N1C_13 Zn4 -2.0(15)
C34G_13 C34B_13 N34C_13 C34D_13 4.5(18)
C34A_13 C34B_13 N34C_13 C34D_13 -173.9(15)
C34G_13 C34B_13 N34C_13 Zn2 -172.1(12)
C34A_13 C34B_13 N34C_13 Zn2 9.5(14)
C1B_13 N1C_13 C1D_13 C1E_13 1(2)
Zn4 N1C_13 C1D_13 C1E_13 -169.3(17)
C34B_13 N34C_13 C34D_13 C34E_13 -2(2)
Zn2 N34C_13 C34D_13 C34E_13 174.5(14)
N1C_13 C1D_13 C1E_13 C1F_13 -1(2)
N34C_13 C34D_13 C34E_13 C34F_13 -2(2)
C1D_13 C1E_13 C1F_13 C1G_13 -1(2)
C34D_13 C34E_13 C34F_13 C34G_13 2(2)
C1E_13 C1F_13 C1G_13 C1B_13 3.1(19)
N1C_13 C1B_13 C1G_13 C1F_13 -3.2(17)
C1A_13 C1B_13 C1G_13 C1F_13 171.4(16)
C34E_13 C34F_13 C34G_13 C34B_13 0.2(19)
N34C_13 C34B_13 C34G_13 C34F_13 -3.8(17)
C34A_13 C34B_13 C34G_13 C34F_13 174.5(16)
C1A_14 N1_14 C2_14 C3_14 83(2)
Zn3 N1_14 C2_14 C3_14 -89.7(16)
C1A_14 N1_14 C2_14 C7_14 -97.8(18)
Zn3 N1_14 C2_14 C7_14 89.5(15)
C7_14 C2_14 C3_14 C4_14 1.6(17)
N1_14 C2_14 C3_14 C4_14 -179.2(16)
C2_14 C3_14 C4_14 C5_14 -0.3(18)
C3_14 C4_14 C5_14 C6_14 -1.4(16)
C3_14 C4_14 C5_14 N8_14 175.2(14)
C4_14 C5_14 C6_14 C7_14 1.8(16)
N8_14 C5_14 C6_14 C7_14 -174.7(14)
C5_14 C6_14 C7_14 C2_14 -0.6(17)
C3_14 C2_14 C7_14 C6_14 -1.1(16)
N1_14 C2_14 C7_14 C6_14 179.7(15)
C4_14 C5_14 N8_14 C21_14 99.6(13)
C6_14 C5_14 N8_14 C21_14 -83.7(14)
C4_14 C5_14 N8_14 C9_14 -82.0(14)
C6_14 C5_14 N8_14 C9_14 94.6(14)
C21_14 N8_14 C9_14 O24_14 -178.8(15)
C5_14 N8_14 C9_14 O24_14 3.0(18)
C21_14 N8_14 C9_14 C10_14 3.0(14)
C5_14 N8_14 C9_14 C10_14 -175.2(13)
O24_14 C9_14 C10_14 C11_14 -2.4(19)
N8_14 C9_14 C10_14 C11_14 175.6(12)
O24_14 C9_14 C10_14 C22_14 179.2(15)
N8_14 C9_14 C10_14 C22_14 -2.8(13)
C22_14 C10_14 C11_14 C12_14 -1.5(16)
C9_14 C10_14 C11_14 C12_14 -179.9(13)
C10_14 C11_14 C12_14 C13_14 -1.4(18)
C11_14 C12_14 C13_14 C23_14 2.9(15)
C11_14 C12_14 C13_14 C14_14 -174.8(13)
C12_14 C13_14 C14_14 O25_14 -2.8(19)
C23_14 C13_14 C14_14 O25_14 179.4(15)
C12_14 C13_14 C14_14 N15_14 176.4(12)
C23_14 C13_14 C14_14 N15_14 -1.4(12)
O25_14 C14_14 N15_14 C16_14 -177.4(16)
C13_14 C14_14 N15_14 C16_14 3.4(14)
O25_14 C14_14 N15_14 C28_14 10.3(18)
C13_14 C14_14 N15_14 C28_14 -168.9(13)
C14_14 N15_14 C16_14 O26_14 -177.6(16)
C28_14 N15_14 C16_14 O26_14 -5.1(19)
C14_14 N15_14 C16_14 C17_14 -2.2(14)
C28_14 N15_14 C16_14 C17_14 170.3(12)
O26_14 C16_14 C17_14 C18_14 -2.3(19)
N15_14 C16_14 C17_14 C18_14 -177.7(12)
O26_14 C16_14 C17_14 C23_14 174.4(16)
N15_14 C16_14 C17_14 C23_14 -1.0(13)
C23_14 C17_14 C18_14 C19_14 0.5(16)
C16_14 C17_14 C18_14 C19_14 177.2(13)
C17_14 C18_14 C19_14 C20_14 -1.7(18)
C18_14 C19_14 C20_14 C22_14 0.5(16)
C18_14 C19_14 C20_14 C21_14 -178.5(13)
C9_14 N8_14 C21_14 O27_14 176.1(15)
C5_14 N8_14 C21_14 O27_14 -5.7(18)
C9_14 N8_14 C21_14 C20_14 -1.2(13)
C5_14 N8_14 C21_14 C20_14 177.0(12)
C19_14 C20_14 C21_14 O27_14 0.8(19)
C22_14 C20_14 C21_14 O27_14 -178.1(15)
C19_14 C20_14 C21_14 N8_14 177.9(13)
C22_14 C20_14 C21_14 N8_14 -1.0(13)
C11_14 C10_14 C22_14 C20_14 -177.7(12)
C9_14 C10_14 C22_14 C20_14 0.8(12)
C11_14 C10_14 C22_14 C23_14 2.7(13)
C9_14 C10_14 C22_14 C23_14 -178.9(11)
C19_14 C20_14 C22_14 C10_14 -177.8(12)
C21_14 C20_14 C22_14 C10_14 1.2(13)
C19_14 C20_14 C22_14 C23_14 1.9(13)
C21_14 C20_14 C22_14 C23_14 -179.2(11)
C18_14 C17_14 C23_14 C22_14 1.9(13)
C16_14 C17_14 C23_14 C22_14 -174.8(11)
C18_14 C17_14 C23_14 C13_14 179.5(12)
C16_14 C17_14 C23_14 C13_14 2.8(13)
C10_14 C22_14 C23_14 C17_14 176.6(10)
C20_14 C22_14 C23_14 C17_14 -3.0(12)
C10_14 C22_14 C23_14 C13_14 -1.1(12)
C20_14 C22_14 C23_14 C13_14 179.2(10)
C12_14 C13_14 C23_14 C17_14 -179.4(12)
C14_14 C13_14 C23_14 C17_14 -1.6(12)
C12_14 C13_14 C23_14 C22_14 -1.7(13)
C14_14 C13_14 C23_14 C22_14 176.1(11)
C14_14 N15_14 C28_14 C29_14 89.1(14)
C16_14 N15_14 C28_14 C29_14 -84.1(14)
C14_14 N15_14 C28_14 C33_14 -92.8(14)
C16_14 N15_14 C28_14 C33_14 94.1(14)
C33_14 C28_14 C29_14 C30_14 -0.1(17)
N15_14 C28_14 C29_14 C30_14 178.0(15)
C28_14 C29_14 C30_14 C31_14 0.1(18)
C29_14 C30_14 C31_14 C32_14 -0.2(17)
C29_14 C30_14 C31_14 N34_14 -177.7(16)
C30_14 C31_14 C32_14 C33_14 0.3(16)
N34_14 C31_14 C32_14 C33_14 177.8(16)
C31_14 C32_14 C33_14 C28_14 -0.4(17)
C29_14 C28_14 C33_14 C32_14 0.3(16)
N15_14 C28_14 C33_14 C32_14 -177.8(15)
C32_14 C31_14 N34_14 C34A_14 73(2)
C30_14 C31_14 N34_14 C34A_14 -109.3(18)
C32_14 C31_14 N34_14 Zn1 -106.8(15)
C30_14 C31_14 N34_14 Zn1 70.7(17)
C2_14 N1_14 C1A_14 C1B_14 178.9(14)
Zn3 N1_14 C1A_14 C1B_14 -7.4(19)
C31_14 N34_14 C34A_14 C34B_14 177.2(14)
Zn1 N34_14 C34A_14 C34B_14 -2.8(19)
N1_14 C1A_14 C1B_14 N1C_14 -1.8(19)
N1_14 C1A_14 C1B_14 C1G_14 179.6(15)
N34_14 C34A_14 C34B_14 N34C_14 0.2(19)
N34_14 C34A_14 C34B_14 C34G_14 -179.0(15)
C1G_14 C1B_14 N1C_14 C1D_14 0.6(17)
C1A_14 C1B_14 N1C_14 C1D_14 -178.0(15)
C1G_14 C1B_14 N1C_14 Zn3 -170.4(12)
C1A_14 C1B_14 N1C_14 Zn3 11.0(15)
C34G_14 C34B_14 N34C_14 C34D_14 1.3(18)
C34A_14 C34B_14 N34C_14 C34D_14 -177.9(16)
C34G_14 C34B_14 N34C_14 Zn1 -178.3(13)
C34A_14 C34B_14 N34C_14 Zn1 2.5(15)
C1B_14 N1C_14 C1D_14 C1E_14 -2.4(19)
Zn3 N1C_14 C1D_14 C1E_14 167.5(15)
C34B_14 N34C_14 C34D_14 C34E_14 0(2)
Zn1 N34C_14 C34D_14 C34E_14 179.1(15)
N1C_14 C1D_14 C1E_14 C1F_14 3(2)
N34C_14 C34D_14 C34E_14 C34F_14 -1(2)
C1D_14 C1E_14 C1F_14 C1G_14 -1.2(19)
C34D_14 C34E_14 C34F_14 C34G_14 1(2)
N1C_14 C1B_14 C1G_14 C1F_14 0.8(17)
C1A_14 C1B_14 C1G_14 C1F_14 179.4(15)
C1E_14 C1F_14 C1G_14 C1B_14 -0.5(18)
C34E_14 C34F_14 C34G_14 C34B_14 0(2)
N34C_14 C34B_14 C34G_14 C34F_14 -0.9(17)
C34A_14 C34B_14 C34G_14 C34F_14 178.3(16)
C1A_15 N1_15 C2_15 C7_15 -62(2)
Zn3 N1_15 C2_15 C7_15 110.5(15)
C1A_15 N1_15 C2_15 C3_15 117.3(18)
Zn3 N1_15 C2_15 C3_15 -70.1(17)
C7_15 C2_15 C3_15 C4_15 0.2(17)
N1_15 C2_15 C3_15 C4_15 -179.2(18)
C2_15 C3_15 C4_15 C5_15 0.5(19)
C3_15 C4_15 C5_15 C6_15 -0.8(17)
C3_15 C4_15 C5_15 N8_15 174.5(16)
C4_15 C5_15 C6_15 C7_15 0.3(17)
N8_15 C5_15 C6_15 C7_15 -174.6(16)
C3_15 C2_15 C7_15 C6_15 -0.6(17)
N1_15 C2_15 C7_15 C6_15 178.8(17)
C5_15 C6_15 C7_15 C2_15 0.4(19)
C6_15 C5_15 N8_15 C9_15 -102.9(15)
C4_15 C5_15 N8_15 C9_15 82.1(14)
C6_15 C5_15 N8_15 C21_15 79.5(16)
C4_15 C5_15 N8_15 C21_15 -95.5(14)
C21_15 N8_15 C9_15 O24_15 -172.4(15)
C5_15 N8_15 C9_15 O24_15 10.2(18)
C21_15 N8_15 C9_15 C10_15 3.7(14)
C5_15 N8_15 C9_15 C10_15 -173.8(12)
O24_15 C9_15 C10_15 C11_15 -6.8(19)
N8_15 C9_15 C10_15 C11_15 177.2(12)
O24_15 C9_15 C10_15 C22_15 175.2(15)
N8_15 C9_15 C10_15 C22_15 -0.8(13)
C22_15 C10_15 C11_15 C12_15 -1.0(16)
C9_15 C10_15 C11_15 C12_15 -178.9(13)
C10_15 C11_15 C12_15 C13_15 3.1(18)
C11_15 C12_15 C13_15 C23_15 -3.0(16)
C11_15 C12_15 C13_15 C14_15 173.8(14)
C12_15 C13_15 C14_15 O25_15 4.8(19)
C23_15 C13_15 C14_15 O25_15 -178.3(16)
C12_15 C13_15 C14_15 N15_15 -177.6(13)
C23_15 C13_15 C14_15 N15_15 -0.7(13)
O25_15 C14_15 N15_15 C16_15 177.5(16)
C13_15 C14_15 N15_15 C16_15 -0.2(14)
O25_15 C14_15 N15_15 C28_15 0.4(18)
C13_15 C14_15 N15_15 C28_15 -177.3(12)
C14_15 N15_15 C16_15 O26_15 178.0(15)
C28_15 N15_15 C16_15 O26_15 -5.0(18)
C14_15 N15_15 C16_15 C17_15 0.3(14)
C28_15 N15_15 C16_15 C17_15 177.4(12)
O26_15 C16_15 C17_15 C18_15 1.5(18)
N15_15 C16_15 C17_15 C18_15 179.2(11)
O26_15 C16_15 C17_15 C23_15 -177.3(15)
N15_15 C16_15 C17_15 C23_15 0.4(12)
C23_15 C17_15 C18_15 C19_15 0.9(15)
C16_15 C17_15 C18_15 C19_15 -177.9(12)
C17_15 C18_15 C19_15 C20_15 1.0(18)
C18_15 C19_15 C20_15 C22_15 -1.4(15)
C18_15 C19_15 C20_15 C21_15 175.1(13)
C9_15 N8_15 C21_15 O27_15 171.7(14)
C5_15 N8_15 C21_15 O27_15 -10.9(17)
C9_15 N8_15 C21_15 C20_15 -3.7(13)
C5_15 N8_15 C21_15 C20_15 173.7(12)
C19_15 C20_15 C21_15 O27_15 9.4(18)
C22_15 C20_15 C21_15 O27_15 -174.2(13)
C19_15 C20_15 C21_15 N8_15 -175.4(12)
C22_15 C20_15 C21_15 N8_15 1.0(12)
C19_15 C20_15 C22_15 C10_15 178.1(12)
C21_15 C20_15 C22_15 C10_15 1.6(12)
C19_15 C20_15 C22_15 C23_15 -0.2(12)
C21_15 C20_15 C22_15 C23_15 -176.7(10)
C11_15 C10_15 C22_15 C20_15 -179.7(12)
C9_15 C10_15 C22_15 C20_15 -1.7(12)
C11_15 C10_15 C22_15 C23_15 -1.4(13)
C9_15 C10_15 C22_15 C23_15 176.6(11)
C18_15 C17_15 C23_15 C13_15 179.9(12)
C16_15 C17_15 C23_15 C13_15 -1.3(12)
C18_15 C17_15 C23_15 C22_15 -2.5(13)
C16_15 C17_15 C23_15 C22_15 176.3(11)
C12_15 C13_15 C23_15 C17_15 178.3(13)
C14_15 C13_15 C23_15 C17_15 1.4(12)
C12_15 C13_15 C23_15 C22_15 0.7(13)
C14_15 C13_15 C23_15 C22_15 -176.2(11)
C20_15 C22_15 C23_15 C17_15 2.2(12)
C10_15 C22_15 C23_15 C17_15 -176.2(10)
C20_15 C22_15 C23_15 C13_15 179.8(9)
C10_15 C22_15 C23_15 C13_15 1.5(12)
C16_15 N15_15 C28_15 C33_15 -86.5(14)
C14_15 N15_15 C28_15 C33_15 90.9(13)
C16_15 N15_15 C28_15 C29_15 95.4(14)
C14_15 N15_15 C28_15 C29_15 -87.2(14)
C33_15 C28_15 C29_15 C30_15 -0.6(16)
N15_15 C28_15 C29_15 C30_15 177.4(15)
C28_15 C29_15 C30_15 C31_15 -0.1(17)
C29_15 C30_15 C31_15 C32_15 1.0(16)
C29_15 C30_15 C31_15 N34_15 179.7(15)
C30_15 C31_15 C32_15 C33_15 -1.2(16)
N34_15 C31_15 C32_15 C33_15 -179.8(16)
C31_15 C32_15 C33_15 C28_15 0.4(18)
C29_15 C28_15 C33_15 C32_15 0.5(17)
N15_15 C28_15 C33_15 C32_15 -177.7(15)
C30_15 C31_15 N34_15 C34A_15 -121.9(16)
C32_15 C31_15 N34_15 C34A_15 57(2)
C30_15 C31_15 N34_15 Zn2 73.5(16)
C32_15 C31_15 N34_15 Zn2 -107.8(15)
C2_15 N1_15 C1A_15 C1B_15 179.3(13)
Zn3 N1_15 C1A_15 C1B_15 6(2)
C31_15 N34_15 C34A_15 C34B_15 -175.2(13)
Zn2 N34_15 C34A_15 C34B_15 -7.7(18)
N1_15 C1A_15 C1B_15 N1C_15 -1(2)
N1_15 C1A_15 C1B_15 C1G_15 177.3(15)
N34_15 C34A_15 C34B_15 N34C_15 3.2(19)
N34_15 C34A_15 C34B_15 C34G_15 -177.7(16)
C1G_15 C1B_15 N1C_15 C1D_15 -4.4(16)
C1A_15 C1B_15 N1C_15 C1D_15 173.7(14)
C1G_15 C1B_15 N1C_15 Zn3 177.5(10)
C1A_15 C1B_15 N1C_15 Zn3 -4.5(13)
C34G_15 C34B_15 N34C_15 C34D_15 -1.5(17)
C34A_15 C34B_15 N34C_15 C34D_15 177.7(15)
C34G_15 C34B_15 N34C_15 Zn2 -175.4(13)
C34A_15 C34B_15 N34C_15 Zn2 3.8(15)
C1B_15 N1C_15 C1D_15 C1E_15 5.1(19)
Zn3 N1C_15 C1D_15 C1E_15 -177.2(12)
C34B_15 N34C_15 C34D_15 C34E_15 0(2)
Zn2 N34C_15 C34D_15 C34E_15 173.2(16)
N1C_15 C1D_15 C1E_15 C1F_15 -3(2)
N34C_15 C34D_15 C34E_15 C34F_15 1(2)
C1D_15 C1E_15 C1F_15 C1G_15 -0.3(19)
C34D_15 C34E_15 C34F_15 C34G_15 -0.6(19)
N1C_15 C1B_15 C1G_15 C1F_15 1.5(17)
C1A_15 C1B_15 C1G_15 C1F_15 -176.4(14)
C1E_15 C1F_15 C1G_15 C1B_15 0.9(18)
C34E_15 C34F_15 C34G_15 C34B_15 -0.8(19)
N34C_15 C34B_15 C34G_15 C34F_15 1.9(17)
C34A_15 C34B_15 C34G_15 C34F_15 -177.2(16)
O3_60 S1_60 C4_60 F7_60 62(2)
O2_60 S1_60 C4_60 F7_60 -171(2)
N8_60 S1_60 C4_60 F7_60 -53(2)
O3_60 S1_60 C4_60 F6_60 -56(2)
O2_60 S1_60 C4_60 F6_60 71(2)
N8_60 S1_60 C4_60 F6_60 -170.5(17)
O3_60 S1_60 C4_60 F5_60 177.5(19)
O2_60 S1_60 C4_60 F5_60 -55(2)
N8_60 S1_60 C4_60 F5_60 63(2)
O3_60 S1_60 N8_60 S9_60 163.5(18)
O2_60 S1_60 N8_60 S9_60 29(2)
C4_60 S1_60 N8_60 S9_60 -86(2)
S1_60 N8_60 S9_60 O10_60 22(2)
S1_60 N8_60 S9_60 O11_60 163(2)
S1_60 N8_60 S9_60 C12_60 -91(2)
O10_60 S9_60 C12_60 F14_60 70(2)
O11_60 S9_60 C12_60 F14_60 -59(2)
N8_60 S9_60 C12_60 F14_60 -172.2(18)
O10_60 S9_60 C12_60 F13_60 -53(2)
O11_60 S9_60 C12_60 F13_60 177.8(18)
N8_60 S9_60 C12_60 F13_60 64.8(19)
O10_60 S9_60 C12_60 F15_60 -167.9(19)
O11_60 S9_60 C12_60 F15_60 63(2)
N8_60 S9_60 C12_60 F15_60 -50(2)
