#------------------------------------------------------------------------------
#$Date: 2016-04-16 04:56:33 +0300 (Sat, 16 Apr 2016) $
#$Revision: 182160 $
#$URL: svn://www.crystallography.net/cod/cif/1/54/31/1543127.cif $
#------------------------------------------------------------------------------
#
# This file is available in the Crystallography Open Database (COD),
# http://www.crystallography.net/. The original data for this entry
# were provided by IUCr Journals, http://journals.iucr.org/.
#
# The file may be used within the scientific community so long as
# proper attribution is given to the journal article from which the
# data were obtained.
#
data_1543127
loop_
_publ_author_name
'Hossain, G. M. Golzar'
_publ_section_title
;
 Sulfamerazine tetrahydrofuran monosolvate
;
_journal_coeditor_code           HB4037
_journal_issue                   4
_journal_name_full               IUCrData
_journal_page_first              x160596
_journal_paper_doi               10.1107/S2414314616005964
_journal_volume                  1
_journal_year                    2016
_chemical_formula_iupac          'C11 H12 N4 O2 S, C4 H8 O'
_chemical_formula_moiety         'C11 H12 N4 O2 S, C4 H8 O'
_chemical_formula_sum            'C15 H20 N4 O3 S'
_chemical_formula_weight         336.41
_chemical_name_systematic
;
4-Amino-<i>N</i>-(4-methylpyrimidin-2-yl)benzenesulfonamide
tetrahydrofuran monosolvate
;
_space_group_crystal_system      monoclinic
_space_group_IT_number           14
_space_group_name_Hall           '-P 2ybc'
_space_group_name_H-M_alt        'P 1 21/c 1'
_symmetry_space_group_name_Hall  '-P 2ybc'
_symmetry_space_group_name_H-M   'P 1 21/c 1'
_atom_sites_solution_hydrogens   geom
_audit_creation_method           SHELXL-2014/7
_cell_angle_alpha                90
_cell_angle_beta                 92.6180(10)
_cell_angle_gamma                90
_cell_formula_units_Z            12
_cell_length_a                   10.5765(2)
_cell_length_b                   11.8088(2)
_cell_length_c                   39.1512(7)
_cell_measurement_reflns_used    10636
_cell_measurement_temperature    150(2)
_cell_measurement_theta_max      27.47
_cell_measurement_theta_min      2.91
_cell_volume                     4884.72(15)
_computing_cell_refinement
;
(Otwinowski & Minor, 1997)
;
_computing_data_collection
;
COLLECT (Hooft, 1998; Nonius, 2004)
;
_computing_data_reduction
;
(Otwinowski & Minor, 1997)
;
_computing_molecular_graphics
;
ORTEP-3 for Windows (Farrugia, 2012)
;
_computing_publication_material
;
SHELXL2014 (Sheldrick, 2015)
;
_computing_structure_refinement
;
SHELXL2014 (Sheldrick, 2015)
;
_computing_structure_solution
;
SHELXS97 (Sheldrick, 2008)
;
_diffrn_ambient_temperature      150(2)
_diffrn_measured_fraction_theta_full 0.960
_diffrn_measured_fraction_theta_max 0.947
_diffrn_measurement_device_type  'Nonius KappaCCD'
_diffrn_measurement_method       '\w and \f'
_diffrn_radiation_monochromator  graphite
_diffrn_radiation_type           MoK\a
_diffrn_radiation_wavelength     0.71073
_diffrn_reflns_av_R_equivalents  0.1186
_diffrn_reflns_limit_h_max       13
_diffrn_reflns_limit_h_min       -13
_diffrn_reflns_limit_k_max       12
_diffrn_reflns_limit_k_min       -15
_diffrn_reflns_limit_l_max       50
_diffrn_reflns_limit_l_min       -50
_diffrn_reflns_number            26393
_diffrn_reflns_theta_full        25.242
_diffrn_reflns_theta_max         27.483
_diffrn_reflns_theta_min         2.976
_exptl_absorpt_coefficient_mu    0.219
_exptl_absorpt_correction_T_max  0.9574
_exptl_absorpt_correction_T_min  0.9472
_exptl_absorpt_correction_type   multi-scan
_exptl_absorpt_process_details
;
(SORTAV; Blessing, 1995)
;
_exptl_crystal_colour            colorless
_exptl_crystal_density_diffrn    1.372
_exptl_crystal_description       block
_exptl_crystal_F_000             2136
_exptl_crystal_size_max          0.250
_exptl_crystal_size_mid          0.220
_exptl_crystal_size_min          0.200
_refine_diff_density_max         0.410
_refine_diff_density_min         -0.576
_refine_ls_extinction_method     none
_refine_ls_goodness_of_fit_ref   1.012
_refine_ls_hydrogen_treatment    constr
_refine_ls_matrix_type           full
_refine_ls_number_parameters     625
_refine_ls_number_reflns         10636
_refine_ls_number_restraints     0
_refine_ls_restrained_S_all      1.012
_refine_ls_R_factor_all          0.1262
_refine_ls_R_factor_gt           0.0628
_refine_ls_shift/su_max          0.001
_refine_ls_shift/su_mean         0.000
_refine_ls_structure_factor_coef Fsqd
_refine_ls_weighting_details
'w=1/[\s^2^(Fo^2^)+(0.0684P)^2^] where P=(Fo^2^+2Fc^2^)/3'
_refine_ls_weighting_scheme      calc
_refine_ls_wR_factor_gt          0.1413
_refine_ls_wR_factor_ref         0.1691
_reflns_number_gt                6070
_reflns_number_total             10636
_reflns_threshold_expression     'I > 2\s(I)'
_cod_data_source_file            hb4037sup1.cif
_cod_data_source_block           I
_cod_original_cell_volume        4884.71(15)
_cod_database_code               1543127
_shelx_space_group_comment
;
The symmetry employed for this shelxl refinement is uniquely defined
by the following loop, which should always be used as a source of
symmetry information in preference to the above space-group names.
They are only intended as comments.
;
_shelx_estimated_absorpt_t_min   0.947
_shelx_estimated_absorpt_t_max   0.957
_shelx_hkl_file
;
 -13  -3 -10   -0.90    4.01   1
 -13  -3  -9   42.64    7.44   1
 -13  -3  -8   -2.40    5.39   1
 -13  -3  -7    2.50    5.59   1
 -13  -3  -6    5.90    5.39   1
 -13  -2 -12   -0.40    5.28   1
 -13  -2 -11   10.69    5.69   1
 -13  -2 -10   12.18    4.61   1
 -13  -2  -9   43.43    6.85   1
 -13  -2  -8   23.62    7.10   1
 -13  -2  -7   -5.02    4.93   1
 -13  -2  -6   15.13    6.07   1
 -13  -2  -5    5.20    5.20   1
 -13  -2  -4    3.88    4.89   1
 -13  -2  -3   -2.99    4.60   1
 -13  -1 -13  -19.36    7.22   1
 -13  -1 -12    1.80    6.78   1
 -13  -1 -10   -7.18    5.20   1
 -13  -1  -9   -2.19    3.58   1
 -13  -1  -8    1.99    5.47   1
 -13  -1  -7   -0.59    4.57   1
 -13  -1  -6    3.10    4.79   1
 -13  -1  -4    3.20    5.12   1
 -13  -1  -3   -4.41    5.00   1
 -13  -1  -2    9.67    5.97   1
 -13  -1  -1   -1.90    3.51   1
 -13  -1   0    4.28    4.80   1
 -13   0  -8   51.84    7.20   1
 -13   0  -6    6.60    4.42   1
 -13   0  -4    0.71    4.62   1
 -13   0  -2    5.62    4.93   1
 -13   0   0    8.70    5.78   1
 -13   0   2   54.17    7.51   1
 -13   1 -10   -8.18   17.10   1
 -13   1  -6   -2.50    3.60   1
 -13   1  -5   -9.30    5.18   1
 -13   1  -4   -1.10    3.40   1
 -13   1  -3    1.80    5.49   1
 -13   1  -2    4.80    5.21   1
 -13   1  -1   -2.89    4.79   1
 -13   1   0   -0.90    4.81   1
 -13   1   1   32.83    5.96   1
 -13   1   3   21.34    5.27   1
 -13   1   4   -5.38    4.41   1
 -13   2  -6   -3.61    4.10   1
 -13   2  -5   -6.50    5.41   1
 -13   2  -3   -8.01    5.32   1
 -13   2  -2    1.30    5.70   1
 -13   2  -1   -1.39    3.09   1
 -13   2   0   20.98    5.77   1
 -13   2   1    7.51    5.92   1
 -13   2   2    6.00    3.38   1
 -13   2   3   57.46    6.97   1
 -13   2   4   74.82    8.82   1
 -13   2   5   10.89    5.28   1
 -13   2   6   10.18    3.89   1
 -13   3  -2  -11.42    6.08   1
 -13   3   0  -15.37    6.51   1
 -13   3   1   -4.80    5.91   1
 -13   3   4  -14.21    5.43   1
 -13   3   6   -2.79    5.98   1
 -13   4   4  115.56   44.50   1
 -12  -4 -14   -9.80    4.88   1
 -12  -4 -13    0.71    4.62   1
 -12  -4 -12   23.43    6.20   1
 -12  -4 -11    2.31    5.02   1
 -12  -4 -10   -2.10    4.21   1
 -12  -4  -9  102.41    8.50   1
 -12  -4  -8   -2.19    4.59   1
 -12  -4  22   -1.21    3.41   1
 -12  -3 -19    0.79    4.88   1
 -12  -3 -18    3.10    4.89   1
 -12  -3 -17    0.00    1.00   1
 -12  -3 -16    1.49    4.78   1
 -12  -3 -15  119.03   12.00   1
 -12  -3 -14    4.00    4.60   1
 -12  -3 -13   -7.78    4.91   1
 -12  -3 -12   20.70    4.19   1
 -12  -3 -11   -1.10    4.91   1
 -12  -3 -10    5.81    4.19   1
 -12  -3  -9   45.70    6.08   1
 -12  -3  -7   -2.40    4.31   1
 -12  -3  -6   15.13    4.82   1
 -12  -3  -5   14.67    4.67   1
 -12  -3  -4   -5.02    3.81   1
 -12  -2 -21   32.15    7.14   1
 -12  -2 -20   -7.62    4.80   1
 -12  -2 -19   -5.52    5.12   1
 -12  -2 -18   26.01    6.32   1
 -12  -2 -17   10.50    5.31   1
 -12  -2 -16    8.53    5.49   1
 -12  -2 -15   -1.99    5.19   1
 -12  -2 -14    4.58    4.79   1
 -12  -2 -13    1.49    4.68   1
 -12  -2 -12   19.80    5.96   1
 -12  -2 -11    5.90    4.62   1
 -12  -2 -10    3.50    4.49   1
 -12  -2  -9   12.60    5.32   1
 -12  -2  -8    4.71    4.51   1
 -12  -2  -7   -0.59    4.47   1
 -12  -2  -6   14.21    5.20   1
 -12  -2  -5    5.90    4.18   1
 -12  -2  -4    9.00    4.38   1
 -12  -2  -3    9.80    4.70   1
 -12  -2  -2    5.29    4.78   1
 -12  -2  -1    2.79    4.28   1
 -12  -1 -22   -5.29    4.51   1
 -12  -1 -21    8.18    5.89   1
 -12  -1 -20   -4.28    5.09   1
 -12  -1 -19    1.69    5.28   1
 -12  -1 -18   -0.79    3.49   1
 -12  -1 -17    7.51    5.10   1
 -12  -1 -16    0.20    4.83   1
 -12  -1 -15    4.71    4.30   1
 -12  -1 -14    1.00    4.50   1
 -12  -1 -13    3.31    5.10   1
 -12  -1 -12   28.94    5.81   1
 -12  -1 -11    3.50    4.19   1
 -12  -1 -10    0.40    4.59   1
 -12  -1  -9    5.81    4.29   1
 -12  -1  -8   -0.20    4.33   1
 -12  -1  -7    3.69    4.19   1
 -12  -1  -6   17.81    5.23   1
 -12  -1  -5   30.14    5.05   1
 -12  -1  -4    4.08    4.20   1
 -12  -1  -3   29.48    5.54   1
 -12  -1  -2   -2.59    4.38   1
 -12  -1  -1    5.29    4.19   1
 -12  -1   0   13.69    4.88   1
 -12  -1   1    4.41    4.28   1
 -12  -1   2   -2.99    2.60   1
 -12   0 -20   11.09    6.13   1
 -12   0 -14   -0.79    3.68   1
 -12   0 -12   15.92    4.87   1
 -12   0 -10   10.69    4.97   1
 -12   0  -8   -3.50    4.00   1
 -12   0  -6    3.69    3.11   1
 -12   0  -4    8.29    3.80   1
 -12   0  -2   32.15    5.78   1
 -12   0   0   17.39    4.84   1
 -12   0   4   18.23    4.61   1
 -12   1 -21  -10.30    6.61   1
 -12   1 -20   -8.82    5.70   1
 -12   1 -19   -1.59    5.67   1
 -12   1 -18   -2.50    4.90   1
 -12   1 -16   -9.67    4.60   1
 -12   1 -15   -0.79    4.77   1
 -12   1 -14    2.40    4.90   1
 -12   1 -13    8.18    5.09   1
 -12   1 -12   25.40    5.64   1
 -12   1 -11    2.31    4.50   1
 -12   1 -10    3.10    2.89   1
 -12   1  -9    7.18    4.18   1
 -12   1  -6   20.70    4.82   1
 -12   1  -5   20.98    5.04   1
 -12   1  -4   -2.40    4.40   1
 -12   1  -3   23.33    4.93   1
 -12   1  -2    2.99    4.08   1
 -12   1  -1    7.29    4.37   1
 -12   1   0    5.38    4.87   1
 -12   1   1    1.80    4.10   1
 -12   1   2    4.58    4.58   1
 -12   1   3   37.45    5.63   1
 -12   1   4   25.30    5.03   1
 -12   1   5    2.19    3.11   1
 -12   1   6    4.49    4.11   1
 -12   2 -18   11.90    6.00   1
 -12   2 -17   11.02    4.78   1
 -12   2 -15   -7.67    4.88   1
 -12   2 -14   -8.58    4.51   1
 -12   2 -13    5.90    4.71   1
 -12   2 -12   27.46    5.34   1
 -12   2 -11    3.61    4.71   1
 -12   2 -10    4.41    4.79   1
 -12   2  -9   24.21    5.41   1
 -12   2  -8    7.02    3.60   1
 -12   2  -7    1.10    4.70   1
 -12   2  -6    6.50    4.39   1
 -12   2  -5    4.28    4.31   1
 -12   2  -4    6.40    3.90   1
 -12   2  -3   12.18    3.91   1
 -12   2  -2    2.69    3.28   1
 -12   2  -1    5.02    4.61   1
 -12   2   0   24.90    5.09   1
 -12   2   1   17.22    4.81   1
 -12   2   2    3.20    4.01   1
 -12   2   3    0.20    3.92   1
 -12   2   4    3.50    3.22   1
 -12   2   5   -2.50    2.91   1
 -12   2   6    5.71    3.59   1
 -12   2   7   37.70    4.67   1
 -12   3 -17  -16.32    5.74   1
 -12   3 -16   -5.29    5.38   1
 -12   3 -15  104.65    9.41   1
 -12   3 -14    2.50    3.79   1
 -12   3 -13    1.99    5.27   1
 -12   3 -12   16.40    5.10   1
 -12   3 -11   -0.10    3.44   1
 -12   3 -10   -3.10    4.19   1
 -12   3  -9   48.30    5.84   1
 -12   3  -8    6.92    4.63   1
 -12   3  -7    2.69    3.80   1
 -12   3  -6   22.28    5.76   1
 -12   3  -5   13.76    5.42   1
 -12   3  -4   -0.30    3.11   1
 -12   3  -3   47.75    6.50   1
 -12   3  -2   14.59    4.74   1
 -12   3  -1    8.29    4.32   1
 -12   3   0    7.18    3.48   1
 -12   3   1   -0.59    4.17   1
 -12   3   2    3.39    4.38   1
 -12   3   3  107.54   10.78   1
 -12   3   4    4.88    4.60   1
 -12   3   5    0.79    4.08   1
 -12   3   6   -0.20    4.02   1
 -12   3   7   68.23    7.60   1
 -12   3   8   -4.58    4.49   1
 -12   4 -13   -0.20    6.04   1
 -12   4 -12   29.27    5.73   1
 -12   4 -11    1.80    3.30   1
 -12   4 -10    1.00    4.50   1
 -12   4  -9   91.58    9.95   1
 -12   4  -8   -4.71    5.12   1
 -12   4  -7   -1.21    3.32   1
 -12   4  -6   30.80    5.88   1
 -12   4  -5    8.70    5.02   1
 -12   4  -4    8.58    5.22   1
 -12   4  -3   68.06    7.26   1
 -12   4  -2    3.80    5.19   1
 -12   4  -1    1.49    2.98   1
 -12   4   0    7.67    4.71   1
 -12   4   1    7.90    4.61   1
 -12   4   2    4.20    4.51   1
 -12   4   3   10.69    5.17   1
 -12   4   4    2.59    4.60   1
 -12   4   5    2.40    4.71   1
 -12   4   6   37.58    6.13   1
 -12   4   7    4.49    4.58   1
 -12   4   8    2.59    4.80   1
 -12   4   9  111.51    9.50   1
 -12   5 -12   36.24   36.36   1
 -12   5 -10   -3.10    5.32   1
 -12   5  -7    2.79    5.38   1
 -12   5  -6   50.27    6.52   1
 -12   5  -5   10.11    5.28   1
 -12   5  -4   -6.50    5.00   1
 -12   5  -3   -0.90    4.90   1
 -12   5  -2    3.10    4.79   1
 -12   5  -1   -4.80    5.21   1
 -12   5   0   21.81    5.98   1
 -12   5   1    3.39    3.61   1
 -12   5   2    6.10    5.19   1
 -12   5   3   63.04    8.73   1
 -12   5   4    2.10    4.29   1
 -12   5   5   -4.00    4.48   1
 -12   5   6   23.43    5.52   1
 -12   5   7    9.80    5.01   1
 -12   5   8   26.42    5.65   1
 -12   5   9    9.80    5.07   1
 -12   5  10    3.31    4.80   1
 -12   6  -6   -5.81    5.40   1
 -12   6  -5   -1.59    5.29   1
 -12   6  -4   -0.79    3.58   1
 -12   6  -3    0.59    3.97   1
 -12   6  -2   -1.39    4.79   1
 -12   6  -1   -1.90    4.69   1
 -12   6   0   35.64    5.25   1
 -12   6   1   -3.80    4.72   1
 -12   6   2   21.44    6.48   1
 -12   6   3   -1.99    4.99   1
 -12   6   4    9.18    5.21   1
 -12   6   5   -3.50    5.31   1
 -12   6   6  124.55   10.04   1
 -12   6   7   14.36    5.31   1
 -12   6   8    1.21    4.51   1
 -12   6   9    1.80    4.40   1
 -12   6  10   -1.21    5.13   1
 -12   6  11    0.71    5.63   1
 -12   7  -2  -11.42    6.22   1
 -12   7   1    1.69    3.48   1
 -12   7   3   13.99    5.16   1
 -12   7   4    2.79    5.08   1
 -12   7   5   -1.30    4.79   1
 -12   7   6   60.06    7.75   1
 -12   7   7    5.20    4.51   1
 -12   7   8   -5.52    5.12   1
 -12   7   9   10.11    6.11   1
 -12   7  10   14.67    4.60   1
 -11  -9  -1   -3.39    3.61   1
 -11  -9   0   -0.40    4.18   1
 -11  -9   1    3.69    4.19   1
 -11  -9   2    0.40    4.59   1
 -11  -9   3    9.00    4.02   1
 -11  -9   4    2.59    4.09   1
 -11  -9   5    3.80    3.71   1
 -11  -9   6   -0.59    3.37   1
 -11  -9   7    3.88    3.78   1
 -11  -8   1    5.81    2.99   1
 -11  -8   2    7.18    2.68   1
 -11  -8   3   25.60    4.25   1
 -11  -8   4    4.08    3.19   1
 -11  -8   5    4.20    3.49   1
 -11  -8   6    9.18    3.88   1
 -11  -8   7    1.90    3.09   1
 -11  -8   8   -0.59    3.28   1
 -11  -8   9   13.10    3.98   1
 -11  -8  12    9.99    3.79   1
 -11  -8  13    1.00    3.60   1
 -11  -8  14   -1.69    3.90   1
 -11  -7   4    1.21    3.21   1
 -11  -7   5   14.52    3.58   1
 -11  -7   6   28.84    4.83   1
 -11  -7   7    1.99    3.38   1
 -11  -7   8    3.80    3.51   1
 -11  -7   9   -0.20    3.12   1
 -11  -7  10    7.51    3.73   1
 -11  -7  11   17.72    3.79   1
 -11  -7  12    1.80    3.30   1
 -11  -6   7   -2.31    3.01   1
 -11  -6   8    0.50    3.01   1
 -11  -6   9   -2.19    2.60   1
 -11  -6  10    0.20    2.72   1
 -11  -6  11    2.79    2.61   1
 -11  -6  24    3.88    4.49   1
 -11  -5 -11    4.80    4.20   1
 -11  -5 -10   -1.99    3.89   1
 -11  -5   9   16.48    3.09   1
 -11  -5  10   14.06    2.70   1
 -11  -5  11   -0.59    2.88   1
 -11  -5  12    2.10    2.61   1
 -11  -5  16    4.00    3.40   1
 -11  -5  21   -0.59    3.28   1
 -11  -4 -16   -0.40    4.28   1
 -11  -4 -15   69.56    7.34   1
 -11  -4 -14   25.70    4.97   1
 -11  -4 -13   -5.11    3.71   1
 -11  -4 -12    1.00    3.70   1
 -11  -4 -11    4.88    4.11   1
 -11  -4 -10   16.48    4.30   1
 -11  -4  -9   56.55    6.92   1
 -11  -4  -8    3.10    4.08   1
 -11  -4  -7    4.49    3.69   1
 -11  -4  -6   13.18    3.92   1
 -11  -4  12   32.72    4.35   1
 -11  -4  13   -0.30    2.71   1
 -11  -4  15   32.38    3.76   1
 -11  -4  16   -2.50    2.50   1
 -11  -4  17    1.49    2.49   1
 -11  -4  18   14.29    3.18   1
 -11  -4  19    1.69    2.50   1
 -11  -4  22    6.71    3.68   1
 -11  -4  23    5.38    3.57   1
 -11  -3 -22   -1.90    4.31   1
 -11  -3 -21   21.90    4.96   1
 -11  -3 -20    4.71    4.12   1
 -11  -3 -19    1.99    4.48   1
 -11  -3 -18   13.40    4.32   1
 -11  -3 -17    0.20    4.02   1
 -11  -3 -16    6.30    3.92   1
 -11  -3 -14   13.99    4.11   1
 -11  -3 -12    3.31    4.30   1
 -11  -3 -11   24.60    4.36   1
 -11  -3 -10    2.89    3.40   1
 -11  -3  -9   57.30    6.21   1
 -11  -3  -8    5.90    5.01   1
 -11  -3  -7    3.80    3.90   1
 -11  -3  -6    1.90    3.39   1
 -11  -3  -5    3.80    3.39   1
 -11  -3  -4    2.10    3.60   1
 -11  -3  -3   18.58    4.57   1
 -11  -3  -2   10.30    3.98   1
 -11  -3  14    1.00    2.00   1
 -11  -3  15  138.53    7.53   1
 -11  -3  16   12.11    2.99   1
 -11  -3  17   -2.31    2.80   1
 -11  -3  18    1.30    2.60   1
 -11  -3  19   19.18    3.33   1
 -11  -3  20    7.02    2.92   1
 -11  -3  21    1.99    3.19   1
 -11  -3  22   11.09    3.60   1
 -11  -3  25   11.22    3.48   1
 -11  -3  26    2.59    3.28   1
 -11  -3  27   20.61    4.72   1
 -11  -3  28    0.20    3.73   1
 -11  -2 -27   -9.30    4.70   1
 -11  -2 -26   11.90    5.31   1
 -11  -2 -25   -3.61    4.60   1
 -11  -2 -24   17.31    5.41   1
 -11  -2 -22    0.10    4.96   1
 -11  -2 -21   22.37    5.20   1
 -11  -2 -20   17.72    5.39   1
 -11  -2 -19    5.38    4.08   1
 -11  -2 -18    1.21    2.62   1
 -11  -2 -17   -1.21    4.31   1
 -11  -2 -16   -0.71    3.91   1
 -11  -2 -15   64.64    7.08   1
 -11  -2 -14   -0.20    3.73   1
 -11  -2 -13    3.50    4.00   1
 -11  -2 -12   17.47    4.68   1
 -11  -2 -11    9.92    3.59   1
 -11  -2 -10   -3.31    3.02   1
 -11  -2  -9   14.06    3.90   1
 -11  -2  -8    3.50    3.52   1
 -11  -2  -7   -1.39    3.68   1
 -11  -2  -5   11.83    3.58   1
 -11  -2  -4    3.50    3.52   1
 -11  -2  -3   17.98    3.99   1
 -11  -2  -2   11.70    3.69   1
 -11  -2  -1   13.47    3.82   1
 -11  -2   0    6.00    3.72   1
 -11  -2   1    5.29    2.39   1
 -11  -2  16    9.49    2.28   1
 -11  -2  18    8.58    3.28   1
 -11  -2  19    2.89    2.31   1
 -11  -2  20    2.19    3.20   1
 -11  -2  21   20.98    2.84   1
 -11  -2  22    9.18    2.97   1
 -11  -2  23    0.50    3.01   1
 -11  -2  25    6.00    3.09   1
 -11  -2  26   11.49    4.27   1
 -11  -2  27   -1.00    2.80   1
 -11  -2  30   -0.20    4.02   1
 -11  -2  31   12.32    4.42   1
 -11  -1 -28    0.20    5.34   1
 -11  -1 -27    1.00    5.10   1
 -11  -1 -26   33.06    6.90   1
 -11  -1 -25    4.28    5.09   1
 -11  -1 -24   37.95    6.65   1
 -11  -1 -23    2.79    4.58   1
 -11  -1 -22    4.41    5.12   1
 -11  -1 -21    2.31    4.32   1
 -11  -1 -20    5.81    4.29   1
 -11  -1 -19    4.58    4.41   1
 -11  -1 -18   73.96    6.71   1
 -11  -1 -17   15.37    4.39   1
 -11  -1 -16    9.92    4.41   1
 -11  -1 -15    5.20    4.20   1
 -11  -1 -14    2.50    3.70   1
 -11  -1 -13   -0.59    3.19   1
 -11  -1 -12   42.38    5.86   1
 -11  -1 -11    5.02    3.90   1
 -11  -1 -10   -1.30    2.39   1
 -11  -1  -9    9.99    4.17   1
 -11  -1  -8    4.00    4.08   1
 -11  -1  -7   -1.00    3.40   1
 -11  -1  -6    6.81    3.81   1
 -11  -1  -5   13.03    4.33   1
 -11  -1  -4    1.49    3.39   1
 -11  -1  -3   49.14    5.33   1
 -11  -1  -2    0.20    3.22   1
 -11  -1  -1    3.31    3.20   1
 -11  -1   0   53.14    6.56   1
 -11  -1   1   23.72    4.77   1
 -11  -1   2    2.19    3.20   1
 -11  -1   3   63.36    5.73   1
 -11  -1  18   20.16    3.41   1
 -11  -1  19    3.69    2.38   1
 -11  -1  20   10.11    2.93   1
 -11  -1  21    5.29    2.71   1
 -11  -1  22   -0.30    2.31   1
 -11  -1  23   -1.21    2.62   1
 -11  -1  25    0.30    2.92   1
 -11  -1  26   -4.58    2.70   1
 -11  -1  27    0.20    3.12   1
 -11  -1  28    3.10    3.70   1
 -11  -1  29   -0.90    3.71   1
 -11  -1  30    1.00    3.70   1
 -11  -1  31   11.97    4.98   1
 -11  -1  32    3.50    4.19   1
 -11   0 -28    5.20    6.02   1
 -11   0 -26   77.62    9.16   1
 -11   0 -24   30.80    4.77   1
 -11   0 -22   19.71    4.62   1
 -11   0 -20   19.89    5.53   1
 -11   0 -18    2.50    3.89   1
 -11   0 -16    7.02    4.03   1
 -11   0 -14   20.34    4.69   1
 -11   0 -12   31.58    5.28   1
 -11   0 -10   -3.80    3.32   1
 -11   0  -8   59.75    6.96   1
 -11   0  -6    1.90    3.70   1
 -11   0  -4    6.60    2.62   1
 -11   0  -2   22.37    4.54   1
 -11   0   0   24.80    4.38   1
 -11   0   2   36.24    5.30   1
 -11   0   4   74.65    6.05   1
 -11   0  20    0.59    2.19   1
 -11   0  24    1.49    2.68   1
 -11   0  26    2.59    2.90   1
 -11   0  28    6.20    3.39   1
 -11   0  30   24.01    4.70   1
 -11   0  32    1.39    3.80   1
 -11   1 -28    3.31    5.21   1
 -11   1 -27    6.60    5.91   1
 -11   1 -26   19.89    5.71   1
 -11   1 -25   -1.80    5.60   1
 -11   1 -24   36.00    6.72   1
 -11   1 -22    2.50    5.18   1
 -11   1 -21   -4.00    4.48   1
 -11   1 -20   10.37    5.22   1
 -11   1 -19   -1.21    2.82   1
 -11   1 -18   77.44    8.62   1
 -11   1 -17   14.59    5.12   1
 -11   1 -16   15.68    4.83   1
 -11   1 -15    3.61    4.29   1
 -11   1 -14    6.30    3.41   1
 -11   1 -13    1.49    2.78   1
 -11   1 -12   45.16    6.32   1
 -11   1 -11    3.61    2.89   1
 -11   1 -10   -2.40    3.50   1
 -11   1  -9   13.76    4.30   1
 -11   1  -8    0.79    2.79   1
 -11   1  -7    0.59    3.77   1
 -11   1  -6    8.12    4.33   1
 -11   1  -5   14.82    3.93   1
 -11   1  -4    9.30    4.70   1
 -11   1  -3   54.17    5.59   1
 -11   1  -2    2.19    2.31   1
 -11   1  -1    4.58    4.11   1
 -11   1   0   45.02    4.43   1
 -11   1   1   35.28    5.35   1
 -11   1   3   68.39    5.95   1
 -11   1   4   63.84    6.55   1
 -11   1   5   23.81    4.88   1
 -11   1   6   14.90    4.48   1
 -11   1   7  145.20    8.92   1
 -11   2 -26    9.00    6.60   1
 -11   2 -25   -0.30    4.82   1
 -11   2 -24   15.68    5.62   1
 -11   2 -23   -2.89    5.10   1
 -11   2 -22    1.49    3.98   1
 -11   2 -21   28.20    6.27   1
 -11   2 -20   24.30    5.42   1
 -11   2 -19    9.92    3.72   1
 -11   2 -18   -8.18    4.40   1
 -11   2 -17    2.59    4.51   1
 -11   2 -16   -1.49    4.17   1
 -11   2 -15   48.86    6.57   1
 -11   2 -14    2.89    3.98   1
 -11   2 -13   -1.00    3.50   1
 -11   2 -12   18.32    4.71   1
 -11   2 -11   12.11    4.18   1
 -11   2 -10    4.71    4.21   1
 -11   2  -9    7.67    3.27   1
 -11   2  -8   12.18    3.98   1
 -11   2  -7    0.30    3.41   1
 -11   2  -6    5.29    3.59   1
 -11   2  -5   12.82    3.58   1
 -11   2  -4    2.50    3.60   1
 -11   2  -3   20.70    4.00   1
 -11   2  -2   24.90    4.69   1
 -11   2  -1    9.61    3.91   1
 -11   2   0    9.99    4.61   1
 -11   2   1    3.20    3.62   1
 -11   2   2   36.72    4.73   1
 -11   2   3  105.88    9.47   1
 -11   2   4   35.05    4.85   1
 -11   2   5    1.49    3.29   1
 -11   2   6   16.81    4.02   1
 -11   2   7   -2.50    3.70   1
 -11   2   8   -2.40    3.50   1
 -11   3 -25  -10.69    7.59   1
 -11   3 -24   -8.58    5.51   1
 -11   3 -23   11.09    5.39   1
 -11   3 -22    0.50    4.91   1
 -11   3 -21   15.21    5.07   1
 -11   3 -20    3.20    5.30   1
 -11   3 -19    0.79    4.57   1
 -11   3 -18    9.99    4.99   1
 -11   3 -16   -1.59    4.59   1
 -11   3 -15    6.40    4.50   1
 -11   3 -14   16.48    5.28   1
 -11   3 -13   -0.71    4.22   1
 -11   3 -12   -4.80    3.68   1
 -11   3 -11   18.84    4.51   1
 -11   3 -10    5.81    4.00   1
 -11   3  -9   52.71    5.66   1
 -11   3  -8    1.30    3.01   1
 -11   3  -7    3.39    3.97   1
 -11   3  -6   -0.30    3.92   1
 -11   3  -5    4.80    3.81   1
 -11   3  -4    1.49    2.59   1
 -11   3  -3   18.06    3.65   1
 -11   3  -2    6.00    4.31   1
 -11   3  -1   20.61    4.63   1
 -11   3   0    6.92    4.10   1
 -11   3   1    1.00    3.50   1
 -11   3   2    8.53    4.09   1
 -11   3   3    9.80    4.57   1
 -11   3   4   19.89    3.48   1
 -11   3   5    3.10    2.89   1
 -11   3   6    3.31    3.49   1
 -11   3   7    0.00    1.00   1
 -11   3   8    5.02    3.99   1
 -11   3   9  141.37   10.70   1
 -11   3  10   23.52    3.78   1
 -11   4 -23   -7.78    5.91   1
 -11   4 -22  -13.99    5.68   1
 -11   4 -21   45.56    7.56   1
 -11   4 -20   14.82    5.31   1
 -11   4 -19   -2.59    5.09   1
 -11   4 -18    5.20    4.70   1
 -11   4 -17    0.79    3.28   1
 -11   4 -16    6.71    4.82   1
 -11   4 -15   79.74    8.57   1
 -11   4 -14   26.01    6.43   1
 -11   4 -13    5.11    4.70   1
 -11   4 -12   -2.10    4.21   1
 -11   4 -11   -1.10    4.20   1
 -11   4 -10    7.18    4.18   1
 -11   4  -9   53.14    6.71   1
 -11   4  -8    3.61    3.99   1
 -11   4  -7    6.20    4.48   1
 -11   4  -6   13.91    4.03   1
 -11   4  -5    0.59    2.99   1
 -11   4  -4    2.79    4.11   1
 -11   4  -3   17.22    4.23   1
 -11   4  -2   20.34    4.42   1
 -11   4  -1   -2.59    3.28   1
 -11   4   0   86.49    6.14   1
 -11   4   1    1.59    3.78   1
 -11   4   2   -0.79    3.49   1
 -11   4   3  102.82    8.31   1
 -11   4   4   26.01    4.79   1
 -11   4   5   13.10    4.63   1
 -11   4   6   34.57    3.88   1
 -11   4   7   23.33    4.73   1
 -11   4   8    3.39    4.31   1
 -11   4   9   35.05    5.21   1
 -11   4  10    2.31    4.01   1
 -11   4  11    1.39    2.69   1
 -11   5 -21   69.56   38.03   1
 -11   5 -19   -2.89    5.58   1
 -11   5 -18   68.23    7.27   1
 -11   5 -17   -3.10    5.10   1
 -11   5 -16    4.28    4.80   1
 -11   5 -15   22.28    4.34   1
 -11   5 -14    7.62    4.69   1
 -11   5 -13    8.18    5.21   1
 -11   5 -12   50.41    8.38   1
 -11   5 -11   -3.88    4.49   1
 -11   5 -10    2.99    3.49   1
 -11   5  -9   32.83    5.50   1
 -11   5  -8   24.80    5.28   1
 -11   5  -7    5.81    4.48   1
 -11   5  -6   10.11    4.83   1
 -11   5  -5    5.90    4.33   1
 -11   5  -4   -2.19    4.00   1
 -11   5  -3   46.65    6.15   1
 -11   5  -2   -0.40    4.59   1
 -11   5  -1   -5.29    3.82   1
 -11   5   0   60.84    7.02   1
 -11   5   1    3.69    4.30   1
 -11   5   2   16.97    4.70   1
 -11   5   3    1.90    4.20   1
 -11   5   4   11.90    4.21   1
 -11   5   5    5.02    2.91   1
 -11   5   6   50.27    6.66   1
 -11   5   7    1.30    4.10   1
 -11   5   8   -0.50    4.71   1
 -11   5   9   35.52    5.24   1
 -11   5  10   17.64    4.54   1
 -11   5  11   -0.30    3.72   1
 -11   6 -18   -0.10   17.31   1
 -11   6 -17    3.80    6.01   1
 -11   6 -14   -0.90    4.41   1
 -11   6 -13   -0.71    5.02   1
 -11   6 -12   14.29    4.38   1
 -11   6 -11    4.20    5.08   1
 -11   6 -10   -0.79    2.88   1
 -11   6  -9    1.99    4.29   1
 -11   6  -8   14.67    3.98   1
 -11   6  -7    8.53    4.20   1
 -11   6  -6  100.00    8.40   1
 -11   6  -5    7.08    4.31   1
 -11   6  -4    5.62    4.22   1
 -11   6  -3   26.01    4.69   1
 -11   6  -2   21.07    4.68   1
 -11   6  -1    5.20    4.10   1
 -11   6   0    7.62    4.42   1
 -11   6   1    8.58    4.39   1
 -11   6   2    4.20    4.18   1
 -11   6   3    1.10    4.41   1
 -11   6   4    6.00    4.61   1
 -11   6   5    6.10    4.69   1
 -11   6   6   45.97    6.24   1
 -11   6   7    6.00    4.02   1
 -11   6   8   -2.50    4.30   1
 -11   6   9    5.38    3.80   1
 -11   6  10   -1.69    3.90   1
 -11   6  11    3.88    4.10   1
 -11   6  12   89.87    7.77   1
 -11   7 -14    5.20    5.88   1
 -11   7 -13    3.31    3.42   1
 -11   7 -12   63.36    7.64   1
 -11   7 -11   -7.67    4.76   1
 -11   7 -10    7.78    5.19   1
 -11   7  -9    6.71    5.02   1
 -11   7  -8   -6.92    4.63   1
 -11   7  -7    5.11    2.98   1
 -11   7  -6   13.91    5.37   1
 -11   7  -5   24.30    5.52   1
 -11   7  -4    3.10    4.29   1
 -11   7  -3   34.22    5.85   1
 -11   7  -2    8.53    4.91   1
 -11   7  -1   -0.20    4.02   1
 -11   7   0   24.70    5.67   1
 -11   7   1    9.49    4.19   1
 -11   7   2    9.00    4.32   1
 -11   7   3    9.80    4.57   1
 -11   7   4    5.71    4.68   1
 -11   7   5   11.63    4.98   1
 -11   7   6   31.81    5.98   1
 -11   7   7    5.52    4.89   1
 -11   7   8   10.11    4.58   1
 -11   7   9   -0.10    4.45   1
 -11   7  10    6.20    5.28   1
 -11   7  11   25.60    5.46   1
 -11   7  12    0.59    4.87   1
 -11   8 -10   -3.50    5.98   1
 -11   8  -9   -7.18    4.72   1
 -11   8  -8    1.69    5.59   1
 -11   8  -7   -2.19    5.39   1
 -11   8  -6   60.06    7.90   1
 -11   8  -5    1.90    5.60   1
 -11   8  -4   -6.81    4.91   1
 -11   8  -3   -0.79    4.68   1
 -11   8  -2   -1.80    4.90   1
 -11   8  -1    5.62    5.40   1
 -11   8   0   -7.18    4.77   1
 -11   8   1    2.99    4.81   1
 -11   8   2   14.82    4.70   1
 -11   8   3   36.24    6.86   1
 -11   8   4    5.90    4.91   1
 -11   8   5    4.28    5.01   1
 -11   8   6    7.67    5.10   1
 -11   8   7    2.40    3.41   1
 -11   8   8    4.58    4.88   1
 -11   8  10   -3.80    4.21   1
 -11   8  11   -0.90    4.50   1
 -11   8  12    8.88    4.89   1
 -11   9  -3   -5.38    5.10   1
 -11   9  -2    0.50    4.81   1
 -11   9  -1   -2.59    5.70   1
 -11   9   0   -5.90    5.10   1
 -11   9   1   -0.50    5.23   1
 -11   9   2   -4.41    5.29   1
 -11   9   3   -1.59    4.69   1
 -11   9   4    3.10    5.10   1
 -11   9   5    0.71    4.72   1
 -11   9   6   -3.20    5.19   1
 -11   9   7    2.79    5.28   1
 -10 -10  -9   35.64    5.25   1
 -10 -10  -8    5.62    4.22   1
 -10 -10  -7   -2.89    4.08   1
 -10 -10  -6   13.91    4.63   1
 -10 -10  -5    1.39    3.89   1
 -10 -10  -4    5.20    4.20   1
 -10 -10  -3   -2.69    3.51   1
 -10 -10  -2    4.28    3.81   1
 -10 -10  -1   -1.21    3.81   1
 -10 -10   0   -0.20    3.52   1
 -10 -10   1    5.11    3.80   1
 -10 -10   2    7.62    3.81   1
 -10 -10   3   -1.10    3.70   1
 -10 -10   4    4.28    3.60   1
 -10 -10   5    2.99    3.98   1
 -10 -10   6   18.40    4.29   1
 -10 -10   7   -4.41    3.70   1
 -10 -10   8    0.71    4.12   1
 -10 -10   9   17.31    4.58   1
 -10 -10  10    5.38    4.18   1
 -10 -10  11   -5.62    4.22   1
 -10 -10  12   27.77    5.38   1
 -10  -9 -16    0.59    3.37   1
 -10  -9 -15   98.60    7.75   1
 -10  -9 -14   11.22    3.68   1
 -10  -9 -13   -0.71    2.91   1
 -10  -9 -12   -0.71    2.81   1
 -10  -9 -11    0.79    3.19   1
 -10  -9 -10   -1.80    3.00   1
 -10  -9  -9   -4.08    3.39   1
 -10  -9  -8    9.00    4.32   1
 -10  -9  -7   -0.30    4.11   1
 -10  -9  -6    6.50    3.31   1
 -10  -9  -5   -1.59    3.48   1
 -10  -9  -4   -1.10    3.40   1
 -10  -9  -3    8.58    3.52   1
 -10  -9  -2    3.88    3.39   1
 -10  -9  -1    0.00    1.00   1
 -10  -9   0    6.71    4.20   1
 -10  -9   1    1.21    2.90   1
 -10  -9   2    7.08    3.30   1
 -10  -9   3   33.18    5.18   1
 -10  -9   4    5.11    3.39   1
 -10  -9   5   -3.31    3.02   1
 -10  -9   6   10.63    4.30   1
 -10  -9   7   10.69    3.73   1
 -10  -9   8    2.40    3.32   1
 -10  -9   9   41.86    5.43   1
 -10  -9  10    0.00    1.00   1
 -10  -9  11   -0.90    3.31   1
 -10  -9  12    8.88    3.99   1
 -10  -9  13    3.10    4.40   1
 -10  -9  14   -6.10    3.70   1
 -10  -9  15   39.56    5.79   1
 -10  -9  18   10.69    4.90   1
 -10  -9  19   27.25    5.32   1
 -10  -8 -13    4.08    3.11   1
 -10  -8 -12    4.20    3.32   1
 -10  -8 -11   -2.31    3.50   1
 -10  -8 -10   -0.71    3.41   1
 -10  -8  -9   61.31    5.17   1
 -10  -8  -8    1.00    2.90   1
 -10  -8  -7    2.69    2.69   1
 -10  -8  -6   16.73    3.27   1
 -10  -8  -4    0.59    2.39   1
 -10  -8  -3   43.16    4.86   1
 -10  -8  -2   -2.19    3.29   1
 -10  -8  -1    4.58    2.78   1
 -10  -8   0   -0.20    2.92   1
 -10  -8   1    0.00    1.00   1
 -10  -8   2    0.79    2.58   1
 -10  -8   3   19.62    3.90   1
 -10  -8   4   19.27    3.86   1
 -10  -8   5    1.21    2.90   1
 -10  -8   6    9.99    3.48   1
 -10  -8   7    0.71    3.91   1
 -10  -8   8   -0.79    2.99   1
 -10  -8   9   -0.40    2.89   1
 -10  -8  10    1.90    3.20   1
 -10  -8  11    3.80    3.78   1
 -10  -8  12    3.80    3.20   1
 -10  -8  13   14.06    3.97   1
 -10  -8  14    6.00    3.92   1
 -10  -8  17    3.50    4.00   1
 -10  -8  18   41.22    5.91   1
 -10  -8  19   24.21    5.12   1
 -10  -8  22    1.21    4.42   1
 -10  -8  23    7.78    4.41   1
 -10  -8  24   19.54    5.39   1
 -10  -7  -9    1.21    2.90   1
 -10  -7  -8   -0.79    2.30   1
 -10  -7  -7   -2.59    2.61   1
 -10  -7  -6   76.04    5.76   1
 -10  -7  -5    5.02    3.00   1
 -10  -7  -4   -0.79    2.30   1
 -10  -7  -2    1.90    2.51   1
 -10  -7   0    2.99    2.11   1
 -10  -7   1    5.29    2.90   1
 -10  -7   2   -0.20    2.31   1
 -10  -7   3    6.00    2.79   1
 -10  -7   4    3.50    2.92   1
 -10  -7   5    0.40    2.19   1
 -10  -7   6   16.08    3.37   1
 -10  -7   7   -1.30    2.51   1
 -10  -7   8   -2.19    3.29   1
 -10  -7   9   16.08    4.41   1
 -10  -7  10    2.69    2.49   1
 -10  -7  11    6.60    2.78   1
 -10  -7  12   85.01    6.64   1
 -10  -7  16    9.99    3.79   1
 -10  -7  17   16.40    3.73   1
 -10  -7  18   32.49    5.36   1
 -10  -7  21    6.20    4.18   1
 -10  -7  22    3.31    4.22   1
 -10  -7  24    4.80    4.51   1
 -10  -7  27    7.90    4.61   1
 -10  -6  -5   -1.10    2.20   1
 -10  -6  -4   24.21    2.95   1
 -10  -6  -3   13.10    2.61   1
 -10  -6  -1   -0.79    2.08   1
 -10  -6   0   38.56    3.73   1
 -10  -6   1    1.00    2.40   1
 -10  -6   2    3.20    2.00   1
 -10  -6   3    7.02    2.92   1
 -10  -6   4    1.90    2.21   1
 -10  -6   5    2.79    2.10   1
 -10  -6   6   65.93    6.33   1
 -10  -6   7    4.41    2.81   1
 -10  -6   8    0.30    2.11   1
 -10  -6   9   -1.21    2.31   1
 -10  -6  10    2.10    2.70   1
 -10  -6  11   15.29    3.83   1
 -10  -6  12   15.92    3.11   1
 -10  -6  13   30.69    3.55   1
 -10  -6  17    3.10    2.60   1
 -10  -6  23    4.20    3.49   1
 -10  -6  30   -0.90    4.10   1
 -10  -5 -13   -1.00    3.20   1
 -10  -5 -12   25.40    5.64   1
 -10  -5 -11    1.90    3.01   1
 -10  -5 -10    5.29    3.68   1
 -10  -5  -9   39.06    5.75   1
 -10  -5  -2   12.32    2.18   1
 -10  -5  -1    1.21    1.80   1
 -10  -5   0  127.92    8.14   1
 -10  -5   3   40.96    3.84   1
 -10  -5   4    3.39    2.21   1
 -10  -5   5    3.50    2.09   1
 -10  -5   6   12.89    2.08   1
 -10  -5   7   -1.99    1.69   1
 -10  -5   8    9.80    2.13   1
 -10  -5   9   29.27    3.35   1
 -10  -5  10   -0.10    2.02   1
 -10  -5  11   13.76    2.67   1
 -10  -5  12  183.87    9.76   1
 -10  -5  15   20.52    2.99   1
 -10  -4 -19   -3.31    3.20   1
 -10  -4 -18    7.18    3.59   1
 -10  -4 -17    0.90    3.61   1
 -10  -4 -16    1.39    3.49   1
 -10  -4 -15   -2.69    3.08   1
 -10  -4 -14    0.30    2.82   1
 -10  -4 -13    0.00    1.00   1
 -10  -4 -12   54.02    6.32   1
 -10  -4 -11    4.49    3.31   1
 -10  -4 -10   25.60    4.25   1
 -10  -4  -9   81.36    5.77   1
 -10  -4  -8   46.65    4.64   1
 -10  -4  -7    4.20    2.99   1
 -10  -4  -6   38.56    4.84   1
 -10  -4  -5    4.49    2.88   1
 -10  -4   2   11.42    2.23   1
 -10  -4   3   11.49    2.10   1
 -10  -4   4    4.88    2.08   1
 -10  -4   5   -2.19    1.60   1
 -10  -4   7   -0.10    1.41   1
 -10  -4   8    2.40    1.89   1
 -10  -4   9   46.65    3.96   1
 -10  -4  10    2.31    2.31   1
 -10  -4  11   27.77    2.95   1
 -10  -4  12    1.00    2.60   1
 -10  -4  13   17.22    2.57   1
 -10  -4  14   13.40    2.78   1
 -10  -4  15  263.41   13.63   1
 -10  -4  33    2.99    3.29   1
 -10  -3 -24   16.89    4.60   1
 -10  -3 -23    6.71    4.09   1
 -10  -3 -22   -1.10    3.70   1
 -10  -3 -21  100.40    8.82   1
 -10  -3 -20   -0.40    3.49   1
 -10  -3 -19    6.20    3.88   1
 -10  -3 -18    2.59    3.28   1
 -10  -3 -17    1.49    3.39   1
 -10  -3 -16   10.37    3.99   1
 -10  -3 -15   91.97    9.01   1
 -10  -3 -14    7.67    3.27   1
 -10  -3 -13    0.79    3.28   1
 -10  -3 -12    5.20    2.60   1
 -10  -3 -11    6.92    3.42   1
 -10  -3 -10    5.38    3.39   1
 -10  -3  -9    6.71    3.11   1
 -10  -3  -8   -1.80    3.00   1
 -10  -3  -7    7.02    3.13   1
 -10  -3  -6    1.39    2.78   1
 -10  -3  -5   43.82    5.16   1
 -10  -3  -4    4.00    3.08   1
 -10  -3  -3   35.52    4.53   1
 -10  -3  -2    6.20    2.99   1
 -10  -3  -1   -0.50    2.81   1
 -10  -3   7    4.49    1.91   1
 -10  -3   8   -2.31    2.01   1
 -10  -3   9    4.28    1.70   1
 -10  -3  10   79.74    6.25   1
 -10  -3  11    2.59    2.09   1
 -10  -3  12   13.69    2.37   1
 -10  -3  13    5.38    2.09   1
 -10  -3  14    2.59    1.90   1
 -10  -3  34   22.47    5.50   1
 -10  -2 -29   -3.20    4.40   1
 -10  -2 -28   -5.62    4.79   1
 -10  -2 -27   23.43    5.42   1
 -10  -2 -26   34.93    6.15   1
 -10  -2 -25    6.71    4.61   1
 -10  -2 -24    2.99    4.19   1
 -10  -2 -23   70.22    7.04   1
 -10  -2 -22    4.08    4.08   1
 -10  -2 -21    2.69    3.38   1
 -10  -2 -20   35.40    5.24   1
 -10  -2 -19    2.40    3.60   1
 -10  -2 -18  180.10   12.08   1
 -10  -2 -17    5.29    4.00   1
 -10  -2 -16    7.40    3.37   1
 -10  -2 -15   -1.90    3.01   1
 -10  -2 -14    6.92    3.42   1
 -10  -2 -13    1.10    2.39   1
 -10  -2 -11    1.90    3.31   1
 -10  -2 -10    6.20    3.39   1
 -10  -2  -9   77.79    6.35   1
 -10  -2  -8   17.14    3.97   1
 -10  -2  -7    5.62    3.51   1
 -10  -2  -6    9.30    2.68   1
 -10  -2  -5    2.50    2.21   1
 -10  -2  -4   17.47    3.76   1
 -10  -2  -3  132.25    8.51   1
 -10  -2  -2  123.21    7.77   1
 -10  -2  -1    2.99    2.80   1
 -10  -2   0    3.80    3.32   1
 -10  -2   1    8.29    3.40   1
 -10  -2   2   27.56    4.09   1
 -10  -2  10   -1.69    1.30   1
 -10  -2  11   -0.59    1.79   1
 -10  -2  12   51.98    4.04   1
 -10  -2  13    6.10    2.32   1
 -10  -2  14    4.28    1.78   1
 -10  -2  15   51.98    4.47   1
 -10  -2  16   18.92    2.61   1
 -10  -2  17    5.90    2.28   1
 -10  -2  18   26.42    3.60   1
 -10  -2  19   43.03    4.46   1
 -10  -2  20    2.69    2.20   1
 -10  -2  21   10.69    2.88   1
 -10  -2  22    0.59    2.39   1
 -10  -2  23   10.63    3.19   1
 -10  -2  35    2.50    4.11   1
 -10  -1 -32    1.69    5.49   1
 -10  -1 -31    3.20    4.69   1
 -10  -1 -30   65.12    9.20   1
 -10  -1 -29   13.10    5.21   1
 -10  -1 -28    0.90    4.10   1
 -10  -1 -27    5.81    4.72   1
 -10  -1 -26    5.81    4.72   1
 -10  -1 -25    0.79    3.88   1
 -10  -1 -24   38.44    4.84   1
 -10  -1 -23   -0.90    4.01   1
 -10  -1 -22    0.10    3.44   1
 -10  -1 -21    3.80    4.41   1
 -10  -1 -20   10.63    3.78   1
 -10  -1 -19    8.53    3.62   1
 -10  -1 -18    3.50    3.89   1
 -10  -1 -17   13.18    4.28   1
 -10  -1 -16    3.10    3.70   1
 -10  -1 -15  129.50    8.19   1
 -10  -1 -13   -1.80    3.40   1
 -10  -1 -12  207.94   12.98   1
 -10  -1 -11    5.02    2.69   1
 -10  -1 -10    3.20    3.19   1
 -10  -1  -9   26.11    4.19   1
 -10  -1  -8    4.80    2.98   1
 -10  -1  -7    3.39    3.09   1
 -10  -1  -6   65.61    6.48   1
 -10  -1  -5    4.08    3.27   1
 -10  -1  -4   17.22    3.82   1
 -10  -1  -3   49.14    4.91   1
 -10  -1  -2    9.00    3.12   1
 -10  -1  -1    8.41    3.71   1
 -10  -1   0   39.44    4.02   1
 -10  -1   1    5.90    3.11   1
 -10  -1   2   20.34    3.88   1
 -10  -1   3   70.06    7.20   1
 -10  -1  10   18.49    2.41   1
 -10  -1  12   23.52    2.72   1
 -10  -1  13  135.02    8.37   1
 -10  -1  14    4.20    1.80   1
 -10  -1  15   11.70    2.53   1
 -10  -1  16    1.21    2.00   1
 -10  -1  17    1.00    2.10   1
 -10  -1  18   32.95    3.44   1
 -10  -1  19   18.84    3.04   1
 -10  -1  21   20.43    3.34   1
 -10  -1  22   -0.30    2.11   1
 -10  -1  23    1.49    2.98   1
 -10  -1  24   -1.30    2.51   1
 -10  -1  25    7.62    3.31   1
 -10  -1  26    5.52    2.73   1
 -10  -1  28   -2.10    3.39   1
 -10  -1  31  153.51   10.90   1
 -10  -1  33    5.29    3.82   1
 -10  -1  34   44.76    6.15   1
 -10  -1  36    2.59    4.28   1
 -10   0 -32    2.10    5.60   1
 -10   0 -30   11.70    5.27   1
 -10   0 -28    3.31    4.40   1
 -10   0 -24  160.02   13.91   1
 -10   0 -22    2.31    3.62   1
 -10   0 -20   58.98    6.76   1
 -10   0 -18   53.73    6.01   1
 -10   0 -16    6.00    3.18   1
 -10   0 -14   11.49    3.59   1
 -10   0 -12  136.89    8.89   1
 -10   0 -10    2.99    3.01   1
 -10   0  -8    2.69    3.18   1
 -10   0  -6    5.81    3.62   1
 -10   0  -4   38.07    5.31   1
 -10   0  -2    1.69    2.39   1
 -10   0   0  213.45   11.98   1
 -10   0   2   78.15    6.54   1
 -10   0   4   16.89    3.70   1
 -10   0   6   38.94    4.62   1
 -10   0  14   28.20    2.55   1
 -10   0  16   12.18    2.37   1
 -10   0  20    2.19    2.10   1
 -10   0  22   30.14    4.50   1
 -10   0  24    5.38    3.29   1
 -10   0  26    7.67    2.88   1
 -10   0  28    5.38    3.39   1
 -10   0  30    8.12    3.42   1
 -10   0  34    3.80    4.41   1
 -10   0  36   23.52    5.04   1
 -10   1 -31    1.80    5.60   1
 -10   1 -30   70.39    8.05   1
 -10   1 -29   16.97    4.86   1
 -10   1 -28    1.49    4.88   1
 -10   1 -27    7.08    4.58   1
 -10   1 -26    1.21    4.22   1
 -10   1 -25    4.00    4.32   1
 -10   1 -24   57.61    7.59   1
 -10   1 -23    5.90    4.33   1
 -10   1 -22    5.71    3.82   1
 -10   1 -21    4.58    3.60   1
 -10   1 -19   20.34    4.42   1
 -10   1 -18    6.10    3.51   1
 -10   1 -17    9.80    4.01   1
 -10   1 -16    0.50    3.01   1
 -10   1 -15  114.70    9.21   1
 -10   1 -14    4.20    3.40   1
 -10   1 -12  185.78   10.90   1
 -10   1 -11    9.49    3.33   1
 -10   1 -10    2.40    2.39   1
 -10   1  -9   22.37    3.78   1
 -10   1  -8   -0.30    3.11   1
 -10   1  -7    6.81    2.92   1
 -10   1  -6   58.68    5.97   1
 -10   1  -5    6.81    3.18   1
 -10   1  -4   19.62    4.08   1
 -10   1  -3   41.47    4.38   1
 -10   1  -2    9.61    3.29   1
 -10   1  -1   10.11    3.18   1
 -10   1   0   21.44    2.87   1
 -10   1   1    4.41    3.40   1
 -10   1   2   10.30    3.72   1
 -10   1   3   66.42    6.68   1
 -10   1   4    6.10    2.12   1
 -10   1   5    2.31    3.22   1
 -10   1   6  103.23    7.32   1
 -10   1   7  118.81    8.28   1
 -10   1   8   38.81    4.73   1
 -10   1  25    0.40    2.60   1
 -10   1  26    3.39    2.61   1
 -10   1  27   24.70    3.98   1
 -10   1  28    2.59    3.19   1
 -10   1  29    1.30    3.19   1
 -10   1  30    3.50    3.59   1
 -10   1  31  150.31   12.75   1
 -10   2 -32  -16.16    6.91   1
 -10   2 -31   -2.31    5.72   1
 -10   2 -30   25.60    6.07   1
 -10   2 -29   -5.20    4.88   1
 -10   2 -28   -3.31    2.91   1
 -10   2 -27   26.52    5.77   1
 -10   2 -26   21.62    5.39   1
 -10   2 -24   -1.30    4.70   1
 -10   2 -23   63.84    6.71   1
 -10   2 -22    0.59    3.97   1
 -10   2 -21    5.20    4.29   1
 -10   2 -20   35.40    5.47   1
 -10   2 -19    5.11    2.62   1
 -10   2 -18  178.76   10.43   1
 -10   2 -17    6.30    3.92   1
 -10   2 -16   10.18    2.81   1
 -10   2 -15    4.58    3.98   1
 -10   2 -14   10.18    2.62   1
 -10   2 -13    0.79    3.19   1
 -10   2 -12    5.71    3.49   1
 -10   2 -11   -1.59    2.90   1
 -10   2 -10    1.00    3.00   1
 -10   2  -9   55.06    4.90   1
 -10   2  -8   11.90    3.52   1
 -10   2  -7    6.40    2.38   1
 -10   2  -6    8.88    2.68   1
 -10   2  -5    6.20    2.19   1
 -10   2  -4   10.82    3.09   1
 -10   2  -3  110.04    8.81   1
 -10   2  -2   90.44    7.42   1
 -10   2  -1    0.30    3.21   1
 -10   2   0    5.90    3.21   1
 -10   2   1   11.22    3.42   1
 -10   2   2   22.94    4.50   1
 -10   2   3   96.04    8.43   1
 -10   2   4    6.00    3.18   1
 -10   2   5   31.14    4.24   1
 -10   2   6    3.61    3.31   1
 -10   2   7   18.49    3.01   1
 -10   2   9  233.78   12.23   1
 -10   3 -29   -1.49    4.88   1
 -10   3 -28    1.80    5.09   1
 -10   3 -27   -0.50    4.32   1
 -10   3 -26   19.98    5.10   1
 -10   3 -25   -2.69    4.49   1
 -10   3 -24   27.77    5.80   1
 -10   3 -23    9.61    5.02   1
 -10   3 -22    2.31    3.92   1
 -10   3 -21   94.87    8.38   1
 -10   3 -20   -0.79    4.08   1
 -10   3 -19   -1.80    3.81   1
 -10   3 -18    5.52    3.99   1
 -10   3 -17    0.79    3.99   1
 -10   3 -16    4.20    3.49   1
 -10   3 -15   95.06    7.99   1
 -10   3 -14    5.52    3.90   1
 -10   3 -13    4.08    2.99   1
 -10   3 -12   11.29    3.70   1
 -10   3 -11    6.92    3.00   1
 -10   3  -9    5.71    3.49   1
 -10   3  -8   -0.79    3.08   1
 -10   3  -7    1.90    3.20   1
 -10   3  -6   -1.99    2.20   1
 -10   3  -5   24.80    4.18   1
 -10   3  -4    2.50    1.99   1
 -10   3  -3   24.01    3.63   1
 -10   3  -2    4.80    3.29   1
 -10   3  -1    0.50    3.11   1
 -10   3   0    4.20    3.32   1
 -10   3   1   41.22    4.49   1
 -10   3   2   25.50    3.94   1
 -10   3   3  192.93   11.95   1
 -10   3   4   13.47    3.89   1
 -10   3   5   -1.10    3.30   1
 -10   3   6   65.45    6.63   1
 -10   3   7    4.49    3.10   1
 -10   3   8   -0.90    2.11   1
 -10   3   9    8.01    3.68   1
 -10   3  10   75.52    6.60   1
 -10   4 -27   22.75    4.96   1
 -10   4 -26   -1.59    4.49   1
 -10   4 -25   -1.59    4.99   1
 -10   4 -24   25.30    5.43   1
 -10   4 -23    5.38    4.69   1
 -10   4 -22    9.30    4.51   1
 -10   4 -21   24.01    5.59   1
 -10   4 -20   15.68    4.67   1
 -10   4 -19    1.59    4.08   1
 -10   4 -18    3.61    3.19   1
 -10   4 -17    0.00    1.00   1
 -10   4 -16    0.79    3.58   1
 -10   4 -15    1.90    3.51   1
 -10   4 -14    2.79    3.81   1
 -10   4 -13    1.80    3.11   1
 -10   4 -12   56.25    5.55   1
 -10   4 -11    9.30    2.99   1
 -10   4 -10   21.62    4.28   1
 -10   4  -9   59.60    6.95   1
 -10   4  -8   39.82    4.04   1
 -10   4  -7    1.21    3.61   1
 -10   4  -6   23.72    4.97   1
 -10   4  -5    2.10    3.10   1
 -10   4  -4   10.82    3.49   1
 -10   4  -3   75.52    6.26   1
 -10   4  -2   71.23    5.74   1
 -10   4  -1   -1.00    2.80   1
 -10   4   0   26.11    4.29   1
 -10   4   1    6.71    3.52   1
 -10   4   2   11.02    3.32   1
 -10   4   3   14.67    3.29   1
 -10   4   4    3.39    2.80   1
 -10   4   5    1.90    3.31   1
 -10   4   6    9.42    3.38   1
 -10   4   7    2.69    2.30   1
 -10   4   8    5.52    2.91   1
 -10   4   9   56.25    6.30   1
 -10   4  10    9.12    3.32   1
 -10   5 -26   -8.18    5.21   1
 -10   5 -25   -6.40    5.01   1
 -10   5 -24   29.81    5.68   1
 -10   5 -23    6.81    4.91   1
 -10   5 -22   -3.10    3.31   1
 -10   5 -21   -4.58    4.19   1
 -10   5 -20    6.60    4.52   1
 -10   5 -19   -0.90    3.91   1
 -10   5 -18   11.22    5.09   1
 -10   5 -17   -2.69    3.71   1
 -10   5 -16   -0.59    2.88   1
 -10   5 -15  119.90    8.10   1
 -10   5 -14    3.31    4.00   1
 -10   5 -13    5.11    3.89   1
 -10   5 -12   36.60    5.45   1
 -10   5 -11   -2.19    3.70   1
 -10   5 -10   12.11    3.41   1
 -10   5  -9   42.25    4.55   1
 -10   5  -8   32.38    4.89   1
 -10   5  -7    4.20    3.40   1
 -10   5  -6   11.90    3.52   1
 -10   5  -5   26.63    4.54   1
 -10   5  -4    2.19    3.70   1
 -10   5  -3   31.70    4.95   1
 -10   5  -2   12.67    3.92   1
 -10   5  -1    1.00    2.00   1
 -10   5   0  144.00   12.00   1
 -10   5   1    7.67    3.38   1
 -10   5   2    2.31    3.40   1
 -10   5   3   62.73    6.18   1
 -10   5   4   -1.21    2.51   1
 -10   5   5    3.80    3.32   1
 -10   5   6   16.32    3.88   1
 -10   5   7    1.80    3.11   1
 -10   5   8    7.90    3.37   1
 -10   5   9   36.84    3.64   1
 -10   5  10   -0.40    3.49   1
 -10   5  11   12.18    2.79   1
 -10   5  12  229.22   12.41   1
 -10   6 -23    6.30    5.92   1
 -10   6 -22    1.59    4.89   1
 -10   6 -21   18.49    4.99   1
 -10   6 -20    0.20    4.63   1
 -10   6 -19    5.38    4.18   1
 -10   6 -18  152.77   11.37   1
 -10   6 -17   16.00    4.32   1
 -10   6 -16    6.10    3.61   1
 -10   6 -15    2.59    3.70   1
 -10   6 -14    8.88    4.11   1
 -10   6 -13   -1.00    4.60   1
 -10   6 -12  124.77    9.38   1
 -10   6 -11   21.90    4.31   1
 -10   6 -10    3.61    3.91   1
 -10   6  -9    6.71    4.30   1
 -10   6  -8   -2.10    3.60   1
 -10   6  -7   -1.21    2.71   1
 -10   6  -6   27.25    5.74   1
 -10   6  -4   31.47    5.05   1
 -10   6  -3   17.22    3.90   1
 -10   6  -2   11.09    4.13   1
 -10   6  -1   -2.19    2.99   1
 -10   6   0   47.61    6.35   1
 -10   6   1   -1.49    3.98   1
 -10   6   2    4.08    3.11   1
 -10   6   3    7.18    3.91   1
 -10   6   4    2.59    3.38   1
 -10   6   5    1.99    2.00   1
 -10   6   6   83.54    7.68   1
 -10   6   7   -0.50    3.21   1
 -10   6   8   -0.90    3.50   1
 -10   6   9   -0.20    3.22   1
 -10   6  10   -1.90    3.51   1
 -10   6  11    7.78    3.68   1
 -10   6  12    8.53    4.03   1
 -10   6  13   33.76    5.00   1
 -10   7 -22   -5.71    5.11   1
 -10   7 -20   11.22    3.82   1
 -10   7 -19    1.59    3.58   1
 -10   7 -18   23.91    6.36   1
 -10   7 -17    6.71    4.92   1
 -10   7 -16   -0.59    4.77   1
 -10   7 -15   82.99    7.83   1
 -10   7 -14   -2.19    4.88   1
 -10   7 -13    6.60    4.11   1
 -10   7 -12   68.39    7.44   1
 -10   7 -11   -3.88    3.78   1
 -10   7 -10   -3.50    4.41   1
 -10   7  -9    1.00    3.90   1
 -10   7  -8   -1.30    4.10   1
 -10   7  -7    5.11    3.89   1
 -10   7  -6   81.36    8.66   1
 -10   7  -5    3.88    4.10   1
 -10   7  -4    1.00    3.30   1
 -10   7  -3   -0.20    3.73   1
 -10   7  -2    1.30    4.10   1
 -10   7  -1    0.50    3.72   1
 -10   7   0   -2.10    3.31   1
 -10   7   1   12.39    3.03   1
 -10   7   2    1.49    3.68   1
 -10   7   3    6.20    3.88   1
 -10   7   4   -0.30    3.62   1
 -10   7   5    4.28    3.97   1
 -10   7   6   29.16    4.97   1
 -10   7   7    3.50    3.59   1
 -10   7   8    1.49    3.98   1
 -10   7   9   24.21    4.72   1
 -10   7  10    1.80    3.48   1
 -10   7  11    3.69    3.99   1
 -10   7  12   93.51    7.16   1
 -10   7  13    7.90    3.48   1
 -10   8 -17   -7.90    4.78   1
 -10   8 -16   -4.28    5.38   1
 -10   8 -15   11.83    5.50   1
 -10   8 -14   -2.10    5.02   1
 -10   8 -13    4.71    4.90   1
 -10   8 -12    7.67    3.77   1
 -10   8 -11   -3.69    4.88   1
 -10   8 -10    0.40    3.39   1
 -10   8  -9   78.32    7.97   1
 -10   8  -8    3.10    4.29   1
 -10   8  -7   -4.49    2.80   1
 -10   8  -6    6.40    4.71   1
 -10   8  -5    1.80    4.10   1
 -10   8  -4    1.21    4.42   1
 -10   8  -3   77.44    8.10   1
 -10   8   0    4.58    4.28   1
 -10   8   1   -1.69    4.39   1
 -10   8   2    5.62    4.12   1
 -10   8   3   27.04    4.99   1
 -10   8   4   20.88    5.30   1
 -10   8   5    3.61    4.10   1
 -10   8   6    8.58    4.57   1
 -10   8   7   -2.10    4.00   1
 -10   8   8   -1.10    2.79   1
 -10   8   9    4.71    4.30   1
 -10   8  10   -2.59    2.70   1
 -10   8  11    1.49    3.98   1
 -10   8  12    3.61    4.29   1
 -10   8  13   15.76    5.32   1
 -10   9 -16   -4.49    4.58   1
 -10   9 -15  105.88    9.88   1
 -10   9 -14   13.76    5.57   1
 -10   9 -13    1.99    4.60   1
 -10   9 -12    2.50    4.71   1
 -10   9 -11   -3.39    5.70   1
 -10   9 -10   -6.00    5.29   1
 -10   9  -9    2.31    3.92   1
 -10   9  -8   13.62    5.24   1
 -10   9  -7    5.81    4.63   1
 -10   9  -6    5.20    5.20   1
 -10   9  -5    6.10    4.69   1
 -10   9  -4    1.59    4.79   1
 -10   9  -3    7.08    4.79   1
 -10   9  -2    4.71    4.82   1
 -10   9  -1    1.80    4.50   1
 -10   9   0    3.20    4.90   1
 -10   9   1    3.80    4.60   1
 -10   9   2    7.40    5.11   1
 -10   9   3   33.76    6.04   1
 -10   9   4   12.11    4.80   1
 -10   9   5    2.31    4.20   1
 -10   9   6    1.99    3.98   1
 -10   9   7    3.39    4.31   1
 -10   9   8    1.49    4.68   1
 -10   9   9   41.22    5.78   1
 -10  10  -8    2.79    5.08   1
 -10  10  -7   -4.00    4.80   1
 -10  10  -6   17.22    5.81   1
 -10  10  -5    2.89    4.49   1
 -10  10  -4   12.53    5.52   1
 -10  10  -3   11.09    6.13   1
 -10  10  -2    6.60    4.68   1
 -10  10  -1   -6.71    4.82   1
 -10  10   0    1.69    4.78   1
 -10  10   1    6.00    4.90   1
 -10  10   2   -8.29    4.20   1
 -10  10   3   -1.59    3.10   1
  -9 -11 -10    9.67    4.48   1
  -9 -11  -9   13.62    4.72   1
  -9 -11  -8    1.90    4.11   1
  -9 -11  -7    4.58    4.28   1
  -9 -11  -6   -1.80    4.10   1
  -9 -11  -5    2.10    3.92   1
  -9 -11  -4    1.21    4.82   1
  -9 -11  -3   -0.30    3.82   1
  -9 -11  -2   16.97    5.03   1
  -9 -11  -1    3.61    4.29   1
  -9 -11   0   32.26    5.91   1
  -9 -11   1    6.10    4.69   1
  -9 -11   2    3.50    4.00   1
  -9 -11   3   18.66    4.41   1
  -9 -11   4    3.31    4.22   1
  -9 -11   5    4.88    4.91   1
  -9 -11   6    9.18    4.91   1
  -9 -11   7   -1.10    4.01   1
  -9 -11   8    1.69    4.08   1
  -9 -11   9    7.78    4.58   1
  -9 -11  10   -0.59    2.68   1
  -9 -11  12   -1.30    4.20   1
  -9 -11  13    9.67    5.78   1
  -9 -10 -17    2.50    4.11   1
  -9 -10 -16    2.10    4.00   1
  -9 -10 -15   32.60    4.91   1
  -9 -10 -14    7.18    3.91   1
  -9 -10 -13    4.41    3.49   1
  -9 -10 -12   13.18    4.50   1
  -9 -10 -11    1.69    4.08   1
  -9 -10 -10   -0.40    3.88   1
  -9 -10  -9    8.53    3.80   1
  -9 -10  -8   17.39    4.00   1
  -9 -10  -7   -1.80    3.40   1
  -9 -10  -6    5.81    3.90   1
  -9 -10  -5   -0.71    3.81   1
  -9 -10  -4    1.59    3.88   1
  -9 -10  -3    4.00    4.08   1
  -9 -10  -2    5.11    4.20   1
  -9 -10  -1    2.59    3.19   1
  -9 -10   0   10.30    4.11   1
  -9 -10   1    1.10    3.40   1
  -9 -10   2    4.80    3.68   1
  -9 -10   3   19.98    4.38   1
  -9 -10   4    3.69    3.49   1
  -9 -10   5    3.20    3.90   1
  -9 -10   6   -1.80    3.70   1
  -9 -10   7    4.80    3.59   1
  -9 -10   8    7.90    3.82   1
  -9 -10   9    1.80    3.40   1
  -9 -10  10   -6.00    3.09   1
  -9 -10  11   -4.20    3.69   1
  -9 -10  12    7.08    3.99   1
  -9 -10  13    6.92    3.21   1
  -9 -10  14    2.19    3.40   1
  -9 -10  15  113.85   10.03   1
  -9 -10  16    1.49    3.98   1
  -9 -10  17    4.58    4.88   1
  -9 -10  18   34.81    5.66   1
  -9 -10  19    6.92    4.68   1
  -9 -10  20    7.18    3.81   1
  -9  -9 -22    6.60    4.78   1
  -9  -9 -21   69.89    7.02   1
  -9  -9 -20    1.30    3.69   1
  -9  -9 -19   -2.31    3.71   1
  -9  -9 -18   10.18    4.59   1
  -9  -9 -17   -1.59    4.18   1
  -9  -9 -16   -2.69    3.18   1
  -9  -9 -15   44.49    5.74   1
  -9  -9 -14   23.91    4.60   1
  -9  -9 -13   -0.20    3.22   1
  -9  -9 -12    1.39    3.89   1
  -9  -9 -11   -1.49    2.78   1
  -9  -9 -10    4.20    2.71   1
  -9  -9  -9   65.45    6.31   1
  -9  -9  -8    3.31    2.80   1
  -9  -9  -7    6.30    3.21   1
  -9  -9  -6   36.60    4.48   1
  -9  -9  -5    2.89    2.99   1
  -9  -9  -4   16.56    3.66   1
  -9  -9  -3   57.15    6.35   1
  -9  -9  -2   17.47    3.93   1
  -9  -9  -1    4.08    2.71   1
  -9  -9   0    8.41    3.02   1
  -9  -9   1    4.88    3.49   1
  -9  -9   2    5.20    2.92   1
  -9  -9   3   19.36    3.43   1
  -9  -9   4    2.31    2.80   1
  -9  -9   5   -0.90    3.00   1
  -9  -9   6    1.39    3.19   1
  -9  -9   7   -3.88    3.07   1
  -9  -9   8   11.49    4.00   1
  -9  -9   9    6.40    3.49   1
  -9  -9  10   18.40    3.86   1
  -9  -9  11    9.12    3.38   1
  -9  -9  12    8.53    3.68   1
  -9  -9  13    6.30    3.51   1
  -9  -9  14    2.79    3.71   1
  -9  -9  15   57.30    5.75   1
  -9  -9  16    2.79    4.38   1
  -9  -9  17   12.39    4.79   1
  -9  -9  19   -1.21    2.90   1
  -9  -9  20    7.02    4.40   1
  -9  -9  21   -2.50    4.30   1
  -9  -9  22   15.68    4.59   1
  -9  -9  23    4.41    4.49   1
  -9  -9  24    7.18    4.77   1
  -9  -9  25   -2.79    4.38   1
  -9  -8 -26    0.90    3.50   1
  -9  -8 -25    6.20    3.98   1
  -9  -8 -24   30.25    4.62   1
  -9  -8 -23    0.00    1.00   1
  -9  -8 -22    1.21    4.31   1
  -9  -8 -21   57.46    7.13   1
  -9  -8 -20   20.07    4.66   1
  -9  -8 -19    1.30    3.01   1
  -9  -8 -18   31.58    4.72   1
  -9  -8 -17   -0.20    3.01   1
  -9  -8 -16   25.20    4.82   1
  -9  -8 -15   97.81    6.92   1
  -9  -8 -14   -2.19    2.78   1
  -9  -8 -13    2.40    2.39   1
  -9  -8 -12   21.90    3.56   1
  -9  -8 -11   12.67    3.20   1
  -9  -8 -10    4.20    3.20   1
  -9  -8  -9    2.19    2.90   1
  -9  -8  -8    1.21    2.31   1
  -9  -8  -7    4.71    2.52   1
  -9  -8  -6   22.00    3.47   1
  -9  -8  -5   -1.90    2.59   1
  -9  -8  -4    3.31    2.62   1
  -9  -8  -3    2.99    2.28   1
  -9  -8  -2    9.30    3.29   1
  -9  -8  -1   12.39    3.52   1
  -9  -8   0    4.88    2.70   1
  -9  -8   1    6.20    3.09   1
  -9  -8   2    2.31    2.71   1
  -9  -8   3    7.78    2.79   1
  -9  -8   4    6.10    3.01   1
  -9  -8   5    1.00    2.80   1
  -9  -8   6   25.20    4.02   1
  -9  -8   7    3.88    2.68   1
  -9  -8   8    2.59    2.80   1
  -9  -8   9    1.30    2.39   1
  -9  -8  10    4.80    2.72   1
  -9  -8  11   -1.69    2.60   1
  -9  -8  12   12.32    4.00   1
  -9  -8  13   48.16    4.72   1
  -9  -8  14   -1.59    3.00   1
  -9  -8  15    4.80    3.20   1
  -9  -8  16   15.68    4.12   1
  -9  -8  17   16.16    4.58   1
  -9  -8  18    8.82    4.22   1
  -9  -8  19   21.44    4.82   1
  -9  -8  20   -0.71    3.41   1
  -9  -8  21   29.59    4.79   1
  -9  -8  22   -5.38    3.71   1
  -9  -8  25   13.99    4.41   1
  -9  -8  26   -3.50    3.70   1
  -9  -8  28    1.90    3.39   1
  -9  -8  29    7.51    4.88   1
  -9  -7 -26    4.28    3.39   1
  -9  -7 -25   -1.80    2.71   1
  -9  -7 -24   13.18    3.27   1
  -9  -7 -23   -2.69    2.79   1
  -9  -7 -22   -3.31    2.80   1
  -9  -7 -21   10.63    3.52   1
  -9  -7 -20    0.20    2.72   1
  -9  -7 -19    3.10    2.82   1
  -9  -7 -18  159.52   10.10   1
  -9  -7 -17    6.30    2.51   1
  -9  -7 -16   -0.79    2.79   1
  -9  -7 -15   12.32    2.88   1
  -9  -7 -14    4.08    2.91   1
  -9  -7 -13   -0.79    2.19   1
  -9  -7 -12    7.29    3.02   1
  -9  -7 -11    1.21    2.00   1
  -9  -7 -10    2.89    2.01   1
  -9  -7  -9   33.52    3.94   1
  -9  -7  -8    4.49    3.01   1
  -9  -7  -7    2.99    2.21   1
  -9  -7  -6    1.99    2.20   1
  -9  -7  -5   -1.21    2.42   1
  -9  -7  -4   -0.20    2.11   1
  -9  -7  -3    1.10    2.10   1
  -9  -7  -2   -0.20    2.21   1
  -9  -7  -1   -1.39    2.69   1
  -9  -7   0   58.98    4.92   1
  -9  -7   1   -0.71    2.20   1
  -9  -7   2    2.69    2.69   1
  -9  -7   3    7.29    2.38   1
  -9  -7   4    0.40    2.89   1
  -9  -7   5    8.41    2.49   1
  -9  -7   6   27.77    3.69   1
  -9  -7   7   -0.50    2.41   1
  -9  -7   8    0.40    2.39   1
  -9  -7   9   -1.69    2.29   1
  -9  -7  10   32.95    4.13   1
  -9  -7  11    2.89    2.48   1
  -9  -7  12   16.08    3.61   1
  -9  -7  13   17.47    4.68   1
  -9  -7  14   -0.90    2.81   1
  -9  -7  15   36.48    4.47   1
  -9  -7  16    5.29    2.58   1
  -9  -7  17   -1.59    3.00   1
  -9  -7  18   94.67    7.78   1
  -9  -7  19   -0.50    3.11   1
  -9  -7  22    2.31    3.50   1
  -9  -7  23   -3.39    3.50   1
  -9  -7  24   43.03    6.17   1
  -9  -7  27    0.50    3.92   1
  -9  -7  29    8.82    3.33   1
  -9  -7  30   -6.50    4.39   1
  -9  -6 -22   19.10    3.32   1
  -9  -6 -21    6.50    2.81   1
  -9  -6 -20    2.31    2.31   1
  -9  -6 -19    0.50    2.81   1
  -9  -6 -18   28.73    3.43   1
  -9  -6 -17   18.06    3.23   1
  -9  -6 -16   -2.31    2.49   1
  -9  -6 -15   23.14    3.08   1
  -9  -6 -14   13.10    2.97   1
  -9  -6 -13    2.19    2.31   1
  -9  -6 -12   71.06    5.40   1
  -9  -6 -11    3.20    2.11   1
  -9  -6 -10    2.19    2.19   1
  -9  -6  -9    2.10    2.09   1
  -9  -6  -8   13.62    2.58   1
  -9  -6  -7    8.01    2.21   1
  -9  -6  -6   13.76    2.37   1
  -9  -6  -5    0.79    1.69   1
  -9  -6  -4   -1.59    1.59   1
  -9  -6  -3    4.71    2.00   1
  -9  -6  -2    1.59    1.89   1
  -9  -6  -1   13.76    2.82   1
  -9  -6   0   60.06    4.34   1
  -9  -6   1    0.90    1.71   1
  -9  -6   2   -1.21    2.11   1
  -9  -6   3   11.49    2.92   1
  -9  -6   4   13.62    2.80   1
  -9  -6   5    1.99    2.40   1
  -9  -6   6    3.39    2.21   1
  -9  -6   7   12.89    2.80   1
  -9  -6   8    1.80    2.30   1
  -9  -6   9   21.62    3.16   1
  -9  -6  10   12.82    3.01   1
  -9  -6  11    4.28    2.40   1
  -9  -6  12  154.50    8.70   1
  -9  -6  13   44.49    4.40   1
  -9  -6  14   10.11    2.93   1
  -9  -6  19    9.92    3.59   1
  -9  -6  20    2.31    2.80   1
  -9  -6  21   14.06    3.30   1
  -9  -6  22    0.59    3.19   1
  -9  -6  24    7.18    3.27   1
  -9  -6  25    2.31    3.22   1
  -9  -6  28   -2.50    4.20   1
  -9  -6  29    5.38    3.20   1
  -9  -6  30   27.56    5.04   1
  -9  -5 -16   -3.31    2.00   1
  -9  -5 -14    3.88    2.01   1
  -9  -5 -14    0.50    3.62   1
  -9  -5 -13    5.71    3.59   1
  -9  -5 -13    7.18    2.52   1
  -9  -5 -12   86.86    6.90   1
  -9  -5 -12   75.69    5.22   1
  -9  -5 -11    1.10    2.71   1
  -9  -5 -11   -0.50    1.41   1
  -9  -5 -10    4.58    3.30   1
  -9  -5 -10    4.20    1.80   1
  -9  -5  -9   58.37    6.26   1
  -9  -5  -9   41.99    3.24   1
  -9  -5  -8    6.92    2.10   1
  -9  -5  -8    6.00    3.38   1
  -9  -5  -7    7.90    2.02   1
  -9  -5  -6    4.08    1.62   1
  -9  -5  -5    1.49    1.90   1
  -9  -5  -4    3.10    1.51   1
  -9  -5  -3    1.00    1.80   1
  -9  -5  -2    5.38    1.81   1
  -9  -5  -1    7.62    2.10   1
  -9  -5   0   49.84    4.24   1
  -9  -5   1   13.18    1.82   1
  -9  -5   2    0.59    1.79   1
  -9  -5   3   15.92    2.47   1
  -9  -5   4    1.99    2.20   1
  -9  -5   5   14.59    2.37   1
  -9  -5   6    3.39    1.91   1
  -9  -5   7    1.00    1.90   1
  -9  -5   8    4.80    2.72   1
  -9  -5   9   -0.79    1.80   1
  -9  -5  10    3.61    2.20   1
  -9  -5  11    4.80    2.72   1
  -9  -5  12    1.00    2.20   1
  -9  -5  13    1.90    2.21   1
  -9  -5  14    6.30    2.91   1
  -9  -5  15  181.44    8.89   1
  -9  -5  19   32.60    4.34   1
  -9  -5  20    2.10    2.70   1
  -9  -5  23    0.79    2.79   1
  -9  -5  34    1.69    3.09   1
  -9  -4 -20   52.71    4.79   1
  -9  -4 -19   -1.49    2.59   1
  -9  -4 -18    9.00    3.30   1
  -9  -4 -17    8.70    3.30   1
  -9  -4 -16   -0.10    2.94   1
  -9  -4 -15  119.90    6.79   1
  -9  -4 -14    5.29    2.81   1
  -9  -4 -13    6.71    3.11   1
  -9  -4 -12   30.14    3.73   1
  -9  -4 -11    4.58    2.78   1
  -9  -4 -10    1.90    1.41   1
  -9  -4 -10    1.69    2.50   1
  -9  -4  -9    2.50    1.49   1
  -9  -4  -9    8.18    2.97   1
  -9  -4  -8   22.94    4.02   1
  -9  -4  -8   13.99    1.80   1
  -9  -4  -7    8.53    1.52   1
  -9  -4  -7   12.11    2.92   1
  -9  -4  -6  101.81    6.46   1
  -9  -4  -6   86.30    4.83   1
  -9  -4  -5    1.90    2.59   1
  -9  -4  -5    0.20    1.21   1
  -9  -4  -4   15.92    2.23   1
  -9  -4  -4   27.77    3.69   1
  -9  -4  -3    5.38    1.48   1
  -9  -4  -2   45.16    3.23   1
  -9  -4  -1   -0.40    1.40   1
  -9  -4   0    1.49    1.49   1
  -9  -4   1    0.90    1.50   1
  -9  -4   2    9.42    1.90   1
  -9  -4   3   44.22    4.26   1
  -9  -4   4    7.18    1.82   1
  -9  -4   5    3.61    1.90   1
  -9  -4   6   98.41    5.56   1
  -9  -4   7    6.81    2.09   1
  -9  -4   8   17.47    3.01   1
  -9  -4   9    3.31    2.00   1
  -9  -4  10   35.64    3.34   1
  -9  -4  11   29.92    2.84   1
  -9  -4  12   12.53    2.48   1
  -9  -4  13   37.95    3.70   1
  -9  -4  17    9.67    2.67   1
  -9  -4  28    0.10    2.43   1
  -9  -4  31   -0.50    2.41   1
  -9  -4  34    9.00    3.00   1
  -9  -3 -26    2.10    3.51   1
  -9  -3 -25    4.49    3.60   1
  -9  -3 -24   29.48    4.67   1
  -9  -3 -23    6.50    3.42   1
  -9  -3 -22    5.38    3.29   1
  -9  -3 -21    4.41    3.32   1
  -9  -3 -19    5.02    3.09   1
  -9  -3 -18   62.88    5.55   1
  -9  -3 -17    2.10    2.70   1
  -9  -3 -16    4.28    2.69   1
  -9  -3 -15    1.49    2.49   1
  -9  -3 -14    4.71    3.08   1
  -9  -3 -13   -0.59    2.48   1
  -9  -3 -12    0.00    1.00   1
  -9  -3 -11   14.29    3.40   1
  -9  -3 -10   11.90    3.11   1
  -9  -3  -9   41.22    4.37   1
  -9  -3  -8   28.62    3.42   1
  -9  -3  -7    1.80    2.60   1
  -9  -3  -6   47.75    5.25   1
  -9  -3  -5   12.67    2.99   1
  -9  -3  -4   17.22    3.07   1
  -9  -3  -3  366.34   14.16   1
  -9  -3  -3  451.14   21.24   1
  -9  -3  -2    8.41    3.02   1
  -9  -3  -1    0.59    2.48   1
  -9  -3  -1    1.49    1.29   1
  -9  -3   0    0.10    2.63   1
  -9  -3   0    1.10    1.20   1
  -9  -3   1    3.10    1.20   1
  -9  -3   2    4.20    1.60   1
  -9  -3   3   47.75    3.18   1
  -9  -3   4    5.71    1.39   1
  -9  -3   5    5.29    1.61   1
  -9  -3   6   44.36    3.06   1
  -9  -3   7    5.11    1.58   1
  -9  -3   8    8.12    2.11   1
  -9  -3   9  181.98    9.44   1
  -9  -3  10   -1.80    1.61   1
  -9  -3  37    9.61    3.91   1
  -9  -3  38   -3.20    4.51   1
  -9  -2 -31   -2.50    4.11   1
  -9  -2 -30    7.67    4.71   1
  -9  -2 -29    8.41    4.52   1
  -9  -2 -28    2.79    3.71   1
  -9  -2 -27   73.10    6.33   1
  -9  -2 -26   28.84    5.05   1
  -9  -2 -25    1.49    3.49   1
  -9  -2 -24   51.12    6.43   1
  -9  -2 -23   52.71    5.66   1
  -9  -2 -22   29.05    4.85   1
  -9  -2 -21   34.57    4.47   1
  -9  -2 -20   45.70    5.00   1
  -9  -2 -19    7.67    2.99   1
  -9  -2 -18   -2.79    2.91   1
  -9  -2 -17    4.28    2.69   1
  -9  -2 -16   10.69    3.40   1
  -9  -2 -15  198.53   13.53   1
  -9  -2 -14   16.00    3.44   1
  -9  -2 -13    0.30    2.61   1
  -9  -2 -12   97.02    6.70   1
  -9  -2 -11    0.10    2.53   1
  -9  -2 -10   -0.71    2.40   1
  -9  -2  -9   52.13    4.77   1
  -9  -2  -8    2.59    2.61   1
  -9  -2  -7    5.11    2.49   1
  -9  -2  -6   68.72    5.47   1
  -9  -2  -5    7.08    2.71   1
  -9  -2  -4   17.14    3.48   1
  -9  -2  -3   62.73    6.18   1
  -9  -2  -2   23.23    3.47   1
  -9  -2  -1    5.29    2.58   1
  -9  -2   0   44.09    4.52   1
  -9  -2   1   -2.19    2.40   1
  -9  -2   1    0.00    1.00   1
  -9  -2   2    6.10    2.62   1
  -9  -2   2   -0.40    1.10   1
  -9  -2   4   -0.40    1.00   1
  -9  -2   5   13.99    1.87   1
  -9  -2   6  109.41    5.23   1
  -9  -2   7    7.90    1.69   1
  -9  -2   8    9.12    1.87   1
  -9  -2   9    5.11    1.72   1
  -9  -2  10   10.89    2.31   1
  -9  -2  11   16.32    2.18   1
  -9  -2  12    0.50    1.70   1
  -9  -2  39   26.52    5.97   1
  -9  -1 -36   46.10    7.47   1
  -9  -1 -35   -0.50    5.13   1
  -9  -1 -34    8.88    6.02   1
  -9  -1 -33   32.72    6.64   1
  -9  -1 -32    9.00    4.32   1
  -9  -1 -31    4.58    3.68   1
  -9  -1 -30    6.50    4.28   1
  -9  -1 -29   -1.39    3.68   1
  -9  -1 -28    6.40    3.59   1
  -9  -1 -27   47.33    6.05   1
  -9  -1 -26   -0.50    3.41   1
  -9  -1 -25    2.40    3.60   1
  -9  -1 -24  102.01    8.69   1
  -9  -1 -23    1.30    2.19   1
  -9  -1 -22   10.50    3.37   1
  -9  -1 -19    8.58    3.11   1
  -9  -1 -18  103.43    8.34   1
  -9  -1 -17   -0.90    2.39   1
  -9  -1 -16   10.89    3.50   1
  -9  -1 -15   20.07    3.40   1
  -9  -1 -14    9.30    3.17   1
  -9  -1 -13    2.99    2.60   1
  -9  -1 -12   49.00    4.34   1
  -9  -1 -11    6.50    2.81   1
  -9  -1 -10    4.58    2.48   1
  -9  -1  -9   60.22    4.35   1
  -9  -1  -8    1.39    2.50   1
  -9  -1  -7   -1.39    2.38   1
  -9  -1  -6    5.52    2.49   1
  -9  -1  -5    8.18    3.20   1
  -9  -1  -4   -0.71    2.50   1
  -9  -1  -3    8.70    2.30   1
  -9  -1  -2    2.10    2.41   1
  -9  -1  -1   -0.20    2.21   1
  -9  -1   0  173.19    9.48   1
  -9  -1   1    2.50    2.09   1
  -9  -1   2    2.89    1.70   1
  -9  -1   3    0.71    2.30   1
  -9  -1   4   19.89    1.69   1
  -9  -1   4   23.62    3.50   1
  -9  -1   5    3.10    2.60   1
  -9  -1   6    1.00    1.00   1
  -9  -1   7  117.94    5.86   1
  -9  -1   8    4.28    1.49   1
  -9  -1   9  139.71    7.09   1
  -9  -1  10   38.81    2.87   1
  -9  -1  11   13.76    2.08   1
  -9  -1  12  179.83    8.31   1
  -9  -1  13   22.56    2.47   1
  -9  -1  15   69.72    5.85   1
  -9  -1  16    5.90    1.70   1
  -9  -1  17    4.41    2.31   1
  -9  -1  18  102.01    5.66   1
  -9  -1  24   82.45    7.63   1
  -9  -1  25   10.63    2.67   1
  -9  -1  28   35.76    4.78   1
  -9  -1  29    4.00    3.28   1
  -9  -1  36   32.38    5.46   1
  -9  -1  37    7.62    4.53   1
  -9  -1  38    2.89    4.18   1
  -9  -1  39    5.29    4.88   1
  -9   0 -36   18.49    6.19   1
  -9   0 -34    4.41    4.70   1
  -9   0 -32   -0.20    4.33   1
  -9   0 -30  181.44   15.89   1
  -9   0 -28    7.29    3.89   1
  -9   0 -26   70.06    6.36   1
  -9   0 -24    4.00    3.40   1
  -9   0 -22    0.59    3.77   1
  -9   0 -20  199.37   10.73   1
  -9   0 -18    6.60    3.19   1
  -9   0 -16    4.58    2.91   1
  -9   0 -14    3.31    2.91   1
  -9   0 -12  259.21   12.56   1
  -9   0 -10    0.79    2.58   1
  -9   0  -8    2.69    2.30   1
  -9   0  -6  101.40    7.05   1
  -9   0  -4    6.71    2.80   1
  -9   0  -2    3.20    1.90   1
  -9   0   0   32.15    3.40   1
  -9   0   2    4.08    2.59   1
  -9   0   4   69.22    6.32   1
  -9   0   8    3.69    1.19   1
  -9   0  10   71.06    4.72   1
  -9   0  12  218.15   10.34   1
  -9   0  14   10.89    2.11   1
  -9   0  16    2.50    2.40   1
  -9   0  18   70.06    5.69   1
  -9   0  20   -1.90    2.01   1
  -9   0  22   16.73    3.44   1
  -9   0  24    3.80    2.30   1
  -9   0  34   10.37    3.99   1
  -9   0  36   16.48    4.22   1
  -9   1 -36   64.16    8.97   1
  -9   1 -35   -2.50    5.18   1
  -9   1 -34   -0.79    3.08   1
  -9   1 -33   31.81    5.98   1
  -9   1 -32    6.81    5.12   1
  -9   1 -31    2.59    4.51   1
  -9   1 -30   15.60    4.90   1
  -9   1 -29   -0.71    3.71   1
  -9   1 -28    1.90    2.59   1
  -9   1 -27   44.49    6.14   1
  -9   1 -26    1.49    3.39   1
  -9   1 -25    7.02    4.08   1
  -9   1 -24   91.39    8.22   1
  -9   1 -23    2.40    3.60   1
  -9   1 -22    5.11    2.62   1
  -9   1 -21   15.60    3.48   1
  -9   1 -20   14.52    3.51   1
  -9   1 -19    1.90    3.20   1
  -9   1 -18  126.56    7.88   1
  -9   1 -17   -1.10    2.79   1
  -9   1 -16   10.69    3.01   1
  -9   1 -15   12.18    3.07   1
  -9   1 -14   -1.99    2.68   1
  -9   1 -13    3.88    2.60   1
  -9   1 -12   38.44    4.71   1
  -9   1 -11    5.81    2.02   1
  -9   1 -10    2.50    1.80   1
  -9   1  -9   51.12    5.29   1
  -9   1  -8   -0.20    1.61   1
  -9   1  -7    3.69    1.80   1
  -9   1  -6    1.00    2.80   1
  -9   1  -5    9.80    2.88   1
  -9   1  -4    1.00    2.60   1
  -9   1  -3    8.12    2.28   1
  -9   1  -2    4.41    2.90   1
  -9   1  -1   -1.99    2.48   1
  -9   1   0  164.87    9.24   1
  -9   1   1    7.90    3.09   1
  -9   1   2   14.21    3.32   1
  -9   1   3   -0.50    2.31   1
  -9   1   4   25.30    3.82   1
  -9   1   5    2.10    2.61   1
  -9   1   6    3.61    2.39   1
  -9   1   7  116.64    9.07   1
  -9   1   8    5.29    2.39   1
  -9   1  15   70.73    4.20   1
  -9   1  16    4.80    1.62   1
  -9   1  17    6.92    2.10   1
  -9   1  18   93.70    6.58   1
  -9   1  19   51.84    5.62   1
  -9   1  20   15.52    2.52   1
  -9   1  21    4.20    2.01   1
  -9   1  23    1.90    2.10   1
  -9   1  24  102.82    6.69   1
  -9   1  25   13.62    3.10   1
  -9   1  26    7.18    2.89   1
  -9   1  27   63.52    6.38   1
  -9   1  28   32.95    5.51   1
  -9   1  30    6.81    3.08   1
  -9   1  31   97.22    6.90   1
  -9   1  32    8.18    3.32   1
  -9   1  33    6.92    3.21   1
  -9   1  34    0.40    3.59   1
  -9   1  35    1.30    2.51   1
  -9   1  36   41.22    6.55   1
  -9   1  37    2.50    3.79   1
  -9   1  38    5.02    4.61   1
  -9   1  39    7.18    5.41   1
  -9   2 -36  -17.14    6.71   1
  -9   2 -35   -6.50    4.18   1
  -9   2 -34   11.70    6.02   1
  -9   2 -33   39.94    6.70   1
  -9   2 -32   11.29    4.97   1
  -9   2 -31   -0.40    4.49   1
  -9   2 -30    8.58    5.68   1
  -9   2 -29    7.78    4.41   1
  -9   2 -28   -0.90    3.80   1
  -9   2 -27   47.61    5.93   1
  -9   2 -26   40.96    4.61   1
  -9   2 -25    0.71    3.41   1
  -9   2 -24   42.25    5.33   1
  -9   2 -22   30.58    3.98   1
  -9   2 -21   28.62    4.17   1
  -9   2 -20   36.48    4.47   1
  -9   2 -19    5.62    3.51   1
  -9   2 -18   -1.49    2.20   1
  -9   2 -17    3.61    2.89   1
  -9   2 -16   15.92    3.03   1
  -9   2 -15  175.56   11.13   1
  -9   2 -14   10.30    3.40   1
  -9   2 -13    1.90    2.70   1
  -9   2 -12   84.64    6.62   1
  -9   2 -11    0.10    2.63   1
  -9   2 -10    1.10    2.79   1
  -9   2  -9   48.16    4.44   1
  -9   2  -8   -1.10    2.71   1
  -9   2  -7    3.61    2.89   1
  -9   2  -6   63.20    4.93   1
  -9   2  -5    4.20    2.71   1
  -9   2  -4    8.70    3.42   1
  -9   2  -3   55.50    5.07   1
  -9   2  -2   13.10    3.48   1
  -9   2  -1    2.59    2.70   1
  -9   2   0   36.36    4.22   1
  -9   2   1   -1.90    2.51   1
  -9   2   2    2.19    2.49   1
  -9   2   3  109.41    9.00   1
  -9   2   4    1.49    2.68   1
  -9   2   5   12.39    3.38   1
  -9   2   6  126.11    7.64   1
  -9   2   7    5.81    2.60   1
  -9   2   8    9.42    3.01   1
  -9   2   9    2.79    2.71   1
  -9   2  10   11.49    3.59   1
  -9   3 -34   -3.69    5.88   1
  -9   3 -33    1.99    3.69   1
  -9   3 -32   -4.71    4.60   1
  -9   3 -31    0.20    5.03   1
  -9   3 -30   14.59    5.20   1
  -9   3 -29    1.10    4.51   1
  -9   3 -28    5.38    4.08   1
  -9   3 -26   -3.69    3.80   1
  -9   3 -25    3.69    3.88   1
  -9   3 -24   22.28    4.15   1
  -9   3 -23    4.08    3.88   1
  -9   3 -22    3.20    3.51   1
  -9   3 -21   -4.08    3.27   1
  -9   3 -20    1.00    2.40   1
  -9   3 -19   12.89    3.81   1
  -9   3 -18   56.70    5.27   1
  -9   3 -17    1.99    1.80   1
  -9   3 -16   -3.39    2.91   1
  -9   3 -15    1.69    2.78   1
  -9   3 -14    3.50    2.81   1
  -9   3 -13    3.10    1.90   1
  -9   3 -12    4.08    2.91   1
  -9   3 -11   16.08    3.61   1
  -9   3 -10   -0.10    3.03   1
  -9   3  -9   41.09    5.38   1
  -9   3  -8   20.43    3.62   1
  -9   3  -7    4.28    3.48   1
  -9   3  -6   44.49    4.94   1
  -9   3  -5    2.50    2.50   1
  -9   3  -4   10.89    3.37   1
  -9   3  -3  428.49   26.91   1
  -9   3  -2    9.30    3.11   1
  -9   3  -1   -0.40    2.49   1
  -9   3   0    0.71    1.71   1
  -9   3   1    4.80    2.58   1
  -9   3   2    8.12    2.79   1
  -9   3   3   50.27    4.68   1
  -9   3   4    3.39    1.58   1
  -9   3   5    3.80    3.00   1
  -9   3   6   48.86    4.75   1
  -9   3   7    2.99    2.80   1
  -9   3   8    5.11    2.71   1
  -9   3   9  197.12   10.39   1
  -9   3  11    2.19    2.90   1
  -9   4 -33   10.89    6.80   1
  -9   4 -32   -3.80    3.59   1
  -9   4 -31    0.00    1.00   1
  -9   4 -30    1.90    4.50   1
  -9   4 -29   -3.88    4.89   1
  -9   4 -28    7.67    4.71   1
  -9   4 -27   -4.58    4.58   1
  -9   4 -26    7.90    4.61   1
  -9   4 -25   -0.20    2.82   1
  -9   4 -24   -1.49    3.88   1
  -9   4 -23    2.10    3.51   1
  -9   4 -22    0.20    3.92   1
  -9   4 -21    1.69    2.60   1
  -9   4 -20   47.89    6.09   1
  -9   4 -19    1.10    3.80   1
  -9   4 -18    9.61    3.47   1
  -9   4 -17   10.30    2.50   1
  -9   4 -16    2.40    3.32   1
  -9   4 -15  130.42   10.05   1
  -9   4 -14   -3.31    3.02   1
  -9   4 -13    5.20    2.28   1
  -9   4 -12   26.94    4.05   1
  -9   4 -11    1.90    3.31   1
  -9   4 -10   -0.20    1.71   1
  -9   4  -9    5.71    1.91   1
  -9   4  -8   15.60    3.87   1
  -9   4  -7    9.18    3.27   1
  -9   4  -6   99.80    7.79   1
  -9   4  -5    0.40    1.69   1
  -9   4  -4   18.66    2.94   1
  -9   4  -3    8.70    2.60   1
  -9   4  -2   59.91    4.64   1
  -9   4  -1    1.90    2.01   1
  -9   4   0   -1.69    2.60   1
  -9   4   1   -1.10    2.71   1
  -9   4   2    9.67    2.80   1
  -9   4   3   43.16    4.73   1
  -9   4   4   14.21    3.09   1
  -9   4   5    6.10    2.91   1
  -9   4   6   97.42    6.91   1
  -9   4   7    5.29    2.99   1
  -9   4   8   14.29    3.48   1
  -9   4   9    2.99    2.60   1
  -9   4  10   49.14    4.63   1
  -9   4  11   27.98    3.28   1
  -9   4  12   14.21    3.32   1
  -9   5 -31  -12.67    5.77   1
  -9   5 -30    0.50    5.23   1
  -9   5 -29    7.18    4.61   1
  -9   5 -28    1.49    4.98   1
  -9   5 -27   -8.41    4.93   1
  -9   5 -26   -0.30    3.52   1
  -9   5 -25    1.59    4.08   1
  -9   5 -24    5.38    5.20   1
  -9   5 -23    2.19    4.00   1
  -9   5 -22    3.10    3.59   1
  -9   5 -21  116.64    9.50   1
  -9   5 -20    4.88    3.80   1
  -9   5 -19    7.29    3.19   1
  -9   5 -18   38.19    5.56   1
  -9   5 -17    4.58    3.81   1
  -9   5 -16    2.40    2.91   1
  -9   5 -15   16.48    3.98   1
  -9   5 -14    0.00    1.00   1
  -9   5 -13    4.20    3.61   1
  -9   5 -12   70.56    5.21   1
  -9   5 -11   -2.69    2.89   1
  -9   5 -10    1.10    3.11   1
  -9   5  -9   50.55    5.55   1
  -9   5  -8    5.81    2.51   1
  -9   5  -7   16.40    3.32   1
  -9   5  -6    1.00    2.30   1
  -9   5  -5    4.71    2.08   1
  -9   5  -4    6.71    3.00   1
  -9   5  -3    1.00    3.20   1
  -9   5  -2    6.40    2.78   1
  -9   5  -1    9.12    3.20   1
  -9   5   0   68.23    5.45   1
  -9   5   1   19.36    3.78   1
  -9   5   2    3.80    2.89   1
  -9   5   3   22.09    3.76   1
  -9   5   4    5.11    2.71   1
  -9   5   5   10.89    3.50   1
  -9   5   6    3.69    2.80   1
  -9   5   7    3.31    2.00   1
  -9   5   8    2.89    2.69   1
  -9   5   9   -0.50    2.41   1
  -9   5  10    7.29    2.59   1
  -9   5  11    3.10    2.18   1
  -9   5  12    2.59    3.09   1
  -9   5  13    2.50    3.10   1
  -9   6 -28   -5.11    2.89   1
  -9   6 -27   13.18    4.79   1
  -9   6 -26    1.39    4.79   1
  -9   6 -25    6.60    4.63   1
  -9   6 -24    6.50    3.62   1
  -9   6 -23   13.40    4.17   1
  -9   6 -22   24.11    3.63   1
  -9   6 -21    2.79    2.91   1
  -9   6 -20    5.62    2.70   1
  -9   6 -19   -1.90    3.89   1
  -9   6 -18   28.94    5.27   1
  -9   6 -17   18.84    4.34   1
  -9   6 -16    2.10    2.90   1
  -9   6 -15   27.56    5.14   1
  -9   6 -14   10.30    3.92   1
  -9   6 -13    1.30    3.49   1
  -9   6 -12   82.08    5.98   1
  -9   6 -11    6.60    3.70   1
  -9   6 -10   -3.31    3.09   1
  -9   6  -9    0.79    1.99   1
  -9   6  -8   22.47    4.74   1
  -9   6  -7   -2.50    2.81   1
  -9   6  -6   22.37    4.64   1
  -9   6  -5    1.59    3.48   1
  -9   6  -4   -2.19    2.90   1
  -9   6  -3   -0.30    1.80   1
  -9   6  -2    4.80    2.89   1
  -9   6  -1   19.27    3.78   1
  -9   6   0   63.68    6.54   1
  -9   6   1   -3.31    3.09   1
  -9   6   2    0.20    2.92   1
  -9   6   3   16.81    4.02   1
  -9   6   4   20.34    3.52   1
  -9   6   5   -2.40    2.91   1
  -9   6   6    2.99    2.80   1
  -9   6   7   16.40    3.40   1
  -9   6   8   -4.58    2.61   1
  -9   6  10   14.52    3.73   1
  -9   6  11    2.59    2.99   1
  -9   6  12  201.07   10.21   1
  -9   6  13   64.16    7.37   1
  -9   7 -27   -0.71   17.67   1
  -9   7 -24   18.40    4.72   1
  -9   7 -23   -6.40    4.91   1
  -9   7 -22    0.59    4.17   1
  -9   7 -21    8.53    4.79   1
  -9   7 -20    3.39    4.49   1
  -9   7 -19    3.69    2.61   1
  -9   7 -18  174.50   11.89   1
  -9   7 -17   -4.58    3.98   1
  -9   7 -16   -1.90    4.11   1
  -9   7 -15   18.66    3.72   1
  -9   7 -14   -1.99    3.58   1
  -9   7 -13    0.00    1.00   1
  -9   7 -11    0.10    2.53   1
  -9   7 -10   -3.10    3.41   1
  -9   7  -9   25.70    4.36   1
  -9   7  -8    4.00    3.08   1
  -9   7  -7   -0.71    2.91   1
  -9   7  -6   -0.79    2.08   1
  -9   7  -5    1.99    1.89   1
  -9   7  -4   10.18    3.57   1
  -9   7  -3   -0.30    3.31   1
  -9   7  -2    3.61    3.61   1
  -9   7  -1   -6.92    3.21   1
  -9   7   0   68.23    4.96   1
  -9   7   1    2.19    3.11   1
  -9   7   2   -0.59    2.79   1
  -9   7   3    7.90    3.60   1
  -9   7   4   -0.71    3.31   1
  -9   7   5    3.61    2.81   1
  -9   7   6   19.36    3.78   1
  -9   7   7    7.51    3.01   1
  -9   7   8   -6.71    2.90   1
  -9   7   9   -0.20    1.91   1
  -9   7  10   34.93    4.61   1
  -9   7  11    2.89    3.30   1
  -9   7  12   20.79    4.01   1
  -9   7  13   23.43    4.16   1
  -9   8 -24    5.20    7.39   1
  -9   8 -23   -3.50    3.52   1
  -9   8 -22    1.21    3.32   1
  -9   8 -21   65.45    7.44   1
  -9   8 -20   11.22    4.09   1
  -9   8 -19   -3.50    5.31   1
  -9   8 -18   42.38    6.38   1
  -9   8 -17    8.53    4.79   1
  -9   8 -16   18.23    4.44   1
  -9   8 -15  115.99   10.12   1
  -9   8 -14   -0.50    3.72   1
  -9   8 -13    0.20    2.92   1
  -9   8 -12   12.67    4.63   1
  -9   8 -11   19.54    4.33   1
  -9   8 -10    6.10    4.00   1
  -9   8  -9    3.31    3.71   1
  -9   8  -8    4.49    3.82   1
  -9   8  -7    5.90    2.62   1
  -9   8  -6   20.34    4.60   1
  -9   8  -5   -1.00    3.30   1
  -9   8  -4    2.50    3.29   1
  -9   8  -3    1.59    2.70   1
  -9   8  -2   16.48    3.90   1
  -9   8  -1   20.98    3.76   1
  -9   8   0    1.21    3.41   1
  -9   8   1    5.62    2.51   1
  -9   8   2   -1.59    3.48   1
  -9   8   3   16.81    4.26   1
  -9   8   4    5.11    3.71   1
  -9   8   5    2.89    3.40   1
  -9   8   6   22.94    4.12   1
  -9   8   7    8.01    3.28   1
  -9   8   8    2.59    3.61   1
  -9   8   9    8.01    3.40   1
  -9   8  10   -0.79    3.38   1
  -9   8  11   -2.10    3.10   1
  -9   8  12   12.32    3.93   1
  -9   8  13   30.58    4.65   1
  -9   8  14   -1.90    3.09   1
  -9   9 -21   57.15    8.16   1
  -9   9 -20   -1.59    5.19   1
  -9   9 -19    0.40    4.98   1
  -9   9 -18    9.80    5.07   1
  -9   9 -17   -1.80    4.80   1
  -9   9 -16    2.10    5.19   1
  -9   9 -15   43.30    7.24   1
  -9   9 -14   22.66    4.86   1
  -9   9 -13   -1.59    4.18   1
  -9   9 -12    1.59    3.38   1
  -9   9 -11    5.11    3.89   1
  -9   9 -10    1.49    4.49   1
  -9   9  -7    3.31    4.40   1
  -9   9  -6   33.76    6.04   1
  -9   9  -5    3.80    3.78   1
  -9   9  -4   18.66    4.58   1
  -9   9  -3   66.59    5.88   1
  -9   9  -2   23.72    4.29   1
  -9   9  -1    4.71    3.60   1
  -9   9   0   23.04    4.22   1
  -9   9   1   14.98    4.33   1
  -9   9   3   23.43    5.23   1
  -9   9   4   -0.30    3.52   1
  -9   9   5    6.71    3.52   1
  -9   9   6    1.10    3.61   1
  -9   9   7    3.80    3.00   1
  -9   9   8    9.30    3.60   1
  -9   9   9    6.40    4.00   1
  -9  10 -16    4.00    5.32   1
  -9  10 -15   35.40    7.14   1
  -9  10 -14    2.99    3.08   1
  -9  10 -13    4.49    4.79   1
  -9  10 -12   10.82    4.21   1
  -9  10 -11    7.08    4.47   1
  -9  10 -10    6.30    5.22   1
  -9  10  -9    5.62    4.69   1
  -9  10  -8   22.37    5.39   1
  -9  10  -7    1.49    4.68   1
  -9  10  -6    2.50    4.80   1
  -9  10  -5   -1.90    3.89   1
  -9  10  -4    1.21    4.42   1
  -9  10  -3    8.41    4.52   1
  -9  10  -2    8.88    4.89   1
  -9  10  -1    4.41    4.49   1
  -9  10   0   19.18    4.73   1
  -9  10   1    2.19    2.40   1
  -9  10   2    9.00    4.68   1
  -9  10   3   25.40    5.24   1
  -9  11 -10   11.09    5.73   1
  -9  11  -9    7.40    5.71   1
  -9  11  -8    7.67    5.26   1
  -9  11  -7    0.30    4.72   1
  -9  11  -6    9.18    4.79   1
  -9  11  -5    8.01    4.98   1
  -8 -12  -9   19.89    5.89   1
  -8 -12  -8    6.92    4.68   1
  -8 -12  -7    1.49    4.59   1
  -8 -12  -6   -7.29    4.37   1
  -8 -12  -4   13.91    4.18   1
  -8 -12  -3    6.60    4.78   1
  -8 -12  -2   -1.10    4.51   1
  -8 -12  -1   -3.61    4.41   1
  -8 -12   0   58.22    8.24   1
  -8 -12   1    3.80    4.60   1
  -8 -12   2   -1.90    4.31   1
  -8 -12   3    6.30    4.52   1
  -8 -12   4    4.58    5.01   1
  -8 -12   5    9.92    4.79   1
  -8 -12   6   22.94    5.65   1
  -8 -12   7   15.13    4.59   1
  -8 -12   8    0.00    1.00   1
  -8 -12   9    4.28    2.90   1
  -8 -12  10   -2.50    3.29   1
  -8 -12  11    3.50    4.71   1
  -8 -12  12    4.80    4.69   1
  -8 -11 -18    1.99    4.09   1
  -8 -11 -17   -1.00    4.20   1
  -8 -11 -16    4.88    4.38   1
  -8 -11 -15    2.99    4.08   1
  -8 -11 -14   17.72    4.97   1
  -8 -11 -13    4.58    3.60   1
  -8 -11 -12   17.72    4.72   1
  -8 -11 -11   11.29    4.37   1
  -8 -11 -10   -3.88    3.70   1
  -8 -11  -9   11.63    4.02   1
  -8 -11  -8   -0.20    3.92   1
  -8 -11  -7   -0.20    3.82   1
  -8 -11  -6   34.93    5.08   1
  -8 -11  -5    5.20    4.01   1
  -8 -11  -4    1.39    3.68   1
  -8 -11  -3    4.71    4.12   1
  -8 -11  -2    0.90    4.01   1
  -8 -11  -1    4.08    3.60   1
  -8 -11   0   37.95    6.16   1
  -8 -11   1   11.42    3.52   1
  -8 -11   2    6.20    3.98   1
  -8 -11   3   13.47    4.48   1
  -8 -11   4   -1.10    4.01   1
  -8 -11   5   -1.49    3.78   1
  -8 -11   6   -5.20    3.92   1
  -8 -11   7    2.99    3.60   1
  -8 -11   8   17.89    4.74   1
  -8 -11   9   15.92    3.99   1
  -8 -11  10   -0.50    4.02   1
  -8 -11  11    1.00    3.70   1
  -8 -11  12   38.19    5.69   1
  -8 -11  13   -1.80    3.59   1
  -8 -11  14    1.10    4.20   1
  -8 -11  15    7.62    4.69   1
  -8 -11  16    0.59    4.28   1
  -8 -11  17   19.18    5.08   1
  -8 -11  18   16.32    5.09   1
  -8 -11  19   -6.50    5.10   1
  -8 -11  20   10.82    5.72   1
  -8 -10 -23    8.29    4.38   1
  -8 -10 -22   13.47    4.48   1
  -8 -10 -21   83.54    8.04   1
  -8 -10 -20    2.69    4.89   1
  -8 -10 -19    1.21    4.11   1
  -8 -10 -18   39.44    4.90   1
  -8 -10 -17    7.67    4.99   1
  -8 -10 -16    7.51    3.78   1
  -8 -10 -15   61.94    6.93   1
  -8 -10 -14    6.60    4.01   1
  -8 -10 -13    1.69    3.30   1
  -8 -10 -12    1.49    3.29   1
  -8 -10 -11    4.28    3.60   1
  -8 -10 -10   16.32    3.72   1
  -8 -10  -9   39.82    4.29   1
  -8 -10  -8   14.82    3.77   1
  -8 -10  -7    3.80    3.39   1
  -8 -10  -6   23.81    3.81   1
  -8 -10  -5    5.52    3.20   1
  -8 -10  -4    2.89    3.09   1
  -8 -10  -3  215.80   12.34   1
  -8 -10  -2   -7.29    3.08   1
  -8 -10  -1    5.62    3.32   1
  -8 -10   0   -0.50    3.11   1
  -8 -10   1   -3.20    3.19   1
  -8 -10   2   -2.10    3.19   1
  -8 -10   3   39.56    5.16   1
  -8 -10   4   11.49    3.93   1
  -8 -10   5   -4.28    3.19   1
  -8 -10   6    9.99    3.60   1
  -8 -10   8    1.59    3.00   1
  -8 -10   9   49.28    5.90   1
  -8 -10  10    0.50    3.51   1
  -8 -10  11    4.00    3.52   1
  -8 -10  12    0.71    2.20   1
  -8 -10  13   -0.10    3.34   1
  -8 -10  14   18.23    4.53   1
  -8 -10  15   22.18    4.43   1
  -8 -10  16    5.11    4.38   1
  -8 -10  17   10.18    4.27   1
  -8 -10  18   19.36    4.49   1
  -8 -10  19    0.10    4.15   1
  -8 -10  20    3.88    4.10   1
  -8 -10  21    5.38    3.99   1
  -8 -10  22   12.32    4.70   1
  -8 -10  23   -0.90    4.81   1
  -8 -10  24    1.30    3.19   1
  -8 -10  25    7.78    5.47   1
  -8 -10  26    7.29    5.18   1
  -8  -9 -27    2.59    4.28   1
  -8  -9 -26   -1.39    4.58   1
  -8  -9 -25   -0.50    3.92   1
  -8  -9 -24   18.23    5.04   1
  -8  -9 -23    9.30    4.09   1
  -8  -9 -22    5.81    4.00   1
  -8  -9 -21   55.95    5.54   1
  -8  -9 -20   19.18    4.20   1
  -8  -9 -19    1.69    3.48   1
  -8  -9 -18    5.90    3.40   1
  -8  -9 -17   -4.58    3.08   1
  -8  -9 -16   13.99    4.41   1
  -8  -9 -15  110.88    8.85   1
  -8  -9 -14   10.63    3.78   1
  -8  -9 -13   -1.80    2.79   1
  -8  -9 -12    1.59    2.80   1
  -8  -9 -11    3.10    2.71   1
  -8  -9 -10   -3.10    2.99   1
  -8  -9  -9    1.21    3.52   1
  -8  -9  -8    2.69    2.79   1
  -8  -9  -7    4.41    3.02   1
  -8  -9  -6    5.38    3.11   1
  -8  -9  -5    2.40    2.70   1
  -8  -9  -4    4.28    2.98   1
  -8  -9  -3   20.07    4.39   1
  -8  -9  -2   -0.30    2.82   1
  -8  -9  -1    1.00    3.00   1
  -8  -9   0   17.98    3.56   1
  -8  -9   1    1.49    2.78   1
  -8  -9   2   10.63    3.33   1
  -8  -9   4    1.49    2.68   1
  -8  -9   5    2.19    3.29   1
  -8  -9   6   35.76    4.31   1
  -8  -9   7    6.60    2.88   1
  -8  -9   8   -0.79    2.69   1
  -8  -9   9    1.90    3.01   1
  -8  -9  10   64.16    5.77   1
  -8  -9  11    6.81    3.39   1
  -8  -9  12   17.98    3.73   1
  -8  -9  13    5.81    3.33   1
  -8  -9  14   -0.10    3.14   1
  -8  -9  15   31.02    4.57   1
  -8  -9  16    1.10    3.30   1
  -8  -9  17   17.64    4.54   1
  -8  -9  18    0.71    3.41   1
  -8  -9  19    5.02    3.00   1
  -8  -9  20    5.52    3.29   1
  -8  -9  21    2.69    3.08   1
  -8  -9  22   13.32    5.11   1
  -8  -9  23   -1.00    4.20   1
  -8  -9  24   32.95    6.20   1
  -8  -9  25    6.40    4.20   1
  -8  -9  26    3.61    4.41   1
  -8  -9  27   12.53    5.81   1
  -8  -9  28    6.00    5.29   1
  -8  -8 -30    4.20    3.89   1
  -8  -8 -29    1.00    3.80   1
  -8  -8 -28   -6.81    3.60   1
  -8  -8 -27   31.14    4.46   1
  -8  -8 -26   -0.20    3.42   1
  -8  -8 -25   -0.50    3.72   1
  -8  -8 -24    2.99    4.08   1
  -8  -8 -23   19.54    4.51   1
  -8  -8 -22    2.19    2.90   1
  -8  -8 -21   16.48    3.82   1
  -8  -8 -20    3.39    2.91   1
  -8  -8 -18   53.14    5.39   1
  -8  -8 -17   16.73    3.52   1
  -8  -8 -16   -0.20    2.52   1
  -8  -8 -15   46.24    4.62   1
  -8  -8 -14    1.39    3.00   1
  -8  -8 -13   -1.39    2.78   1
  -8  -8 -12    8.18    2.52   1
  -8  -8 -11   -0.50    3.11   1
  -8  -8 -10    5.02    2.69   1
  -8  -8  -9  148.35    9.74   1
  -8  -8  -8   16.08    3.21   1
  -8  -8  -7    8.29    2.71   1
  -8  -8  -6    1.59    2.39   1
  -8  -8  -5   -1.00    2.30   1
  -8  -8  -4    7.78    2.79   1
  -8  -8  -3    0.10    2.33   1
  -8  -8  -2    4.08    2.79   1
  -8  -8  -1    1.00    2.10   1
  -8  -8   0   50.27    3.97   1
  -8  -8   1   -0.20    2.21   1
  -8  -8   2    1.59    2.39   1
  -8  -8   3   -0.10    2.23   1
  -8  -8   4   14.36    2.80   1
  -8  -8   5    2.10    2.41   1
  -8  -8   6   18.92    3.13   1
  -8  -8   7    9.18    2.97   1
  -8  -8   8    5.81    3.42   1
  -8  -8   9   13.10    3.11   1
  -8  -8  10   47.61    4.42   1
  -8  -8  11   26.83    3.32   1
  -8  -8  12   16.08    3.21   1
  -8  -8  13   78.68    6.03   1
  -8  -8  14   -0.20    2.72   1
  -8  -8  15   42.64    5.22   1
  -8  -8  16   12.18    3.21   1
  -8  -8  17   20.70    4.00   1
  -8  -8  18   38.94    4.99   1
  -8  -8  19    2.19    3.29   1
  -8  -8  20    1.69    3.30   1
  -8  -8  21    2.19    3.29   1
  -8  -8  22   13.69    3.70   1
  -8  -8  23    5.29    3.50   1
  -8  -8  24    2.31    3.92   1
  -8  -8  25   -1.10    3.61   1
  -8  -8  26    1.39    3.59   1
  -8  -8  27    5.29    3.31   1
  -8  -8  28   11.90    4.28   1
  -8  -8  29    2.89    3.98   1
  -8  -8  30   -2.40    4.59   1
  -8  -8  33    5.81    5.30   1
  -8  -7 -31    0.30    3.41   1
  -8  -7 -30   19.01    3.84   1
  -8  -7 -29   14.36    4.40   1
  -8  -7 -28    3.61    3.12   1
  -8  -7 -27    0.10    3.14   1
  -8  -7 -26    7.18    3.11   1
  -8  -7 -25   -2.99    3.49   1
  -8  -7 -24   76.04    6.63   1
  -8  -7 -23    2.10    2.61   1
  -8  -7 -22   -3.10    2.99   1
  -8  -7 -21   34.46    3.87   1
  -8  -7 -20    0.20    3.12   1
  -8  -7 -19    5.90    4.08   1
  -8  -7 -18    1.69    2.99   1
  -8  -7 -17    1.99    2.48   1
  -8  -7 -16    0.30    2.61   1
  -8  -7 -15   43.56    4.75   1
  -8  -7 -14   -1.59    2.90   1
  -8  -7 -13    1.80    2.49   1
  -8  -7 -12   35.16    4.03   1
  -8  -7 -11   13.40    3.59   1
  -8  -7 -10    0.10    2.23   1
  -8  -7  -9    0.00    1.00   1
  -8  -7  -8    2.89    2.31   1
  -8  -7  -7    1.49    2.29   1
  -8  -7  -6    1.21    2.00   1
  -8  -7  -5    3.61    2.62   1
  -8  -7  -4    1.39    2.60   1
  -8  -7  -3   15.37    2.51   1
  -8  -7  -2    3.69    2.11   1
  -8  -7  -1    5.38    2.09   1
  -8  -7   0  132.71    8.06   1
  -8  -7   1   16.73    2.62   1
  -8  -7   2    6.60    2.00   1
  -8  -7   3   12.89    2.73   1
  -8  -7   4    1.49    2.20   1
  -8  -7   5    2.99    2.21   1
  -8  -7   6    3.61    2.32   1
  -8  -7   7    1.69    2.11   1
  -8  -7   8   13.91    2.69   1
  -8  -7   9    9.18    2.48   1
  -8  -7  10    1.39    2.50   1
  -8  -7  11   10.63    2.61   1
  -8  -7  12  193.77   11.14   1
  -8  -7  13   -1.30    2.30   1
  -8  -7  14   -0.71    2.60   1
  -8  -7  15    2.50    3.19   1
  -8  -7  16   51.98    5.05   1
  -8  -7  17   24.50    3.86   1
  -8  -7  18    5.90    2.92   1
  -8  -7  19   17.98    3.82   1
  -8  -7  20   10.11    4.01   1
  -8  -7  21   29.05    4.96   1
  -8  -7  22    1.21    3.21   1
  -8  -7  23    1.39    3.00   1
  -8  -7  24    0.50    3.31   1
  -8  -7  25    7.18    3.91   1
  -8  -7  26   -0.30    3.21   1
  -8  -7  27   47.06    5.49   1
  -8  -7  29    1.30    3.81   1
  -8  -7  30   35.28    5.94   1
  -8  -7  31    0.71    3.81   1
  -8  -7  32    5.11    3.30   1
  -8  -7  33    8.12    5.19   1
  -8  -7  34   -3.61    5.09   1
  -8  -7  35    2.40    3.91   1
  -8  -6 -34   -0.30    3.31   1
  -8  -6 -33   14.98    3.41   1
  -8  -6 -32   -2.40    3.69   1
  -8  -6 -31   -0.50    4.12   1
  -8  -6 -30    3.61    2.89   1
  -8  -6 -29    2.10    2.61   1
  -8  -6 -28    0.10    2.63   1
  -8  -6 -27    1.80    2.71   1
  -8  -6 -26   -3.10    2.50   1
  -8  -6 -25   -1.30    2.30   1
  -8  -6 -24   -0.20    2.72   1
  -8  -6 -23   -1.99    2.59   1
  -8  -6 -22   -1.00    2.40   1
  -8  -6 -21    1.80    2.60   1
  -8  -6 -20    2.50    2.69   1
  -8  -6 -19   -0.71    2.10   1
  -8  -6 -18  162.05    8.40   1
  -8  -6 -17    2.79    2.00   1
  -8  -6 -16    2.31    1.61   1
  -8  -6 -15    0.10    2.02   1
  -8  -6 -14    1.80    1.90   1
  -8  -6 -13    1.99    1.80   1
  -8  -6 -12   54.46    4.43   1
  -8  -6 -11    2.10    1.80   1
  -8  -6 -10    0.10    1.72   1
  -8  -6  -9    0.00    1.00   1
  -8  -6  -8    7.40    2.18   1
  -8  -6  -7    4.88    1.99   1
  -8  -6  -6   16.89    2.47   1
  -8  -6  -5   25.00    3.20   1
  -8  -6  -4    6.40    1.92   1
  -8  -6  -3    1.80    1.69   1
  -8  -6  -2    0.20    1.61   1
  -8  -6  -1   18.92    2.70   1
  -8  -6   0   38.32    3.22   1
  -8  -6   1   12.11    2.58   1
  -8  -6   2   -1.59    1.59   1
  -8  -6   3   49.14    3.65   1
  -8  -6   4    5.52    2.21   1
  -8  -6   5    1.00    1.80   1
  -8  -6   6   -0.20    2.31   1
  -8  -6   7   18.84    2.86   1
  -8  -6   8    5.29    2.48   1
  -8  -6   9    2.50    1.90   1
  -8  -6  10    2.99    1.90   1
  -8  -6  11   13.62    2.73   1
  -8  -6  12    5.90    2.48   1
  -8  -6  13   26.01    3.57   1
  -8  -6  14    8.12    3.93   1
  -8  -6  15   62.73    5.39   1
  -8  -6  16   -0.40    2.60   1
  -8  -6  17    3.69    2.69   1
  -8  -6  18  117.51    7.80   1
  -8  -6  19   13.99    3.22   1
  -8  -6  20    3.10    2.60   1
  -8  -6  21   44.22    4.79   1
  -8  -6  22   -0.50    2.81   1
  -8  -6  23    1.59    2.90   1
  -8  -6  24   85.75    8.33   1
  -8  -6  25   29.59    5.00   1
  -8  -6  26    1.69    2.89   1
  -8  -6  27    4.58    3.51   1
  -8  -6  30   -1.99    3.50   1
  -8  -6  33   -3.10    4.08   1
  -8  -6  34    1.10    2.79   1
  -8  -6  35    0.10    4.76   1
  -8  -5 -36    5.90    3.79   1
  -8  -5 -35    1.59    3.00   1
  -8  -5 -34    0.30    2.92   1
  -8  -5 -33   24.21    4.13   1
  -8  -5 -32   -0.50    3.51   1
  -8  -5 -31   -0.30    2.92   1
  -8  -5 -30   17.39    3.34   1
  -8  -5 -29    3.31    2.51   1
  -8  -5 -28    0.20    2.92   1
  -8  -5 -27   15.76    3.10   1
  -8  -5 -26   -1.39    2.10   1
  -8  -5 -25    5.71    2.39   1
  -8  -5 -24   10.50    2.79   1
  -8  -5 -23    2.59    2.61   1
  -8  -5 -22   24.21    3.25   1
  -8  -5 -21   85.01    5.90   1
  -8  -5 -20   11.49    2.37   1
  -8  -5 -19    0.00    1.00   1
  -8  -5 -18   34.69    3.53   1
  -8  -5 -17    4.00    2.08   1
  -8  -5 -16    7.18    1.98   1
  -8  -5 -16    6.50    3.01   1
  -8  -5 -15    1.59    2.29   1
  -8  -5 -15    2.10    1.91   1
  -8  -5 -14   29.27    3.25   1
  -8  -5 -14   17.81    2.62   1
  -8  -5 -13    9.80    3.13   1
  -8  -5 -13    1.99    1.69   1
  -8  -5 -12   64.96    5.16   1
  -8  -5 -11    1.30    2.19   1
  -8  -5 -11    0.30    1.71   1
  -8  -5 -10    1.30    1.39   1
  -8  -5 -10    1.69    2.29   1
  -8  -5  -9   20.34    2.35   1
  -8  -5  -9   24.11    3.24   1
  -8  -5  -8   47.47    4.82   1
  -8  -5  -7    2.10    1.51   1
  -8  -5  -7    1.69    2.18   1
  -8  -5  -6  356.83   23.80   1
  -8  -5  -5    3.61    1.41   1
  -8  -5  -4    2.79    1.40   1
  -8  -5  -3  116.42    7.55   1
  -8  -5  -2    3.39    1.51   1
  -8  -5  -1    1.30    1.39   1
  -8  -5   0    2.69    1.80   1
  -8  -5   1    1.69    1.40   1
  -8  -5   2    1.59    1.59   1
  -8  -5   3   30.80    2.78   1
  -8  -5   4    0.00    1.00   1
  -8  -5   5   -0.40    1.50   1
  -8  -5   6   45.02    3.76   1
  -8  -5   7    1.69    1.69   1
  -8  -5   8    1.90    1.90   1
  -8  -5   9    9.30    2.38   1
  -8  -5  10    2.19    1.98   1
  -8  -5  11    4.20    1.68   1
  -8  -5  12   33.99    3.38   1
  -8  -5  13   -1.10    1.81   1
  -8  -5  14    5.20    2.28   1
  -8  -5  15    9.49    2.53   1
  -8  -5  16    6.30    2.11   1
  -8  -5  17    2.10    2.29   1
  -8  -5  18   91.20    7.83   1
  -8  -5  19    1.21    2.51   1
  -8  -5  20    0.79    2.30   1
  -8  -5  21   55.20    5.05   1
  -8  -5  22    2.10    2.90   1
  -8  -5  23    0.30    2.51   1
  -8  -5  26   -2.79    2.91   1
  -8  -5  27   -4.28    2.82   1
  -8  -5  28    7.51    2.90   1
  -8  -5  29    3.20    3.69   1
  -8  -4 -35    1.80    3.11   1
  -8  -4 -34    2.69    2.79   1
  -8  -4 -33    0.20    2.72   1
  -8  -4 -32    2.69    2.98   1
  -8  -4 -31    3.50    2.92   1
  -8  -4 -30    1.49    2.29   1
  -8  -4 -29   -1.21    2.20   1
  -8  -4 -28   -1.00    2.50   1
  -8  -4 -27    3.20    2.61   1
  -8  -4 -26    3.20    2.11   1
  -8  -4 -25   -0.71    2.50   1
  -8  -4 -24   50.27    4.40   1
  -8  -4 -23   22.37    3.31   1
  -8  -4 -22    3.69    3.61   1
  -8  -4 -22   -0.59    2.09   1
  -8  -4 -21  111.51    7.39   1
  -8  -4 -21   98.41    6.75   1
  -8  -4 -20    1.30    1.89   1
  -8  -4 -20    0.40    2.78   1
  -8  -4 -19    0.00    1.00   1
  -8  -4 -19   -1.21    2.20   1
  -8  -4 -18   -0.10    1.41   1
  -8  -4 -18    0.20    2.31   1
  -8  -4 -17    1.80    1.69   1
  -8  -4 -17   -0.20    2.31   1
  -8  -4 -16   14.52    2.51   1
  -8  -4 -16   24.80    3.49   1
  -8  -4 -15   35.16    3.80   1
  -8  -4 -15   31.47    2.92   1
  -8  -4 -14    2.19    1.51   1
  -8  -4 -14    1.59    2.19   1
  -8  -4 -13    8.41    1.80   1
  -8  -4 -13   14.21    2.87   1
  -8  -4 -12   65.45    4.53   1
  -8  -4 -12   90.82    7.81   1
  -8  -4 -11   -1.21    2.00   1
  -8  -4 -11   -0.59    1.29   1
  -8  -4 -10   26.63    3.20   1
  -8  -4  -9   22.75    2.29   1
  -8  -4  -9   34.46    3.87   1
  -8  -4  -8   22.18    3.01   1
  -8  -4  -8   12.39    1.69   1
  -8  -4  -7    3.61    1.41   1
  -8  -4  -7    2.50    2.21   1
  -8  -4  -6   40.45    3.31   1
  -8  -4  -6   62.88    5.08   1
  -8  -4  -5    1.99    1.49   1
  -8  -4  -5    3.80    2.42   1
  -8  -4  -4   43.96    3.05   1
  -8  -4  -3  227.41   12.97   1
  -8  -4  -3  319.34   17.87   1
  -8  -4  -2   47.06    3.16   1
  -8  -4  -1    0.79    1.39   1
  -8  -4   0   21.44    2.22   1
  -8  -4   1    6.50    1.89   1
  -8  -4   2    1.69    1.30   1
  -8  -4   3   -2.99    1.49   1
  -8  -4   4    8.41    1.68   1
  -8  -4   5    2.69    1.41   1
  -8  -4   6   94.48    5.25   1
  -8  -4   7   41.22    3.34   1
  -8  -4   8    2.31    1.79   1
  -8  -4   9  154.01    7.45   1
  -8  -4  10   62.73    4.75   1
  -8  -4  11   22.47    2.56   1
  -8  -4  12   39.44    3.52   1
  -8  -4  13   11.42    2.50   1
  -8  -4  14   14.06    2.33   1
  -8  -4  15   10.37    2.00   1
  -8  -4  16   20.79    2.37   1
  -8  -4  19   19.01    2.96   1
  -8  -4  20   10.69    2.81   1
  -8  -4  21    2.79    2.40   1
  -8  -4  24   73.10    5.99   1
  -8  -4  25    2.40    2.20   1
  -8  -4  26    9.67    2.99   1
  -8  -4  33   34.46    5.05   1
  -8  -3 -31   -1.99    2.00   1
  -8  -3 -30    1.10    2.50   1
  -8  -3 -29    9.18    2.79   1
  -8  -3 -28    7.02    2.49   1
  -8  -3 -28   11.83    3.92   1
  -8  -3 -27   33.18    5.64   1
  -8  -3 -27   33.76    3.49   1
  -8  -3 -26   19.98    4.11   1
  -8  -3 -26   13.10    2.68   1
  -8  -3 -25    0.79    3.08   1
  -8  -3 -25   -0.40    2.09   1
  -8  -3 -24    6.50    2.19   1
  -8  -3 -24    0.71    2.91   1
  -8  -3 -23    6.92    2.68   1
  -8  -3 -23    4.80    2.28   1
  -8  -3 -22    7.67    2.11   1
  -8  -3 -22    5.38    2.69   1
  -8  -3 -21   22.37    2.93   1
  -8  -3 -21   11.49    2.31   1
  -8  -3 -20    1.21    1.61   1
  -8  -3 -20    3.50    2.39   1
  -8  -3 -19    0.40    1.30   1
  -8  -3 -19   -1.10    3.11   1
  -8  -3 -18    4.00    2.48   1
  -8  -3 -18    4.28    1.49   1
  -8  -3 -17   62.09    6.15   1
  -8  -3 -17   44.36    3.46   1
  -8  -3 -16   -1.21    2.11   1
  -8  -3 -15  395.21   26.24   1
  -8  -3 -15  326.16   20.95   1
  -8  -3 -14    8.12    1.48   1
  -8  -3 -14   15.21    2.89   1
  -8  -3 -13    8.53    2.63   1
  -8  -3 -13    0.59    1.19   1
  -8  -3 -12    6.81    1.30   1
  -8  -3 -12    9.42    2.58   1
  -8  -3 -11   69.72    5.68   1
  -8  -3 -10    2.99    2.21   1
  -8  -3 -10    6.10    1.28   1
  -8  -3  -9  456.25   17.52   1
  -8  -3  -9  330.15   15.26   1
  -8  -3  -8    2.69    1.08   1
  -8  -3  -8    0.71    2.20   1
  -8  -3  -7    0.30    0.90   1
  -8  -3  -7    1.69    2.18   1
  -8  -3  -6   38.94    2.50   1
  -8  -3  -6   40.96    4.22   1
  -8  -3  -5    1.00    1.10   1
  -8  -3  -5    0.71    2.10   1
  -8  -3  -4    6.60    2.52   1
  -8  -3  -4    7.08    1.22   1
  -8  -3  -3  204.20   11.72   1
  -8  -3  -3  186.87    8.20   1
  -8  -3  -2   39.69    3.53   1
  -8  -3  -2   34.34    2.58   1
  -8  -3  -1    4.08    2.10   1
  -8  -3  -1    3.69    1.31   1
  -8  -3   0   11.49    1.70   1
  -8  -3   0   22.09    3.01   1
  -8  -3   1   42.77    2.75   1
  -8  -3   2    2.69    1.08   1
  -8  -3   3   50.98    3.28   1
  -8  -3   4   -0.30    1.31   1
  -8  -3   5    0.00    1.00   1
  -8  -3   6    8.88    1.49   1
  -8  -3   7    1.10    1.60   1
  -8  -3   8    1.21    1.41   1
  -8  -3   9   29.59    2.50   1
  -8  -3  14    5.11    1.90   1
  -8  -3  15  296.87   14.13   1
  -8  -2 -32   -4.28    3.31   1
  -8  -2 -31    1.80    3.19   1
  -8  -2 -30    9.67    3.42   1
  -8  -2 -29    7.62    3.31   1
  -8  -2 -28    2.10    3.39   1
  -8  -2 -26   46.65    6.56   1
  -8  -2 -25   -1.00    2.90   1
  -8  -2 -24   16.48    3.09   1
  -8  -2 -23   -1.90    2.70   1
  -8  -2 -22   11.22    3.48   1
  -8  -2 -21    2.31    2.61   1
  -8  -2 -20   68.23    5.29   1
  -8  -2 -20   50.27    3.55   1
  -8  -2 -19    4.49    1.40   1
  -8  -2 -19    3.39    2.80   1
  -8  -2 -18   30.58    2.21   1
  -8  -2 -18   50.69    4.13   1
  -8  -2 -17   29.70    3.71   1
  -8  -2 -17   19.01    1.83   1
  -8  -2 -16   -0.50    0.91   1
  -8  -2 -16    1.69    2.39   1
  -8  -2 -15   31.14    2.01   1
  -8  -2 -15   36.97    3.53   1
  -8  -2 -14    2.19    2.40   1
  -8  -2 -13   -1.39    0.99   1
  -8  -2 -13   -0.10    2.23   1
  -8  -2 -12   24.90    3.59   1
  -8  -2 -12   20.07    1.61   1
  -8  -2 -11    8.01    1.70   1
  -8  -2 -10   54.91    4.89   1
  -8  -2 -10   46.92    2.60   1
  -8  -2  -9  152.03    6.16   1
  -8  -2  -9  204.49   10.87   1
  -8  -2  -8   74.13    3.27   1
  -8  -2  -8   89.30    5.10   1
  -8  -2  -7    9.92    2.39   1
  -8  -2  -7    6.10    0.99   1
  -8  -2  -6   11.02    2.52   1
  -8  -2  -6    9.80    1.13   1
  -8  -2  -5   71.23    3.54   1
  -8  -2  -5   97.02    7.29   1
  -8  -2  -4   12.53    2.48   1
  -8  -2  -4    6.60    0.93   1
  -8  -2  -3  130.19    5.93   1
  -8  -2  -2   34.57    3.53   1
  -8  -2  -2   30.14    1.87   1
  -8  -2  -1   20.34    1.53   1
  -8  -2  -1   16.81    3.03   1
  -8  -2   0   43.56    3.56   1
  -8  -2   0   37.33    2.44   1
  -8  -2   1   14.52    2.97   1
  -8  -2   1   12.18    1.40   1
  -8  -2   2    7.78    1.17   1
  -8  -2   2    8.82    2.73   1
  -8  -2   3    5.71    1.20   1
  -8  -2   3    7.51    2.52   1
  -8  -2   4   18.32    1.80   1
  -8  -2   5   -2.40    1.12   1
  -8  -2   6    8.18    1.49   1
  -8  -2   7   20.70    2.18   1
  -8  -2   8   10.37    1.61   1
  -8  -2   9  126.79    6.31   1
  -8  -2  33    4.41    2.60   1
  -8  -1 -37    4.28    4.18   1
  -8  -1 -36    1.90    4.61   1
  -8  -1 -35    0.79    4.38   1
  -8  -1 -34   -0.79    3.58   1
  -8  -1 -33   51.84    6.34   1
  -8  -1 -32   -0.10    3.44   1
  -8  -1 -31    0.79    3.49   1
  -8  -1 -30  118.59    9.15   1
  -8  -1 -29    7.51    3.78   1
  -8  -1 -28    4.41    3.49   1
  -8  -1 -27    2.59    3.09   1
  -8  -1 -26    3.10    2.89   1
  -8  -1 -25    4.58    3.21   1
  -8  -1 -24   82.45    6.72   1
  -8  -1 -23    9.18    3.39   1
  -8  -1 -22    2.31    3.01   1
  -8  -1 -21  297.22   22.41   1
  -8  -1 -20   32.72    4.00   1
  -8  -1 -19    2.50    1.90   1
  -8  -1 -18    6.20    2.89   1
  -8  -1 -17   -1.59    2.39   1
  -8  -1 -16    0.10    2.43   1
  -8  -1 -15   40.20    4.31   1
  -8  -1 -14    2.19    2.49   1
  -8  -1 -13    1.39    2.38   1
  -8  -1 -12  285.61   12.51   1
  -8  -1 -11    0.40    2.09   1
  -8  -1 -10    1.59    2.09   1
  -8  -1  -9   10.11    2.48   1
  -8  -1  -8    4.20    2.09   1
  -8  -1  -7    5.29    2.58   1
  -8  -1  -6  482.24   21.52   1
  -8  -1  -5   86.30    5.95   1
  -8  -1  -4   15.29    2.42   1
  -8  -1  -3    1.90    2.10   1
  -8  -1  -2   -2.50    1.90   1
  -8  -1  -2   -0.50    0.50   1
  -8  -1  -1    0.71    2.10   1
  -8  -1   0    3.10    2.11   1
  -8  -1   0    0.79    0.61   1
  -8  -1   1   22.75    1.43   1
  -8  -1   1   24.70    2.78   1
  -8  -1   2    0.90    0.80   1
  -8  -1   2    2.69    2.00   1
  -8  -1   3   17.22    2.90   1
  -8  -1   4    3.69    0.88   1
  -8  -1   4    3.20    2.00   1
  -8  -1   5    1.80    2.39   1
  -8  -1   5    3.50    1.01   1
  -8  -1   6    8.12    1.31   1
  -8  -1   7    3.50    1.08   1
  -8  -1   8   24.70    1.99   1
  -8  -1   9   10.69    1.57   1
  -8  -1  10   54.17    4.42   1
  -8  -1  11    7.40    1.58   1
  -8  -1  12  209.09    9.83   1
  -8  -1  13   44.76    3.35   1
  -8  -1  14    9.30    1.71   1
  -8  -1  15   47.06    3.84   1
  -8  -1  22    3.80    2.11   1
  -8  -1  37    9.61    3.72   1
  -8  -1  38    0.40    3.98   1
  -8  -1  39   -0.90    4.20   1
  -8  -1  40   -0.71    4.62   1
  -8   0 -38    2.19    4.80   1
  -8   0 -36  190.72   17.12   1
  -8   0 -34   -0.59    3.77   1
  -8   0 -32    4.71    3.08   1
  -8   0 -30  113.00    9.35   1
  -8   0 -28    0.71    3.21   1
  -8   0 -26   62.41    6.79   1
  -8   0 -24   74.48    6.39   1
  -8   0 -22    4.41    2.81   1
  -8   0 -20  179.02    9.37   1
  -8   0 -18  700.13   31.22   1
  -8   0 -16    1.99    2.09   1
  -8   0 -14    1.80    2.30   1
  -8   0 -12   86.86    6.34   1
  -8   0 -10    4.28    1.78   1
  -8   0  -8   24.21    3.25   1
  -8   0  -6    7.02    2.70   1
  -8   0  -4    2.50    2.21   1
  -8   0  -2   46.51    3.55   1
  -8   0   0  164.61    8.98   1
  -8   0   2   20.07    2.60   1
  -8   0   4   -0.59    2.09   1
  -8   0   4   -0.20    0.70   1
  -8   0   6   10.30    1.22   1
  -8   0   6   13.40    2.93   1
  -8   0   8    5.38    1.11   1
  -8   0  10   50.98    3.14   1
  -8   0  12   42.64    2.87   1
  -8   0  14   12.89    2.01   1
  -8   0  16   -0.10    1.32   1
  -8   0  18  185.50   10.62   1
  -8   0  22    0.40    1.69   1
  -8   0  32    9.49    3.20   1
  -8   0  36   -1.69    3.30   1
  -8   0  40   11.83    4.40   1
  -8   1 -39   14.82    4.00   1
  -8   1 -38    5.71    5.21   1
  -8   1 -37   -0.79    4.98   1
  -8   1 -36    5.71    5.50   1
  -8   1 -35    0.50    4.12   1
  -8   1 -34   11.70    4.92   1
  -8   1 -33   50.69    6.12   1
  -8   1 -32   -1.21    3.81   1
  -8   1 -31    2.10    3.71   1
  -8   1 -30  109.20   11.08   1
  -8   1 -29   18.92    4.78   1
  -8   1 -28    2.69    3.18   1
  -8   1 -27    1.39    3.19   1
  -8   1 -26    0.71    3.11   1
  -8   1 -25    5.52    3.62   1
  -8   1 -24   80.82    7.01   1
  -8   1 -23    4.08    3.11   1
  -8   1 -22    0.20    2.82   1
  -8   1 -21  304.50   18.15   1
  -8   1 -20   22.56    4.18   1
  -8   1 -19    3.31    2.29   1
  -8   1 -18   11.02    2.92   1
  -8   1 -17    2.50    1.90   1
  -8   1 -16    3.20    2.29   1
  -8   1 -15   53.44    4.39   1
  -8   1 -14   -0.59    2.28   1
  -8   1 -13   -0.59    2.28   1
  -8   1 -12  267.32   16.68   1
  -8   1 -11    0.50    2.00   1
  -8   1 -10    0.20    2.31   1
  -8   1  -9    7.78    2.40   1
  -8   1  -8   -0.71    2.10   1
  -8   1  -7    7.02    2.60   1
  -8   1  -6  490.62   19.05   1
  -8   1  -5   65.77    5.68   1
  -8   1  -4   13.91    2.31   1
  -8   1  -3    1.49    2.00   1
  -8   1  -2    1.69    2.00   1
  -8   1  -1    0.90    1.99   1
  -8   1   0    0.40    1.99   1
  -8   1   1   19.01    2.62   1
  -8   1   2    0.71    2.02   1
  -8   1   3   17.22    2.99   1
  -8   1   4    1.59    1.99   1
  -8   1   5    6.60    2.11   1
  -8   1   6   15.76    2.70   1
  -8   1   7    6.50    2.19   1
  -8   1   8   34.11    3.85   1
  -8   1   9   17.72    3.20   1
  -8   1  11    5.71    1.48   1
  -8   1  12  214.92   11.14   1
  -8   1  13   37.21    3.29   1
  -8   1  16   17.64    2.69   1
  -8   1  17   16.48    2.03   1
  -8   1  18    4.41    2.18   1
  -8   1  19   23.04    2.50   1
  -8   1  20    0.20    1.91   1
  -8   1  21  148.60    7.07   1
  -8   1  22    3.50    2.58   1
  -8   1  23   23.04    3.26   1
  -8   1  24   -0.79    2.30   1
  -8   1  25   72.76    5.12   1
  -8   1  26    2.10    2.49   1
  -8   1  27   82.08    5.62   1
  -8   1  28    5.81    2.99   1
  -8   1  31   35.28    3.92   1
  -8   1  34    1.21    3.92   1
  -8   1  35   -1.39    3.28   1
  -8   1  38   -2.40    4.09   1
  -8   1  39    4.71    3.30   1
  -8   1  40    4.88    4.20   1
  -8   2 -39   14.36    6.59   1
  -8   2 -37   -3.39    5.08   1
  -8   2 -36   19.27    5.18   1
  -8   2 -35    3.88    5.67   1
  -8   2 -34    6.40    4.10   1
  -8   2 -33    7.08    4.79   1
  -8   2 -32   -4.49    4.20   1
  -8   2 -31    2.50    3.98   1
  -8   2 -30    9.12    3.93   1
  -8   2 -29    6.81    3.50   1
  -8   2 -28    1.00    2.90   1
  -8   2 -27  174.24   14.52   1
  -8   2 -26   45.16    5.11   1
  -8   2 -25    5.11    3.21   1
  -8   2 -24   18.66    3.89   1
  -8   2 -23    4.08    3.19   1
  -8   2 -22   17.31    3.33   1
  -8   2 -21    0.71    2.10   1
  -8   2 -20   58.37    5.20   1
  -8   2 -19    5.38    3.20   1
  -8   2 -18   35.64    4.06   1
  -8   2 -17   26.21    3.69   1
  -8   2 -16    2.31    2.40   1
  -8   2 -15   40.45    3.69   1
  -8   2 -14   -1.90    2.51   1
  -8   2 -13    0.71    2.20   1
  -8   2 -12   28.20    3.72   1
  -8   2 -11    5.90    2.62   1
  -8   2 -10   52.56    4.06   1
  -8   2  -9  170.04    8.87   1
  -8   2  -8   85.38    5.17   1
  -8   2  -7    4.80    2.19   1
  -8   2  -6    9.30    3.17   1
  -8   2  -5   71.23    5.23   1
  -8   2  -4    6.71    2.49   1
  -8   2  -3  131.79    8.95   1
  -8   2  -2   38.07    3.83   1
  -8   2  -1   14.90    2.93   1
  -8   2   0   43.56    3.56   1
  -8   2   1   21.90    3.18   1
  -8   2   2    8.58    2.40   1
  -8   2   3    5.71    2.39   1
  -8   2   4   15.60    2.77   1
  -8   2   5    0.10    1.82   1
  -8   2   6   12.18    2.51   1
  -8   2   7   26.94    3.22   1
  -8   2   8   16.97    2.39   1
  -8   2   9  136.89    8.42   1
  -8   2  10   33.18    3.23   1
  -8   3 -37    9.00    5.52   1
  -8   3 -36   -3.10    5.49   1
  -8   3 -35   -3.50    4.79   1
  -8   3 -34   -1.80    4.40   1
  -8   3 -32    4.41    4.20   1
  -8   3 -31    3.31    2.80   1
  -8   3 -30    1.00    4.20   1
  -8   3 -29    4.58    3.81   1
  -8   3 -28    9.67    3.48   1
  -8   3 -27   34.57    5.41   1
  -8   3 -26   20.61    4.36   1
  -8   3 -25   -5.20    3.01   1
  -8   3 -24    2.69    3.18   1
  -8   3 -23    9.92    3.40   1
  -8   3 -22    8.18    3.37   1
  -8   3 -21   13.69    3.33   1
  -8   3 -20   -1.10    2.20   1
  -8   3 -19    0.20    2.82   1
  -8   3 -18   10.82    3.09   1
  -8   3 -17   50.27    5.53   1
  -8   3 -16    0.20    2.72   1
  -8   3 -15  379.47   23.77   1
  -8   3 -14   10.82    2.83   1
  -8   3 -13   -0.30    2.21   1
  -8   3 -12    9.18    2.79   1
  -8   3 -11   68.72    5.31   1
  -8   3 -10   11.09    2.80   1
  -8   3  -9  389.67   16.58   1
  -8   3  -8    1.49    2.10   1
  -8   3  -7   -0.50    2.22   1
  -8   3  -6   45.83    4.06   1
  -8   3  -5   -0.90    2.11   1
  -8   3  -4    8.01    2.38   1
  -8   3  -3  204.78   10.59   1
  -8   3  -2   28.41    4.05   1
  -8   3  -1    3.31    2.51   1
  -8   3   1   38.69    3.86   1
  -8   3   2    1.21    2.20   1
  -8   3   3   76.91    5.44   1
  -8   3   4   -0.10    2.33   1
  -8   3   5    1.90    2.29   1
  -8   3   6   11.09    2.80   1
  -8   3   7    5.02    2.42   1
  -8   3   8   -1.21    2.11   1
  -8   3   9   43.96    3.85   1
  -8   3  10   18.49    3.10   1
  -8   3  11   26.42    3.29   1
  -8   4 -36   -0.10    5.87   1
  -8   4 -35    0.00    1.00   1
  -8   4 -34    3.10    4.61   1
  -8   4 -33    3.80    4.41   1
  -8   4 -32   -2.99    4.08   1
  -8   4 -29   -1.30    3.69   1
  -8   4 -28   -3.69    3.69   1
  -8   4 -27   -2.99    3.18   1
  -8   4 -26    2.19    2.49   1
  -8   4 -25    0.50    2.61   1
  -8   4 -24   67.24    6.56   1
  -8   4 -23   33.87    4.07   1
  -8   4 -22    0.50    2.91   1
  -8   4 -21  103.02    9.34   1
  -8   4 -20    1.21    3.01   1
  -8   4 -19    2.69    2.98   1
  -8   4 -18    0.50    2.61   1
  -8   4 -17   -0.30    3.21   1
  -8   4 -16   21.44    3.61   1
  -8   4 -15   29.38    3.90   1
  -8   4 -14    1.99    2.68   1
  -8   4 -13    4.20    3.32   1
  -8   4 -12   82.08    6.34   1
  -8   4 -11   -1.90    1.71   1
  -8   4 -10   20.79    2.64   1
  -8   4  -9   29.27    3.68   1
  -8   4  -8    8.88    1.91   1
  -8   4  -7    2.59    2.38   1
  -8   4  -6   56.25    4.50   1
  -8   4  -5    0.90    2.20   1
  -8   4  -4   71.06    5.90   1
  -8   4  -3  255.36   14.38   1
  -8   4  -2   45.56    4.32   1
  -8   4  -1   -0.79    1.99   1
  -8   4   0   29.27    3.68   1
  -8   4   1    0.59    2.19   1
  -8   4   2    1.80    2.01   1
  -8   4   3    0.40    2.29   1
  -8   4   4    2.69    2.30   1
  -8   4   5    3.31    2.40   1
  -8   4   6  116.86    6.49   1
  -8   4   7   51.84    4.61   1
  -8   4   8   -0.90    2.11   1
  -8   4   9  186.87    9.02   1
  -8   4  10   72.08    4.58   1
  -8   4  11   26.01    3.67   1
  -8   4  12   49.70    4.93   1
  -8   5 -35   78.32   40.36   1
  -8   5 -34  -12.39    5.00   1
  -8   5 -33   27.25    6.16   1
  -8   5 -32   -0.50    4.81   1
  -8   5 -31    2.50    4.20   1
  -8   5 -30   17.89    5.16   1
  -8   5 -29   -2.19    2.69   1
  -8   5 -28    2.10    3.71   1
  -8   5 -27   27.98    4.55   1
  -8   5 -26    0.00    1.00   1
  -8   5 -25    4.41    3.02   1
  -8   5 -24    3.69    4.49   1
  -8   5 -23    7.02    4.08   1
  -8   5 -22   22.28    4.06   1
  -8   5 -21  108.78    7.93   1
  -8   5 -20   10.63    3.52   1
  -8   5 -19   -1.69    2.99   1
  -8   5 -18   33.29    4.73   1
  -8   5 -17    6.30    3.41   1
  -8   5 -16    4.08    3.11   1
  -8   5 -15   -1.30    2.90   1
  -8   5 -14   20.16    3.32   1
  -8   5 -13    2.19    2.19   1
  -8   5 -12   64.96    5.16   1
  -8   5 -11    5.02    3.00   1
  -8   5 -10    3.80    2.89   1
  -8   5  -9   14.59    3.13   1
  -8   5  -8   38.19    4.20   1
  -8   5  -7    1.80    2.60   1
  -8   5  -6  412.90   19.91   1
  -8   5  -5    2.40    2.60   1
  -8   5  -4    5.29    2.81   1
  -8   5  -3  145.93    9.18   1
  -8   5  -2    3.10    2.01   1
  -8   5  -1   -2.31    2.31   1
  -8   5   0    1.80    2.60   1
  -8   5   1    2.10    2.29   1
  -8   5   2   10.30    2.89   1
  -8   5   3   33.41    3.58   1
  -8   5   4    2.89    2.38   1
  -8   5   5    0.20    2.41   1
  -8   5   6   60.37    5.13   1
  -8   5   7   -1.30    1.60   1
  -8   5   8    5.20    2.51   1
  -8   5   9    8.88    2.80   1
  -8   5  10    3.50    2.69   1
  -8   5  11    2.69    2.39   1
  -8   5  12   37.45    3.79   1
  -8   5  13   -1.10    2.50   1
  -8   6 -33    0.30   15.86   1
  -8   6 -32   -3.20    3.11   1
  -8   6 -31   -0.50    4.61   1
  -8   6 -30    4.28    3.31   1
  -8   6 -29   12.18    5.17   1
  -8   6 -28   -3.69    4.30   1
  -8   6 -27    3.31    2.69   1
  -8   6 -26   -3.20    4.19   1
  -8   6 -25   -1.69    4.19   1
  -8   6 -24    0.59    3.97   1
  -8   6 -23    8.82    4.40   1
  -8   6 -22    2.69    4.00   1
  -8   6 -21    4.71    3.82   1
  -8   6 -20    2.40    3.60   1
  -8   6 -19    6.71    3.88   1
  -8   6 -18  180.10   13.69   1
  -8   6 -17   -0.10    2.23   1
  -8   6 -16    3.10    2.99   1
  -8   6 -15   -0.90    2.20   1
  -8   6 -14   -0.59    3.37   1
  -8   6 -13    0.90    1.99   1
  -8   6 -12   52.56    5.37   1
  -8   6 -11    3.88    2.99   1
  -8   6 -10    2.79    2.71   1
  -8   6  -9   -2.40    2.79   1
  -8   6  -8    4.20    2.79   1
  -8   6  -7    2.10    2.81   1
  -8   6  -6   15.21    3.20   1
  -8   6  -5   28.20    3.93   1
  -8   6  -4    3.80    2.81   1
  -8   6  -3    2.79    2.30   1
  -8   6  -2   -2.59    2.70   1
  -8   6  -1   15.29    3.36   1
  -8   6   0   40.96    4.22   1
  -8   6   1   17.14    3.23   1
  -8   6   2   -0.10    2.02   1
  -8   6   3   41.34    4.24   1
  -8   6   4    7.08    2.61   1
  -8   6   5    0.40    2.60   1
  -8   6   6    2.50    2.59   1
  -8   6   7   27.04    3.95   1
  -8   6   8    5.02    2.28   1
  -8   6   9    1.59    2.70   1
  -8   6  10    4.20    2.58   1
  -8   6  11   14.36    3.11   1
  -8   6  12    3.50    2.69   1
  -8   6  13   34.46    4.23   1
  -8   6  14    9.61    2.73   1
  -8   7 -30    1.00    5.30   1
  -8   7 -29    7.29    5.18   1
  -8   7 -27   -2.59    2.90   1
  -8   7 -26    0.50    4.22   1
  -8   7 -25   -3.88    3.98   1
  -8   7 -24   88.17    8.08   1
  -8   7 -23    3.10    4.01   1
  -8   7 -22   -0.10    3.85   1
  -8   7 -21   25.00    5.10   1
  -8   7 -20    1.90    3.89   1
  -8   7 -19    5.81    3.71   1
  -8   7 -18    4.71    3.99   1
  -8   7 -17    3.61    3.99   1
  -8   7 -16    2.69    3.80   1
  -8   7 -15   43.96    5.70   1
  -8   7 -14    5.29    3.50   1
  -8   7 -13   -2.99    2.80   1
  -8   7 -12   36.60    4.24   1
  -8   7 -11   16.16    3.86   1
  -8   7 -10    2.79    3.31   1
  -8   7  -9    0.79    2.79   1
  -8   7  -8    2.79    2.91   1
  -8   7  -7    0.40    2.78   1
  -8   7  -6    2.99    3.18   1
  -8   7  -5    1.80    2.60   1
  -8   7  -4   -2.31    2.71   1
  -8   7  -3   18.23    3.42   1
  -8   7  -2    9.49    2.71   1
  -8   7  -1    2.50    2.50   1
  -8   7   0  159.26   12.87   1
  -8   7   1   23.14    3.85   1
  -8   7   2    5.81    3.33   1
  -8   7   3   21.07    3.40   1
  -8   7   4    6.40    2.88   1
  -8   7   5   16.97   12.52   1
  -8   7   6    5.11   11.53   1
  -8   7   7    3.50    2.81   1
  -8   7   8   19.80    3.11   1
  -8   7   9   10.69    3.07   1
  -8   7  10    2.69    2.79   1
  -8   7  11   16.97    3.30   1
  -8   7  12  242.74   17.45   1
  -8   7  13   -1.39    2.60   1
  -8   7  14    5.38    2.88   1
  -8   8 -27   16.00    5.84   1
  -8   8 -26   -1.49    4.29   1
  -8   8 -25    0.79    3.28   1
  -8   8 -24    4.20    5.08   1
  -8   8 -23   22.00    5.72   1
  -8   8 -22    0.79    4.49   1
  -8   8 -21   17.64    4.70   1
  -8   8 -20    3.20    4.30   1
  -8   8 -19   -0.71    3.61   1
  -8   8 -18   59.14    7.07   1
  -8   8 -17   12.18    4.12   1
  -8   8 -16    7.67    3.99   1
  -8   8 -15   42.64    6.14   1
  -8   8 -14   -1.69    3.69   1
  -8   8 -13    3.88    3.19   1
  -8   8 -12   11.09    3.73   1
  -8   8 -11   -0.10    3.44   1
  -8   8 -10   -2.40    3.60   1
  -8   8  -9  161.29    9.91   1
  -8   8  -8   15.29    3.68   1
  -8   8  -7   10.50    4.02   1
  -8   8  -6    2.31    3.01   1
  -8   8  -5    1.90    3.01   1
  -8   8  -4    4.08    2.38   1
  -8   8  -3    0.79    2.99   1
  -8   8  -2    5.20    3.01   1
  -8   8  -1    0.00    1.00   1
  -8   8   0   64.96    5.32   1
  -8   8   1    4.08    2.79   1
  -8   8   2    8.12    2.91   1
  -8   8   3    7.90    2.81   1
  -8   8   4    7.78    3.01   1
  -8   8   5   -2.89    2.79   1
  -8   8   6   21.72    3.54   1
  -8   8   7    8.29    2.82   1
  -8   8   8    2.10    2.70   1
  -8   8   9   10.18    3.13   1
  -8   8  10   44.36    5.33   1
  -8   8  11   34.22    4.33   1
  -8   8  12   14.67    3.83   1
  -8   8  13   75.34    6.08   1
  -8   8  14    0.20    2.92   1
  -8   9 -25   -1.30    5.20   1
  -8   9 -24   10.37    5.41   1
  -8   9 -23    2.10    4.90   1
  -8   9 -22    5.52    4.79   1
  -8   9 -21   58.22    7.17   1
  -8   9 -20   25.60    5.06   1
  -8   9 -19   -0.71    5.12   1
  -8   9 -18   10.50    4.73   1
  -8   9 -17    0.90    2.91   1
  -8   9 -16    7.29    4.37   1
  -8   9 -15  115.56    9.68   1
  -8   9 -14   11.70    3.08   1
  -8   9 -13   -2.99    3.70   1
  -8   9 -12   -0.10    4.25   1
  -8   9 -11    7.08    3.88   1
  -8   9 -10   -1.99    3.10   1
  -8   9  -9    3.39    3.20   1
  -8   9  -8   -1.49    3.59   1
  -8   9  -7    2.89    3.30   1
  -8   9  -6    5.90    3.69   1
  -8   9  -5   -1.39    3.40   1
  -8   9  -4    2.99    3.39   1
  -8   9  -3   15.60    3.79   1
  -8   9  -2    7.67    3.60   1
  -8   9  -1   -0.10    3.64   1
  -8   9   0   22.66    3.90   1
  -8   9   1   -1.90    3.01   1
  -8   9   2   13.10    2.82   1
  -8   9   3  140.90    9.26   1
  -8   9   4   -1.80    2.89   1
  -8   9   5    2.99    3.08   1
  -8   9   6   39.56    4.53   1
  -8   9   7   10.37    3.22   1
  -8   9   8   -0.50    3.11   1
  -8   9   9    3.88    2.88   1
  -8  10 -23   -8.12    6.33   1
  -8  10 -22    7.08    5.37   1
  -8  10 -21   68.39    8.44   1
  -8  10 -20   -7.90    4.50   1
  -8  10 -19   -2.89    4.59   1
  -8  10 -18   29.27    5.30   1
  -8  10 -17    8.29    4.78   1
  -8  10 -16   14.21    4.98   1
  -8  10 -15   66.10    7.48   1
  -8  10 -14   -0.30    4.82   1
  -8  10 -12    4.49    4.58   1
  -8  10 -11    9.12    4.41   1
  -8  10 -10   13.47    4.70   1
  -8  10  -9   43.56    5.81   1
  -8  10  -8   24.90    4.99   1
  -8  10  -7    3.31    4.00   1
  -8  10  -6   33.99    5.60   1
  -8  10  -4    4.41    4.20   1
  -8  10  -3  210.83   12.78   1
  -8  10  -2    2.10    3.19   1
  -8  10  -1    4.20    3.81   1
  -8  10   0    6.00    4.21   1
  -8  10   1    2.79    3.41   1
  -8  10   2   -3.61    3.19   1
  -8  11 -18    5.62    5.31   1
  -8  11 -17   -1.10    5.61   1
  -8  11 -16    2.89    5.20   1
  -8  11 -15    3.80    4.80   1
  -8  11 -14   21.34    5.17   1
  -8  11 -12   11.02    5.18   1
  -8  11 -11   12.60    4.90   1
  -8  11 -10    9.18    4.48   1
  -8  11  -9   10.50    4.08   1
  -8  11  -8   -3.31    3.49   1
  -8  11  -7    0.20    4.02   1
  -8  11  -6   28.73    5.47   1
  -8  11  -5   -0.30    4.42   1
  -7 -13  -6   -0.30    5.02   1
  -7 -13  -5    7.51    4.71   1
  -7 -13  -4    0.50    4.12   1
  -7 -13  -3   41.34    6.56   1
  -7 -13  -2   10.82    5.79   1
  -7 -13  -1    1.39    4.70   1
  -7 -13   0   84.09    9.35   1
  -7 -13   1   10.37    4.70   1
  -7 -13   2    5.71    4.68   1
  -7 -13   3   23.23    5.78   1
  -7 -13   4   -0.40    3.49   1
  -7 -13   5    4.20    4.92   1
  -7 -13   6   31.25    6.60   1
  -7 -13   7    7.90    4.89   1
  -7 -13   8   14.29    4.99   1
  -7 -12 -16   15.76    6.27   1
  -7 -12 -15    2.40    4.40   1
  -7 -12 -14    6.60    4.78   1
  -7 -12 -13    1.39    4.30   1
  -7 -12 -12   38.94    5.74   1
  -7 -12 -11   -0.71    4.12   1
  -7 -12 -10    1.80    4.10   1
  -7 -12  -9    8.18    4.69   1
  -7 -12  -8    3.50    4.11   1
  -7 -12  -7   13.91    4.77   1
  -7 -12  -6   35.76    5.14   1
  -7 -12  -5   19.80    5.07   1
  -7 -12  -4   -5.11    3.71   1
  -7 -12  -3    8.88    4.29   1
  -7 -12  -2    2.89    4.18   1
  -7 -12  -1    6.10    4.40   1
  -7 -12   0   18.23    4.70   1
  -7 -12   1    2.79    4.48   1
  -7 -12   2    1.10    4.51   1
  -7 -12   3    1.80    3.81   1
  -7 -12   4   -2.79    4.11   1
  -7 -12   5    5.52    4.51   1
  -7 -12   6    5.81    4.10   1
  -7 -12   7   28.73    5.68   1
  -7 -12   8   12.82    4.73   1
  -7 -12   9    1.80    3.89   1
  -7 -12  10   15.29    4.69   1
  -7 -12  11    2.79    4.28   1
  -7 -12  12   34.46    5.75   1
  -7 -12  13    2.31    4.62   1
  -7 -12  14    1.10    4.30   1
  -7 -12  15   -0.90    4.41   1
  -7 -12  16    1.69    4.89   1
  -7 -12  17   10.69    4.97   1
  -7 -12  18    8.53    5.08   1
  -7 -12  19    4.00    4.48   1
  -7 -11 -22    6.60    4.78   1
  -7 -11 -21   33.41    5.78   1
  -7 -11 -20    1.39    4.39   1
  -7 -11 -19    8.01    4.53   1
  -7 -11 -18   56.70    6.33   1
  -7 -11 -17    5.38    4.08   1
  -7 -11 -16    4.20    3.69   1
  -7 -11 -15   25.81    5.38   1
  -7 -11 -14   22.09    4.51   1
  -7 -11 -13   -1.59    4.28   1
  -7 -11 -12   -1.49    2.20   1
  -7 -11 -11    5.38    3.57   1
  -7 -11 -10   -0.79    3.38   1
  -7 -11  -9   36.60    5.81   1
  -7 -11  -8   13.91    4.33   1
  -7 -11  -7    8.18    3.49   1
  -7 -11  -6   12.18    4.33   1
  -7 -11  -5    7.62    3.70   1
  -7 -11  -4   32.95    4.71   1
  -7 -11  -3   13.91    4.33   1
  -7 -11  -2   18.58    4.31   1
  -7 -11  -1    6.00    3.38   1
  -7 -11   0    5.02    3.81   1
  -7 -11   1    8.18    3.49   1
  -7 -11   2    0.30    3.72   1
  -7 -11   3   39.44    5.28   1
  -7 -11   4    1.00    3.20   1
  -7 -11   5   -0.20    3.42   1
  -7 -11   6   20.61    3.72   1
  -7 -11   7    3.20    4.01   1
  -7 -11   8    5.38    3.57   1
  -7 -11   9   27.88    5.17   1
  -7 -11  10    1.10    3.70   1
  -7 -11  11   10.63    4.50   1
  -7 -11  12   -2.19    3.49   1
  -7 -11  13   14.36    4.62   1
  -7 -11  14    5.20    2.92   1
  -7 -11  15    8.58    4.28   1
  -7 -11  16    9.99    4.80   1
  -7 -11  17   -5.81    4.48   1
  -7 -11  18   14.36    5.61   1
  -7 -11  19    5.71    4.49   1
  -7 -11  20    5.38    4.50   1
  -7 -11  21   -5.29    4.69   1
  -7 -11  22    3.10    4.89   1
  -7 -11  23    6.71    5.18   1
  -7 -11  24   30.14    6.04   1
  -7 -10 -27   39.44    5.78   1
  -7 -10 -25   -3.69    3.88   1
  -7 -10 -24   -3.80    4.49   1
  -7 -10 -23    4.28    3.97   1
  -7 -10 -22   -0.71    3.91   1
  -7 -10 -21   77.79    8.11   1
  -7 -10 -20    4.08    4.20   1
  -7 -10 -19    2.59    4.09   1
  -7 -10 -18   -2.50    2.59   1
  -7 -10 -17    5.71    3.49   1
  -7 -10 -16   29.27    4.22   1
  -7 -10 -15   86.12    6.50   1
  -7 -10 -14   15.92    3.51   1
  -7 -10 -13   -1.00    3.40   1
  -7 -10 -12   -1.80    3.19   1
  -7 -10 -11    3.69    3.69   1
  -7 -10 -10   -5.90    3.21   1
  -7 -10  -9    1.30    3.10   1
  -7 -10  -8    2.40    3.50   1
  -7 -10  -7    2.50    3.29   1
  -7 -10  -6   16.00    3.76   1
  -7 -10  -5    4.00    3.20   1
  -7 -10  -4   13.03    3.32   1
  -7 -10  -3   31.81    4.51   1
  -7 -10  -2    4.00    3.20   1
  -7 -10  -1    2.10    3.02   1
  -7 -10   0    7.02    3.39   1
  -7 -10   1    0.71    3.11   1
  -7 -10   2   15.60    4.11   1
  -7 -10   3   49.14    5.19   1
  -7 -10   4   24.21    4.23   1
  -7 -10   5    0.40    2.39   1
  -7 -10   6    4.80    3.11   1
  -7 -10   7   -2.79    3.11   1
  -7 -10   8    2.99    3.29   1
  -7 -10   9   -1.99    3.10   1
  -7 -10  10    4.71    3.30   1
  -7 -10  11    0.71    3.21   1
  -7 -10  12   20.16    3.95   1
  -7 -10  13   12.11    3.83   1
  -7 -10  14    0.90    3.31   1
  -7 -10  15   50.27    5.96   1
  -7 -10  16    1.59    3.58   1
  -7 -10  17    2.79    3.41   1
  -7 -10  18    8.53    2.98   1
  -7 -10  19    1.99    2.48   1
  -7 -10  20    9.67    4.98   1
  -7 -10  21   44.09    6.24   1
  -7 -10  22   -4.08    3.88   1
  -7 -10  23    0.90    4.01   1
  -7 -10  24   -6.50    3.98   1
  -7 -10  25    4.00    4.80   1
  -7 -10  26   22.37    5.49   1
  -7 -10  27    8.41    3.42   1
  -7 -10  28    8.29    3.57   1
  -7 -10  29   10.63    5.41   1
  -7  -9 -30    4.41    3.99   1
  -7  -9 -29    0.20    4.43   1
  -7  -9 -28    3.50    4.60   1
  -7  -9 -27   26.42    5.35   1
  -7  -9 -26   10.89    4.42   1
  -7  -9 -25   -0.40    3.59   1
  -7  -9 -24    1.59    3.68   1
  -7  -9 -23   -2.89    3.50   1
  -7  -9 -22    2.89    3.40   1
  -7  -9 -21   10.63    3.59   1
  -7  -9 -20    3.31    2.91   1
  -7  -9 -19   -1.69    3.09   1
  -7  -9 -18   11.63    3.27   1
  -7  -9 -17    9.99    2.91   1
  -7  -9 -16    4.58    2.78   1
  -7  -9 -15   52.56    5.51   1
  -7  -9 -14   32.49    4.10   1
  -7  -9 -13    1.30    2.90   1
  -7  -9 -12    4.28    3.11   1
  -7  -9 -11    9.18    3.09   1
  -7  -9 -10   20.52    3.81   1
  -7  -9  -9   49.14    4.63   1
  -7  -9  -8  153.02    9.65   1
  -7  -9  -7    4.71    2.60   1
  -7  -9  -6   23.23    3.66   1
  -7  -9  -5   16.32    3.72   1
  -7  -9  -4   13.91    2.83   1
  -7  -9  -3   30.25    3.63   1
  -7  -9  -2    6.20    2.89   1
  -7  -9  -1    1.90    2.21   1
  -7  -9   0   25.20    4.22   1
  -7  -9   1    6.10    2.91   1
  -7  -9   2    1.90    2.59   1
  -7  -9   3    1.00    2.70   1
  -7  -9   4    1.30    2.60   1
  -7  -9   5   -0.59    2.48   1
  -7  -9   6    8.18    2.97   1
  -7  -9   7    2.69    2.59   1
  -7  -9   8    3.20    2.68   1
  -7  -9   9   77.97    5.83   1
  -7  -9  10    5.11    2.40   1
  -7  -9  11    2.19    2.90   1
  -7  -9  12   14.90    3.71   1
  -7  -9  13    2.10    2.81   1
  -7  -9  14   21.07    3.76   1
  -7  -9  15    4.80    3.50   1
  -7  -9  16   11.02    4.12   1
  -7  -9  17   -1.69    3.09   1
  -7  -9  18   10.63    3.91   1
  -7  -9  19    2.19    3.20   1
  -7  -9  20   -0.50    3.01   1
  -7  -9  21   12.89    4.02   1
  -7  -9  22   -1.80    3.70   1
  -7  -9  23    4.00    3.28   1
  -7  -9  24   -0.10    3.64   1
  -7  -9  25   10.63    3.78   1
  -7  -9  26    2.79    4.38   1
  -7  -9  27    3.50    4.60   1
  -7  -9  28   11.90    4.97   1
  -7  -9  29   21.62    5.58   1
  -7  -9  30    9.12    4.89   1
  -7  -9  31    8.53    5.20   1
  -7  -9  32    0.79    5.57   1
  -7  -9  33    5.02    3.81   1
  -7  -8 -33   47.75    6.36   1
  -7  -8 -32    3.10    3.70   1
  -7  -8 -31    6.60    4.42   1
  -7  -8 -30   13.91    3.88   1
  -7  -8 -29    6.10    3.70   1
  -7  -8 -28   -2.79    4.58   1
  -7  -8 -27    5.38    3.71   1
  -7  -8 -26   -1.69    2.99   1
  -7  -8 -25   -0.30    3.11   1
  -7  -8 -24   19.18    4.03   1
  -7  -8 -22   14.52    3.89   1
  -7  -8 -21   41.34    4.76   1
  -7  -8 -20    1.69    2.70   1
  -7  -8 -19    0.30    2.71   1
  -7  -8 -18   -0.30    2.82   1
  -7  -8 -17   -1.49    2.39   1
  -7  -8 -16    0.79    2.49   1
  -7  -8 -15   37.09    4.26   1
  -7  -8 -14    7.67    3.21   1
  -7  -8 -13    0.40    2.39   1
  -7  -8 -12   30.69    3.88   1
  -7  -8 -11   30.47    3.42   1
  -7  -8 -10    3.50    2.39   1
  -7  -8  -9   -2.40    2.39   1
  -7  -8  -8   35.28    3.68   1
  -7  -8  -7   -0.40    2.39   1
  -7  -8  -6    5.29    2.48   1
  -7  -8  -5   11.02    2.52   1
  -7  -8  -4    0.30    2.21   1
  -7  -8  -3   16.89    2.79   1
  -7  -8  -2   12.53    2.83   1
  -7  -8  -1    5.11    2.49   1
  -7  -8   0   24.80    3.09   1
  -7  -8   1    0.71    2.20   1
  -7  -8   2    2.19    2.31   1
  -7  -8   3   -2.50    2.21   1
  -7  -8   4    1.99    2.28   1
  -7  -8   5   10.63    3.19   1
  -7  -8   6   -0.20    2.11   1
  -7  -8   7    2.31    2.61   1
  -7  -8   8   -1.00    2.20   1
  -7  -8   9   16.89    3.21   1
  -7  -8  10    4.49    2.71   1
  -7  -8  11   21.81    3.18   1
  -7  -8  12   38.56    3.85   1
  -7  -8  13   13.32    3.14   1
  -7  -8  14    1.30    2.90   1
  -7  -8  15   54.61    4.73   1
  -7  -8  16    8.41    2.09   1
  -7  -8  17    0.59    2.99   1
  -7  -8  18   32.49    5.13   1
  -7  -8  19    2.31    2.92   1
  -7  -8  20    9.12    3.08   1
  -7  -8  21   37.09    5.12   1
  -7  -8  22   13.03    4.12   1
  -7  -8  23    4.00    3.80   1
  -7  -8  24   19.89    4.37   1
  -7  -8  25   11.42    4.19   1
  -7  -8  26   -1.49    4.17   1
  -7  -8  27   10.37    3.99   1
  -7  -8  28    6.40    3.90   1
  -7  -8  29   20.98    5.22   1
  -7  -8  30   24.90    4.69   1
  -7  -8  31   20.98    5.86   1
  -7  -8  32   14.98    4.80   1
  -7  -8  33    4.49    4.71   1
  -7  -8  34    9.80    5.32   1
  -7  -8  35   -6.40    3.29   1
  -7  -7 -35    6.50    3.98   1
  -7  -7 -34   -2.40    3.69   1
  -7  -7 -33   -0.40    3.59   1
  -7  -7 -32    4.49    3.48   1
  -7  -7 -31   -2.69    3.51   1
  -7  -7 -30   15.37    3.68   1
  -7  -7 -29   10.63    3.72   1
  -7  -7 -28    7.08    3.40   1
  -7  -7 -27    0.90    2.91   1
  -7  -7 -26   -0.79    2.69   1
  -7  -7 -25    2.99    2.91   1
  -7  -7 -24   30.03    4.49   1
  -7  -7 -23   10.89    3.30   1
  -7  -7 -22    1.90    3.01   1
  -7  -7 -21    1.80    2.30   1
  -7  -7 -20    0.30    2.71   1
  -7  -7 -19    2.10    2.20   1
  -7  -7 -18   70.06    5.52   1
  -7  -7 -17    0.40    2.19   1
  -7  -7 -15   40.96    3.84   1
  -7  -7 -14   18.49    2.67   1
  -7  -7 -13   -4.71    1.82   1
  -7  -7 -12    3.31    2.11   1
  -7  -7 -11    6.10    2.52   1
  -7  -7 -10    3.88    3.07   1
  -7  -7  -9   -0.30    3.11   1
  -7  -7  -8    2.10    2.29   1
  -7  -7  -7    3.39    1.91   1
  -7  -7  -6    2.19    1.89   1
  -7  -7  -5    2.99    1.90   1
  -7  -7  -4   23.91    3.03   1
  -7  -7  -3   42.12    4.15   1
  -7  -7  -2   39.69    3.65   1
  -7  -7  -1    8.82    2.20   1
  -7  -7   0   81.72    5.60   1
  -7  -7   1    2.99    2.01   1
  -7  -7   2    8.53    2.28   1
  -7  -7   3    0.71    2.02   1
  -7  -7   4    8.82    2.49   1
  -7  -7   5    5.81    2.51   1
  -7  -7   6  119.03    7.64   1
  -7  -7   7    4.28    2.11   1
  -7  -7   8    3.50    2.09   1
  -7  -7   9   36.97    3.89   1
  -7  -7  10   27.35    3.03   1
  -7  -7  11    0.30    2.11   1
  -7  -7  13    5.11    2.80   1
  -7  -7  14    5.29    2.58   1
  -7  -7  15   43.56    4.36   1
  -7  -7  16   15.76    3.49   1
  -7  -7  17   19.71    3.64   1
  -7  -7  18   44.76    4.55   1
  -7  -7  19   12.32    2.60   1
  -7  -7  20    3.20    2.51   1
  -7  -7  21    3.10    2.60   1
  -7  -7  22    3.61    2.81   1
  -7  -7  23   14.36    3.41   1
  -7  -7  24   24.40    4.35   1
  -7  -7  25   66.26    6.84   1
  -7  -7  26   -2.50    2.91   1
  -7  -7  27   28.41    4.58   1
  -7  -7  28    2.50    3.98   1
  -7  -7  29    7.78    4.02   1
  -7  -7  30    1.21    4.22   1
  -7  -7  31   16.56    3.66   1
  -7  -7  32   10.11    4.58   1
  -7  -7  33   -2.50    4.20   1
  -7  -7  34   -0.71    4.32   1
  -7  -7  35   -2.10    3.10   1
  -7  -7  36   12.53    5.52   1
  -7  -7  37   -1.90    5.00   1
  -7  -7  38   -0.30    3.72   1
  -7  -6 -37    0.20    4.72   1
  -7  -6 -36   -1.30    3.69   1
  -7  -6 -35    2.79    3.61   1
  -7  -6 -34    9.80    3.82   1
  -7  -6 -33   -1.00    3.40   1
  -7  -6 -32   -1.39    3.00   1
  -7  -6 -31    0.30    3.01   1
  -7  -6 -30    6.92    2.79   1
  -7  -6 -29    3.88    3.51   1
  -7  -6 -28    3.80    2.69   1
  -7  -6 -27    2.50    2.40   1
  -7  -6 -26    1.90    2.29   1
  -7  -6 -25   -2.19    2.60   1
  -7  -6 -24   44.22    4.66   1
  -7  -6 -23    7.29    3.02   1
  -7  -6 -22    0.50    3.11   1
  -7  -6 -21   -0.90    2.70   1
  -7  -6 -20   19.62    2.84   1
  -7  -6 -19    0.00    1.00   1
  -7  -6 -18    1.90    2.21   1
  -7  -6 -17    5.62    1.90   1
  -7  -6 -16   -1.00    1.90   1
  -7  -6 -15    1.49    1.68   1
  -7  -6 -12  115.99    6.89   1
  -7  -6 -11    6.40    1.92   1
  -7  -6 -11    7.29    1.89   1
  -7  -6 -10   13.03    2.31   1
  -7  -6  -9   74.13    5.85   1
  -7  -6  -8    0.59    1.69   1
  -7  -6  -7   -0.90    1.41   1
  -7  -6  -5    2.89    1.60   1
  -7  -6  -4    8.58    1.99   1
  -7  -6  -3   41.34    3.09   1
  -7  -6  -2   98.01    5.74   1
  -7  -6  -1   11.42    2.23   1
  -7  -6   0    9.99    2.02   1
  -7  -6   1   18.06    2.46   1
  -7  -6   2    5.71    1.91   1
  -7  -6   3   11.22    2.48   1
  -7  -6   4    2.79    2.20   1
  -7  -6   5   16.89    2.22   1
  -7  -6   6   42.64    3.53   1
  -7  -6   8   14.98    2.40   1
  -7  -6   9    4.49    1.99   1
  -7  -6  10   -1.00    1.90   1
  -7  -6  11    0.00    1.00   1
  -7  -6  12  191.82    9.97   1
  -7  -6  13   32.26    3.75   1
  -7  -6  14    5.52    2.30   1
  -7  -6  15   83.17    5.84   1
  -7  -6  16    2.59    2.29   1
  -7  -6  17   -2.69    2.00   1
  -7  -6  18    0.00    1.00   1
  -7  -6  19    3.88    2.40   1
  -7  -6  20   13.91    3.21   1
  -7  -6  21   57.15    4.54   1
  -7  -6  22    8.12    3.08   1
  -7  -6  23    2.19    2.49   1
  -7  -6  24   33.29    4.15   1
  -7  -6  25   53.73    5.72   1
  -7  -6  26    4.08    3.27   1
  -7  -6  27   -0.50    3.21   1
  -7  -6  28    1.49    2.98   1
  -7  -6  29   -0.20    3.32   1
  -7  -6  30   54.61    6.21   1
  -7  -6  31   -1.39    3.59   1
  -7  -6  32    0.10    4.04   1
  -7  -6  33    9.00    4.50   1
  -7  -6  34    2.19    3.29   1
  -7  -6  35   -4.00    4.08   1
  -7  -6  38   -7.90    4.61   1
  -7  -6  39   -0.90    3.71   1
  -7  -6  40    9.80    5.38   1
  -7  -5 -39   -3.39    3.61   1
  -7  -5 -38   -2.69    3.61   1
  -7  -5 -37    4.88    3.89   1
  -7  -5 -36   16.89    3.78   1
  -7  -5 -35   10.37    4.12   1
  -7  -5 -34    1.30    3.10   1
  -7  -5 -33    7.02    3.02   1
  -7  -5 -32    3.50    2.69   1
  -7  -5 -31    7.62    3.31   1
  -7  -5 -30   -0.10    2.33   1
  -7  -5 -29   -1.80    2.49   1
  -7  -5 -28   -1.69    3.38   1
  -7  -5 -27    1.80    2.39   1
  -7  -5 -26   11.02    2.59   1
  -7  -5 -25   10.18    2.81   1
  -7  -5 -24    5.11    2.62   1
  -7  -5 -23    7.78    2.79   1
  -7  -5 -22    9.92    2.33   1
  -7  -5 -21   31.36    3.47   1
  -7  -5 -20   15.68    2.22   1
  -7  -5 -19    2.10    1.80   1
  -7  -5 -18   33.29    3.12   1
  -7  -5 -18   45.16    4.03   1
  -7  -5 -17   16.40    2.27   1
  -7  -5 -17    6.81    1.83   1
  -7  -5 -16    1.10    1.91   1
  -7  -5 -16    0.79    1.69   1
  -7  -5 -15    8.18    2.17   1
  -7  -5 -15    6.30    1.81   1
  -7  -5 -14   -1.80    1.69   1
  -7  -5 -13    1.90    1.60   1
  -7  -5 -13   -0.79    1.80   1
  -7  -5 -12   27.56    3.57   1
  -7  -5 -12   24.11    2.85   1
  -7  -5 -11    8.70    2.01   1
  -7  -5 -11    5.81    2.02   1
  -7  -5 -10    9.00    1.98   1
  -7  -5 -10   17.39    2.42   1
  -7  -5  -9   48.30    3.34   1
  -7  -5  -9   41.22    3.34   1
  -7  -5  -8    7.29    1.62   1
  -7  -5  -8    3.39    2.39   1
  -7  -5  -7    8.58    2.40   1
  -7  -5  -7    7.62    1.82   1
  -7  -5  -6    3.88    1.38   1
  -7  -5  -5   -0.71    1.31   1
  -7  -5  -4   20.43    2.08   1
  -7  -5  -3   67.73    4.28   1
  -7  -5  -2  105.47    6.16   1
  -7  -5  -1    6.30    1.61   1
  -7  -5   0   26.11    2.45   1
  -7  -5   1    0.90    1.90   1
  -7  -5   2    1.00    1.60   1
  -7  -5   3    1.10    1.41   1
  -7  -5   4   21.16    2.21   1
  -7  -5   5   -0.30    1.31   1
  -7  -5   6   -1.00    1.50   1
  -7  -5   7   40.45    3.43   1
  -7  -5   8    3.10    1.80   1
  -7  -5   9  260.82   11.30   1
  -7  -5  10   78.68    5.32   1
  -7  -5  11   12.82    2.43   1
  -7  -5  12   14.06    2.70   1
  -7  -5  14   24.70    2.48   1
  -7  -5  15   87.61    6.18   1
  -7  -5  16    6.00    2.01   1
  -7  -5  17   -1.10    1.99   1
  -7  -5  18  163.58   10.23   1
  -7  -5  19   10.50    2.79   1
  -7  -5  20   -2.19    2.19   1
  -7  -5  21   20.52    2.99   1
  -7  -5  22   -1.59    1.49   1
  -7  -5  23    2.50    1.80   1
  -7  -5  24  154.26   11.92   1
  -7  -5  25   59.60    6.64   1
  -7  -5  26   -1.00    2.70   1
  -7  -5  27    9.92    3.21   1
  -7  -5  28   25.91    4.07   1
  -7  -5  29   11.90    2.62   1
  -7  -5  30    5.71    3.20   1
  -7  -5  31   90.63    6.28   1
  -7  -5  32    3.39    2.28   1
  -7  -5  33   42.77    6.67   1
  -7  -5  36   20.79    5.02   1
  -7  -5  37    7.29    3.89   1
  -7  -5  38   14.52    4.80   1
  -7  -5  39    6.50    3.52   1
  -7  -5  40   -1.69    4.99   1
  -7  -5  41    1.30    3.40   1
  -7  -4 -40   -0.40    3.98   1
  -7  -4 -39   35.88    4.91   1
  -7  -4 -38    0.10    3.14   1
  -7  -4 -37   11.97    3.53   1
  -7  -4 -36   11.02    3.78   1
  -7  -4 -35    3.31    3.71   1
  -7  -4 -34   -0.90    3.21   1
  -7  -4 -33   13.62    3.32   1
  -7  -4 -32    3.50    3.52   1
  -7  -4 -31   -4.20    2.79   1
  -7  -4 -30   27.04    3.43   1
  -7  -4 -29    3.69    2.19   1
  -7  -4 -28    5.81    2.70   1
  -7  -4 -27    3.31    2.00   1
  -7  -4 -26   35.40    2.97   1
  -7  -4 -25    7.90    2.59   1
  -7  -4 -24   -0.40    1.69   1
  -7  -4 -23   -0.20    1.51   1
  -7  -4 -23    0.79    2.39   1
  -7  -4 -22    1.69    2.29   1
  -7  -4 -22    1.30    1.89   1
  -7  -4 -21    4.08    2.38   1
  -7  -4 -21    7.51    1.92   1
  -7  -4 -20    2.10    2.41   1
  -7  -4 -20    1.00    1.50   1
  -7  -4 -19    9.00    2.58   1
  -7  -4 -19    4.41    1.72   1
  -7  -4 -18   21.53    2.41   1
  -7  -4 -18   19.27    3.42   1
  -7  -4 -17    0.20    1.81   1
  -7  -4 -17   -0.71    2.20   1
  -7  -4 -16    0.20    1.81   1
  -7  -4 -15   43.56    4.62   1
  -7  -4 -14   16.08    2.09   1
  -7  -4 -14   21.16    2.85   1
  -7  -4 -13    1.80    1.21   1
  -7  -4 -13    2.79    1.80   1
  -7  -4 -12    1.49    1.20   1
  -7  -4 -12    5.02    1.88   1
  -7  -4 -11    0.10    1.62   1
  -7  -4 -11    1.59    1.79   1
  -7  -4 -10   10.37    1.80   1
  -7  -4 -10   12.32    2.60   1
  -7  -4  -9   81.18    4.32   1
  -7  -4  -8   22.75    2.48   1
  -7  -4  -8   41.34    3.47   1
  -7  -4  -7   12.89    1.87   1
  -7  -4  -7    8.12    1.71   1
  -7  -4  -6  117.72    6.29   1
  -7  -4  -6   88.92    5.28   1
  -7  -4  -5   20.79    2.19   1
  -7  -4  -5   39.44    3.52   1
  -7  -4  -4    0.30    1.61   1
  -7  -4  -4    0.79    1.09   1
  -7  -4  -3  126.11    6.96   1
  -7  -4  -3   92.93    5.98   1
  -7  -4  -2    0.90    1.01   1
  -7  -4  -1    5.29    1.61   1
  -7  -4   0    7.08    1.38   1
  -7  -4   1   27.77    2.21   1
  -7  -4   2    1.10    1.09   1
  -7  -4   3   69.22    3.66   1
  -7  -4   4   21.16    2.30   1
  -7  -4   5    0.90    1.31   1
  -7  -4   6   17.31    2.16   1
  -7  -4   7    1.80    1.39   1
  -7  -4   8    4.00    1.72   1
  -7  -4   9   41.34    3.09   1
  -7  -4  10   17.22    2.24   1
  -7  -4  11    4.20    2.21   1
  -7  -4  12  160.02    8.10   1
  -7  -4  13   14.82    2.31   1
  -7  -4  14   -0.40    1.79   1
  -7  -4  15  389.67   18.95   1
  -7  -4  16   15.13    2.49   1
  -7  -4  17    4.20    2.01   1
  -7  -4  18   28.73    3.11   1
  -7  -4  19    0.59    1.99   1
  -7  -4  20   -1.59    1.99   1
  -7  -4  21  136.42    7.48   1
  -7  -4  22    7.67    2.49   1
  -7  -4  23    4.88    2.70   1
  -7  -4  26   38.56    4.10   1
  -7  -4  27   36.84    4.25   1
  -7  -4  28   -2.59    2.09   1
  -7  -4  29    6.10    3.11   1
  -7  -4  38    1.99    2.79   1
  -7  -3 -41   -9.00    4.68   1
  -7  -3 -40   -2.50    3.41   1
  -7  -3 -39   25.10    4.01   1
  -7  -3 -38   -2.50    4.11   1
  -7  -3 -37   -0.50    3.41   1
  -7  -3 -36   -0.20    3.73   1
  -7  -3 -35   10.82    3.09   1
  -7  -3 -34   -2.40    2.20   1
  -7  -3 -33   36.24    3.97   1
  -7  -3 -32    5.20    2.51   1
  -7  -3 -31    0.90    2.11   1
  -7  -3 -30    4.58    2.31   1
  -7  -3 -29    0.40    2.29   1
  -7  -3 -28    2.19    2.69   1
  -7  -3 -28   -0.30    2.01   1
  -7  -3 -27    1.49    2.39   1
  -7  -3 -27    0.30    2.51   1
  -7  -3 -26    0.20    2.21   1
  -7  -3 -26    1.30    2.51   1
  -7  -3 -25   -1.39    2.60   1
  -7  -3 -25   -0.50    1.90   1
  -7  -3 -24   57.00    4.53   1
  -7  -3 -24   64.48    4.66   1
  -7  -3 -23   67.24    5.25   1
  -7  -3 -23   52.85    3.63   1
  -7  -3 -22   18.84    2.60   1
  -7  -3 -22   19.54    3.89   1
  -7  -3 -21   47.06    3.98   1
  -7  -3 -21   30.47    2.98   1
  -7  -3 -20   13.32    2.41   1
  -7  -3 -20   11.22    2.41   1
  -7  -3 -19   17.72    2.86   1
  -7  -3 -19   10.37    1.80   1
  -7  -3 -18   46.79    3.97   1
  -7  -3 -18   30.36    3.42   1
  -7  -3 -17   20.98    2.29   1
  -7  -3 -17   18.84    2.78   1
  -7  -3 -16    8.70    2.42   1
  -7  -3 -16    7.02    1.70   1
  -7  -3 -15  118.59    6.10   1
  -7  -3 -15   87.80    5.25   1
  -7  -3 -14   23.23    3.37   1
  -7  -3 -14   17.39    1.83   1
  -7  -3 -13    4.08    1.21   1
  -7  -3 -13   11.90    2.21   1
  -7  -3 -12   40.96    3.84   1
  -7  -3 -12   29.48    2.39   1
  -7  -3 -11   -0.10    1.01   1
  -7  -3 -11    0.20    1.71   1
  -7  -3 -10    3.39    1.99   1
  -7  -3 -10    4.41    1.30   1
  -7  -3  -9  529.92   27.62   1
  -7  -3  -9  468.72   19.05   1
  -7  -3  -8    6.81    2.09   1
  -7  -3  -8    7.51    1.32   1
  -7  -3  -7    0.50    2.00   1
  -7  -3  -7    0.59    1.00   1
  -7  -3  -6    3.31    1.09   1
  -7  -3  -6   -0.20    1.81   1
  -7  -3  -5   14.06    1.73   1
  -7  -3  -5   21.34    2.68   1
  -7  -3  -4    2.99    2.11   1
  -7  -3  -4    2.50    1.11   1
  -7  -3  -3  210.83   11.62   1
  -7  -3  -3  168.22    8.04   1
  -7  -3  -2   47.75    3.59   1
  -7  -3  -2   63.68    4.63   1
  -7  -3  -1    9.92    1.58   1
  -7  -3  -1   11.63    2.18   1
  -7  -3   0   49.70    3.95   1
  -7  -3   0   38.94    2.75   1
  -7  -3   1   23.33    2.03   1
  -7  -3   2    1.69    1.09   1
  -7  -3   3   -1.21    0.81   1
  -7  -3   4    0.40    0.79   1
  -7  -3   5    4.71    1.61   1
  -7  -3   6    4.80    1.31   1
  -7  -3   7   18.84    2.00   1
  -7  -3   8    5.52    1.60   1
  -7  -3   9   20.16    2.07   1
  -7  -3  10   27.35    2.82   1
  -7  -3  11   -0.40    1.30   1
  -7  -3  12  293.09   16.78   1
  -7  -3  13   65.77    4.05   1
  -7  -3  14   16.32    2.50   1
  -7  -3  15  385.34   18.45   1
  -7  -3  16    3.39    1.69   1
  -7  -3  17    7.51    2.08   1
  -7  -3  18   53.73    4.40   1
  -7  -3  21   12.32    2.53   1
  -7  -3  24   77.26    4.92   1
  -7  -3  25   90.44    6.66   1
  -7  -3  26    0.40    2.39   1
  -7  -3  27  210.54   11.61   1
  -7  -3  28   41.34    4.76   1
  -7  -3  29   16.81    2.62   1
  -7  -3  34    6.81    2.82   1
  -7  -3  41    5.90    3.50   1
  -7  -2 -41    8.12    3.02   1
  -7  -2 -40    4.88    3.58   1
  -7  -2 -39  127.92    9.50   1
  -7  -2 -38    0.30    3.01   1
  -7  -2 -37   -0.10    3.03   1
  -7  -2 -36    1.30    2.80   1
  -7  -2 -35    0.20    2.52   1
  -7  -2 -34    0.30    2.61   1
  -7  -2 -34    1.10    3.51   1
  -7  -2 -33   25.00    3.30   1
  -7  -2 -33   23.81    4.29   1
  -7  -2 -32   -2.10    2.41   1
  -7  -2 -31    2.10    3.10   1
  -7  -2 -30   55.06    5.94   1
  -7  -2 -30   65.93    4.87   1
  -7  -2 -29    2.19    2.99   1
  -7  -2 -29    2.19    1.69   1
  -7  -2 -28    4.58    2.70   1
  -7  -2 -28    1.69    2.11   1
  -7  -2 -27    0.40    1.69   1
  -7  -2 -27    0.71    2.60   1
  -7  -2 -26    3.50    2.28   1
  -7  -2 -25    1.49    1.78   1
  -7  -2 -25    5.71    2.58   1
  -7  -2 -24    5.71    1.48   1
  -7  -2 -24    5.71    3.11   1
  -7  -2 -23   40.96    3.84   1
  -7  -2 -23   27.56    2.73   1
  -7  -2 -22   -0.59    2.19   1
  -7  -2 -22    0.00    1.00   1
  -7  -2 -21  154.26    8.20   1
  -7  -2 -21  119.25    7.86   1
  -7  -2 -20    4.08    1.62   1
  -7  -2 -20    5.90    2.72   1
  -7  -2 -19    1.39    1.39   1
  -7  -2 -19    1.10    1.99   1
  -7  -2 -18   45.97    2.98   1
  -7  -2 -18   52.27    4.63   1
  -7  -2 -17   24.40    2.07   1
  -7  -2 -17   28.94    3.34   1
  -7  -2 -16    9.12    1.39   1
  -7  -2 -16   10.30    2.50   1
  -7  -2 -15   79.03    4.98   1
  -7  -2 -15   68.72    3.32   1
  -7  -2 -14    2.10    1.71   1
  -7  -2 -14    0.20    0.91   1
  -7  -2 -13    9.42    1.60   1
  -7  -2 -12   97.42    5.13   1
  -7  -2 -12  121.22    6.39   1
  -7  -2 -11    1.10    1.99   1
  -7  -2 -11    3.88    1.10   1
  -7  -2 -10    4.00    1.00   1
  -7  -2 -10    6.40    2.13   1
  -7  -2  -9  144.00    6.72   1
  -7  -2  -9  202.21    9.39   1
  -7  -2  -8   10.50    2.20   1
  -7  -2  -8    6.81    0.99   1
  -7  -2  -7    1.39    1.70   1
  -7  -2  -7   -0.59    0.80   1
  -7  -2  -6   25.10    2.30   1
  -7  -2  -6   15.76    1.27   1
  -7  -2  -5   46.65    3.41   1
  -7  -2  -5   40.45    2.29   1
  -7  -2  -4    2.10    0.81   1
  -7  -2  -4    1.80    1.29   1
  -7  -2  -3  183.60    8.40   1
  -7  -2  -3  228.31   11.18   1
  -7  -2  -2    0.10    0.71   1
  -7  -2  -2    1.59    1.79   1
  -7  -2  -1    4.08    1.90   1
  -7  -2  -1    1.69    0.91   1
  -7  -2   0   10.89    2.38   1
  -7  -2   0    3.80    1.01   1
  -7  -2   1   80.46    4.84   1
  -7  -2   1   87.24    5.23   1
  -7  -2   2    4.58    2.01   1
  -7  -2   2    4.41    1.09   1
  -7  -2   3   89.49    5.49   1
  -7  -2   3   69.06    3.49   1
  -7  -2   4    0.50    0.91   1
  -7  -2   5    0.30    0.90   1
  -7  -2   6  102.21    4.85   1
  -7  -2   7   30.69    2.55   1
  -7  -2   8    1.39    0.99   1
  -7  -2   9   88.17    4.32   1
  -7  -2  10   26.52    2.16   1
  -7  -2  11   37.58    3.19   1
  -7  -2  12    0.59    1.29   1
  -7  -2  33   37.33    5.25   1
  -7  -2  39   10.69    3.79   1
  -7  -1 -42    4.41    3.70   1
  -7  -1 -41   11.42    4.19   1
  -7  -1 -40    8.29    3.80   1
  -7  -1 -39   -4.88    4.20   1
  -7  -1 -39    1.49    2.88   1
  -7  -1 -38   -3.80    4.72   1
  -7  -1 -38    6.00    3.28   1
  -7  -1 -37    4.41    3.11   1
  -7  -1 -37   -2.79    4.78   1
  -7  -1 -36  120.34    9.65   1
  -7  -1 -35   -1.00    4.00   1
  -7  -1 -35   -1.69    2.70   1
  -7  -1 -34    1.69    2.70   1
  -7  -1 -34    7.67    4.10   1
  -7  -1 -33    1.90    3.39   1
  -7  -1 -33    5.62    2.32   1
  -7  -1 -32    5.90    2.72   1
  -7  -1 -32    2.89    3.71   1
  -7  -1 -31    0.71    2.30   1
  -7  -1 -31   -1.30    3.49   1
  -7  -1 -30   53.44    5.70   1
  -7  -1 -30   52.85    4.36   1
  -7  -1 -29   17.81    3.71   1
  -7  -1 -29   15.76    2.86   1
  -7  -1 -28   11.49    3.39   1
  -7  -1 -28   11.63    2.52   1
  -7  -1 -27    8.82    3.21   1
  -7  -1 -27    5.62    1.80   1
  -7  -1 -26   -1.21    1.80   1
  -7  -1 -26   -2.69    2.79   1
  -7  -1 -25   36.72    3.76   1
  -7  -1 -25   32.95    2.98   1
  -7  -1 -24   -0.90    1.60   1
  -7  -1 -24   -1.00    2.60   1
  -7  -1 -23    0.20    1.61   1
  -7  -1 -23   -0.40    2.29   1
  -7  -1 -22    2.19    1.51   1
  -7  -1 -22    1.39    2.29   1
  -7  -1 -21   16.00    3.04   1
  -7  -1 -21   16.81    1.80   1
  -7  -1 -20   -1.21    2.20   1
  -7  -1 -20   -0.40    1.40   1
  -7  -1 -19    0.30    2.11   1
  -7  -1 -19    1.00    1.20   1
  -7  -1 -18  635.54   25.21   1
  -7  -1 -18  533.15   24.48   1
  -7  -1 -17    7.51    1.21   1
  -7  -1 -17    4.41    2.52   1
  -7  -1 -16    0.30    1.90   1
  -7  -1 -16    2.40    0.90   1
  -7  -1 -15   32.15    2.15   1
  -7  -1 -15   44.76    3.61   1
  -7  -1 -14   15.52    1.34   1
  -7  -1 -14   20.52    2.81   1
  -7  -1 -13    6.40    1.92   1
  -7  -1 -13    2.99    0.90   1
  -7  -1 -12  137.59    6.10   1
  -7  -1 -12  169.00    7.54   1
  -7  -1 -11    6.81    1.88   1
  -7  -1 -10   26.63    2.79   1
  -7  -1 -10   23.91    1.17   1
  -7  -1  -9  102.82    4.06   1
  -7  -1  -9  120.12    6.58   1
  -7  -1  -8   -1.59    1.69   1
  -7  -1  -8   -0.20    0.40   1
  -7  -1  -8    0.10    0.51   1
  -7  -1  -7   34.46    3.05   1
  -7  -1  -6  129.96    5.02   1
  -7  -1  -6  138.77    6.83   1
  -7  -1  -5  153.26    5.69   1
  -7  -1  -5  170.56    8.62   1
  -7  -1  -4    1.21    1.80   1
  -7  -1  -4    0.00    1.00   1
  -7  -1  -3  177.69    7.20   1
  -7  -1  -3  204.78   10.30   1
  -7  -1  -2   78.15    3.54   1
  -7  -1  -2   88.55    5.27   1
  -7  -1  -1    2.50    1.80   1
  -7  -1  -1    2.10    0.61   1
  -7  -1   0  158.51    7.05   1
  -7  -1   0  163.07    7.66   1
  -7  -1   2    0.59    0.69   1
  -7  -1   2    1.90    1.79   1
  -7  -1   3    8.18    0.92   1
  -7  -1   3   10.11    1.91   1
  -7  -1   4   48.44    3.20   1
  -7  -1   4   54.17    4.27   1
  -7  -1   5    0.90    0.89   1
  -7  -1   5    3.31    1.89   1
  -7  -1   6   20.07    1.79   1
  -7  -1   7   10.11    1.27   1
  -7  -1   8    1.30    0.89   1
  -7  -1   9    2.40    0.99   1
  -7  -1  10   19.98    2.32   1
  -7  -1  27   -0.30    1.51   1
  -7  -1  28   26.73    3.21   1
  -7  -1  29   -1.59    1.69   1
  -7  -1  30   24.11    3.54   1
  -7  -1  31    1.00    2.30   1
  -7  -1  32    2.99    2.49   1
  -7  -1  33   14.06    2.92   1
  -7   0 -42  117.51   11.49   1
  -7   0 -40    6.00    5.10   1
  -7   0 -40    2.40    3.19   1
  -7   0 -38   39.44    6.53   1
  -7   0 -38   47.33    4.95   1
  -7   0 -36    1.10    2.79   1
  -7   0 -36    0.71    4.12   1
  -7   0 -34   16.16    3.70   1
  -7   0 -34   17.64    3.11   1
  -7   0 -32    2.79    2.50   1
  -7   0 -32    2.50    3.60   1
  -7   0 -30   39.82    3.03   1
  -7   0 -30   34.11    4.67   1
  -7   0 -28    5.38    3.48   1
  -7   0 -28   12.82    2.22   1
  -7   0 -26   72.93    5.47   1
  -7   0 -26   75.34    5.56   1
  -7   0 -24  354.57   16.57   1
  -7   0 -24  321.13   15.77   1
  -7   0 -22    6.40    2.99   1
  -7   0 -22    7.08    1.49   1
  -7   0 -20   29.81    3.60   1
  -7   0 -20   27.04    2.08   1
  -7   0 -18    1.49    2.29   1
  -7   0 -18    2.10    1.01   1
  -7   0 -16   19.54    2.83   1
  -7   0 -16   20.98    1.56   1
  -7   0 -14    3.39    0.70   1
  -7   0 -14    4.20    2.09   1
  -7   0 -12  449.86   17.82   1
  -7   0 -10   -1.69    1.90   1
  -7   0  -8   12.60    2.20   1
  -7   0  -6 2062.98   87.21   1
  -7   0  -4   16.00    2.40   1
  -7   0  -2    1.49    1.59   1
  -7   0   0  102.01    6.67   1
  -7   0   2    4.00    1.88   1
  -7   0   4    3.61    1.41   1
  -7   0   4    2.79    0.90   1
  -7   0   6  119.46    6.34   1
  -7   0   6   99.00    5.77   1
  -7   0   8    0.30    1.10   1
  -7   0  12  625.50   27.01   1
  -7   0  14   18.92    2.09   1
  -7   0  20    1.99    1.80   1
  -7   0  38    3.39    3.97   1
  -7   0  42   -1.21    4.42   1
  -7   0  44    2.50    4.71   1
  -7   1 -42    9.49    5.98   1
  -7   1 -41    5.29    5.11   1
  -7   1 -40   17.64    5.63   1
  -7   1 -39    2.89    4.49   1
  -7   1 -39   -0.90    3.61   1
  -7   1 -38    4.58    4.41   1
  -7   1 -38    1.39    2.38   1
  -7   1 -37   -4.80    4.51   1
  -7   1 -37    6.20    2.79   1
  -7   1 -36  146.89    9.94   1
  -7   1 -36  164.35   11.79   1
  -7   1 -35   -0.20    2.92   1
  -7   1 -35   -2.31    3.92   1
  -7   1 -34    4.00    2.92   1
  -7   1 -34    4.58    2.91   1
  -7   1 -33    3.50    3.59   1
  -7   1 -33    0.90    2.60   1
  -7   1 -32    4.80    2.41   1
  -7   1 -32    2.50    2.40   1
  -7   1 -31    3.20    3.40   1
  -7   1 -31    1.90    2.10   1
  -7   1 -30   41.09    3.85   1
  -7   1 -30   47.06    5.35   1
  -7   1 -29    8.58    3.69   1
  -7   1 -28    9.92    2.33   1
  -7   1 -28    8.88    3.10   1
  -7   1 -27    4.08    1.98   1
  -7   1 -27    5.90    3.21   1
  -7   1 -26   -0.79    1.58   1
  -7   1 -26   -1.99    2.79   1
  -7   1 -25   23.81    2.44   1
  -7   1 -25   35.64    4.54   1
  -7   1 -24    1.59    1.29   1
  -7   1 -24    1.99    2.68   1
  -7   1 -23   -0.30    1.31   1
  -7   1 -23   -4.00    2.08   1
  -7   1 -22    3.50    1.91   1
  -7   1 -22    1.99    1.30   1
  -7   1 -21   15.37    3.06   1
  -7   1 -21   17.22    1.58   1
  -7   1 -20    0.20    0.91   1
  -7   1 -20   -0.10    2.43   1
  -7   1 -19    0.40    2.19   1
  -7   1 -19    0.20    0.91   1
  -7   1 -18  617.52   28.83   1
  -7   1 -18  547.56   22.93   1
  -7   1 -17    8.18    1.20   1
  -7   1 -17   11.42    2.77   1
  -7   1 -16    4.58    2.40   1
  -7   1 -16   -0.79    0.69   1
  -7   1 -15   38.44    3.47   1
  -7   1 -14   13.18    2.32   1
  -7   1 -13    0.71    2.02   1
  -7   1 -12  158.00    9.30   1
  -7   1 -11    4.28    2.11   1
  -7   1 -10   18.66    3.02   1
  -7   1  -9  113.85    6.40   1
  -7   1  -8    0.00    1.00   1
  -7   1  -7   37.45    3.67   1
  -7   1  -6  126.34    8.77   1
  -7   1  -5  160.78    8.12   1
  -7   1  -4    0.40    1.40   1
  -7   1  -3  209.38   10.13   1
  -7   1  -2   86.86    5.22   1
  -7   1  -1    2.79    2.00   1
  -7   1   0  172.66    7.62   1
  -7   1   1   10.18    2.11   1
  -7   1   2    3.20    1.90   1
  -7   1   3    9.12    1.81   1
  -7   1   4   57.46    4.55   1
  -7   1   5    0.71    2.02   1
  -7   1   6   18.32    2.31   1
  -7   1   7   12.32    2.67   1
  -7   1   8    5.20    2.19   1
  -7   1   9    6.81    2.19   1
  -7   1   9    5.11    1.08   1
  -7   1  10   20.98    1.92   1
  -7   1  11   67.90    3.96   1
  -7   1  12   27.25    2.19   1
  -7   1  13   50.98    3.86   1
  -7   1  14   11.29    1.81   1
  -7   1  15  216.68   10.60   1
  -7   1  16    0.50    1.60   1
  -7   1  17    6.81    1.51   1
  -7   1  18  255.04   10.86   1
  -7   1  19   13.32    2.34   1
  -7   1  20   26.52    2.88   1
  -7   1  21   -0.30    1.90   1
  -7   1  22    1.00    1.80   1
  -7   1  37    5.29    3.59   1
  -7   1  40    3.39    4.31   1
  -7   1  41    2.50    3.79   1
  -7   1  42   29.92    6.24   1
  -7   1  43    0.10    4.35   1
  -7   1  44   -1.59    4.79   1
  -7   2 -41   12.11    5.08   1
  -7   2 -40   -0.50    4.91   1
  -7   2 -39  143.04   10.05   1
  -7   2 -38    3.61    4.52   1
  -7   2 -37    4.41    4.49   1
  -7   2 -36    1.69    2.39   1
  -7   2 -35    5.38    4.50   1
  -7   2 -35   -0.59    2.68   1
  -7   2 -34   -3.10    3.91   1
  -7   2 -33   24.80    3.09   1
  -7   2 -33   15.29    4.61   1
  -7   2 -32   -0.59    3.97   1
  -7   2 -32    1.00    2.40   1
  -7   2 -31    1.21    3.52   1
  -7   2 -30   66.42    5.87   1
  -7   2 -30   60.53    4.36   1
  -7   2 -29   -0.10    1.62   1
  -7   2 -29    0.30    3.21   1
  -7   2 -28    4.28    3.31   1
  -7   2 -28    1.10    1.81   1
  -7   2 -27    2.79    1.80   1
  -7   2 -27    1.99    3.10   1
  -7   2 -26    8.70    3.19   1
  -7   2 -25    6.81    1.72   1
  -7   2 -25    7.08    3.30   1
  -7   2 -24    7.90    3.09   1
  -7   2 -24    5.20    1.60   1
  -7   2 -23   32.60    2.51   1
  -7   2 -23   28.20    3.93   1
  -7   2 -22    0.59    1.59   1
  -7   2 -22    1.39    1.20   1
  -7   2 -21  140.90    6.65   1
  -7   2 -21  134.33    8.81   1
  -7   2 -20    2.59    2.19   1
  -7   2 -19    0.79    0.89   1
  -7   2 -19    4.28    1.90   1
  -7   2 -18   49.42    4.22   1
  -7   2 -18   46.24    2.72   1
  -7   2 -17   24.70    1.59   1
  -7   2 -17   27.98    2.96   1
  -7   2 -16    9.00    2.70   1
  -7   2 -15   76.91    5.26   1
  -7   2 -14   -0.59    1.99   1
  -7   2 -13    9.12    2.48   1
  -7   2 -12  128.60    6.58   1
  -7   2 -11    0.10    2.23   1
  -7   2 -10    0.20    2.02   1
  -7   2  -9  166.93   10.34   1
  -7   2  -8   10.11    2.29   1
  -7   2  -7    0.50    2.00   1
  -7   2  -6   28.94    3.12   1
  -7   2  -5   48.86    3.22   1
  -7   2  -4    2.50    1.90   1
  -7   2  -3  206.50    9.77   1
  -7   2  -2    1.39    1.79   1
  -7   2  -1    4.00    2.00   1
  -7   2   0   10.89    2.18   1
  -7   2   1   87.61    5.43   1
  -7   2   2    4.41    2.02   1
  -7   2   3   85.38    5.91   1
  -7   2   4    3.31    1.71   1
  -7   2   5   -1.21    1.72   1
  -7   2   6  119.90    8.76   1
  -7   2   7   37.95    3.45   1
  -7   2   8    2.59    2.19   1
  -7   2   9   92.35    6.73   1
  -7   2  10   33.76    3.37   1
  -7   2  20   14.36    2.27   1
  -7   2  22    2.99    1.90   1
  -7   2  23   23.72    3.21   1
  -7   2  24    1.21    2.00   1
  -7   2  26    9.00    2.82   1
  -7   2  27  122.99    7.98   1
  -7   2  28    1.10    1.70   1
  -7   2  29    1.99    2.79   1
  -7   2  30   31.25    4.25   1
  -7   2  33   55.95    5.68   1
  -7   2  34    0.59    3.77   1
  -7   2  35    4.41    3.32   1
  -7   3 -40   -3.39    5.59   1
  -7   3 -39   19.80    6.23   1
  -7   3 -38    2.79    3.81   1
  -7   3 -37    7.67    5.21   1
  -7   3 -36   -4.28    4.39   1
  -7   3 -35    6.10    4.30   1
  -7   3 -34    2.40    3.01   1
  -7   3 -33   40.96    6.53   1
  -7   3 -32    9.61    3.91   1
  -7   3 -31   -1.49    2.98   1
  -7   3 -30   -0.50    2.41   1
  -7   3 -29   -0.71    3.31   1
  -7   3 -28   -0.40    2.99   1
  -7   3 -27    1.59    2.19   1
  -7   3 -26   -1.10    3.11   1
  -7   3 -25    0.59    3.48   1
  -7   3 -24   69.89    4.01   1
  -7   3 -24   69.22    5.32   1
  -7   3 -23   64.16    5.93   1
  -7   3 -23   67.73    3.79   1
  -7   3 -22   29.05    3.45   1
  -7   3 -21   43.16    4.99   1
  -7   3 -20   11.83    3.23   1
  -7   3 -19   12.67    3.06   1
  -7   3 -18   35.16    3.44   1
  -7   3 -17   20.34    1.44   1
  -7   3 -17   20.61    3.09   1
  -7   3 -16   10.69    1.31   1
  -7   3 -16    7.02    2.28   1
  -7   3 -15   81.54    5.96   1
  -7   3 -14   27.35    3.66   1
  -7   3 -13    9.80    2.63   1
  -7   3 -12   34.46    3.52   1
  -7   3 -11    4.71    2.00   1
  -7   3 -10   -2.50    2.09   1
  -7   3  -9  502.21   28.68   1
  -7   3  -8    3.69    2.38   1
  -7   3  -7    0.40    1.99   1
  -7   3  -6   -1.69    2.00   1
  -7   3  -5   13.99    2.92   1
  -7   3  -4    4.20    2.21   1
  -7   3  -3  209.67    9.27   1
  -7   3  -2   60.37    4.35   1
  -7   3  -1   10.50    2.27   1
  -7   3   0   42.38    3.91   1
  -7   3   1   29.38    3.25   1
  -7   3   2    6.92    2.10   1
  -7   3   3    1.99    1.89   1
  -7   3   4    2.59    1.90   1
  -7   3   5    9.80    2.13   1
  -7   3   6    4.80    2.28   1
  -7   3   7   28.52    3.52   1
  -7   3   8    9.61    2.29   1
  -7   3   9   23.04    2.50   1
  -7   3  10   26.94    3.22   1
  -7   3  11   -0.50    2.00   1
  -7   4 -39    5.90    6.03   1
  -7   4 -38    5.20    3.60   1
  -7   4 -37    3.20    5.01   1
  -7   4 -36    5.20    4.88   1
  -7   4 -35    1.00    4.90   1
  -7   4 -34    0.90    2.39   1
  -7   4 -33   11.97    4.57   1
  -7   4 -32   -3.39    3.90   1
  -7   4 -31   -1.39    3.80   1
  -7   4 -30   30.14    5.05   1
  -7   4 -29    4.20    3.89   1
  -7   4 -28    1.49    2.29   1
  -7   4 -27    7.51    3.51   1
  -7   4 -26   36.12    4.33   1
  -7   4 -25    9.18    3.51   1
  -7   4 -24   -1.10    2.90   1
  -7   4 -23    1.90    2.59   1
  -7   4 -22    5.81    2.99   1
  -7   4 -21   12.11    3.97   1
  -7   4 -20    0.59    3.28   1
  -7   4 -19    4.88    2.92   1
  -7   4 -18   22.28    3.96   1
  -7   4 -17    7.02    3.13   1
  -7   4 -16   -1.90    2.21   1
  -7   4 -15   44.76    4.55   1
  -7   4 -14   21.72    3.63   1
  -7   4 -13    0.79    2.19   1
  -7   4 -12    0.90    2.20   1
  -7   4 -11    7.62    2.43   1
  -7   4 -10    7.29    2.59   1
  -7   4  -9  105.06    6.36   1
  -7   4  -8   35.05    3.43   1
  -7   4  -7   11.90    2.07   1
  -7   4  -6  111.94    6.35   1
  -7   4  -5   26.63    3.10   1
  -7   4  -4    1.30    1.80   1
  -7   4  -3  126.11    7.19   1
  -7   4  -2    1.21    2.11   1
  -7   4  -1    3.31    2.29   1
  -7   4   0    8.01    2.32   1
  -7   4   1   24.50    3.17   1
  -7   4   2    0.30    1.90   1
  -7   4   3   78.15    4.95   1
  -7   4   4   28.62    3.53   1
  -7   4   5    1.90    2.01   1
  -7   4   6   21.81    2.90   1
  -7   4   7    2.79    2.00   1
  -7   4   8    3.50    1.91   1
  -7   4   9   39.56    3.65   1
  -7   4  10   16.48    2.68   1
  -7   4  11    6.71    2.49   1
  -7   4  12  183.60   10.30   1
  -7   5 -37    1.39    4.89   1
  -7   5 -36   21.34    6.47   1
  -7   5 -35   -2.31    3.40   1
  -7   5 -34    0.90    4.41   1
  -7   5 -33   16.00    4.88   1
  -7   5 -32    1.99    3.78   1
  -7   5 -31    4.80    4.99   1
  -7   5 -30    0.30    2.51   1
  -7   5 -29    3.80    3.32   1
  -7   5 -28    1.80    3.48   1
  -7   5 -27    0.79    2.69   1
  -7   5 -26   20.16    3.77   1
  -7   5 -25    2.69    3.38   1
  -7   5 -24    4.08    3.27   1
  -7   5 -23    1.99    2.99   1
  -7   5 -22    6.30    3.01   1
  -7   5 -21   28.94    4.30   1
  -7   5 -20   13.62    3.17   1
  -7   5 -19    3.31    2.69   1
  -7   5 -18   33.64    3.94   1
  -7   5 -17   14.52    3.20   1
  -7   5 -16    4.71    2.39   1
  -7   5 -15    7.90    2.59   1
  -7   5 -14   -0.10    1.52   1
  -7   5 -13   -0.90    2.11   1
  -7   5 -12   15.52    2.92   1
  -7   5 -11    7.08    2.82   1
  -7   5 -10   12.18    2.58   1
  -7   5  -9   36.00    3.60   1
  -7   5  -8    4.41    2.52   1
  -7   5  -7   14.06    2.78   1
  -7   5  -6    5.29    2.81   1
  -7   5  -5    1.49    1.68   1
  -7   5  -4   23.62    2.82   1
  -7   5  -3   81.18    6.49   1
  -7   5  -2  132.71    8.06   1
  -7   5  -1    5.52    2.30   1
  -7   5   0   38.19    3.71   1
  -7   5   1    1.59    2.19   1
  -7   5   2    4.08    1.98   1
  -7   5   3    0.20    1.31   1
  -7   5   4   23.91    2.93   1
  -7   5   5   -0.10    2.12   1
  -7   5   6    1.30    2.01   1
  -7   5   7   59.14    4.46   1
  -7   5   8   -0.40    2.09   1
  -7   5   9  349.32   20.19   1
  -7   5  10  107.74    6.44   1
  -7   5  11   13.10    2.61   1
  -7   5  12   21.34    3.05   1
  -7   5  13  219.04   12.73   1
  -7   6 -35   -6.60    2.98   1
  -7   6 -34    4.49    4.49   1
  -7   6 -33    0.10    4.65   1
  -7   6 -32    2.19    2.90   1
  -7   6 -31    5.29    5.01   1
  -7   6 -30    6.92    2.89   1
  -7   6 -29    3.61    4.22   1
  -7   6 -28   -1.39    2.50   1
  -7   6 -27   -0.50    3.51   1
  -7   6 -26    4.49    3.31   1
  -7   6 -25   -1.69    3.09   1
  -7   6 -24   48.30    4.86   1
  -7   6 -23    7.29    3.08   1
  -7   6 -22   -0.40    1.99   1
  -7   6 -21    6.50    2.09   1
  -7   6 -20   16.97    2.97   1
  -7   6 -19   -3.10    2.82   1
  -7   6 -18    0.30    3.01   1
  -7   6 -17    4.80    2.89   1
  -7   6 -16    6.10    2.82   1
  -7   6 -15    2.10    2.90   1
  -7   6 -14    0.79    2.69   1
  -7   6 -13    0.20    1.41   1
  -7   6 -12  131.33    8.48   1
  -7   6 -11    7.51    2.41   1
  -7   6 -10   19.71    3.29   1
  -7   6  -9   82.63    6.73   1
  -7   6  -8    1.80    2.30   1
  -7   6  -7    0.30    1.41   1
  -7   6  -6  293.44   13.36   1
  -7   6  -5    1.39    2.01   1
  -7   6  -4   12.11    2.58   1
  -7   6  -3   48.02    4.57   1
  -7   6  -2  101.81    5.85   1
  -7   6  -1   13.76    2.82   1
  -7   6   0   11.22    2.81   1
  -7   6   1   18.32    2.91   1
  -7   6   2    7.18    2.79   1
  -7   6   3   10.50    2.59   1
  -7   6   4    7.90    2.42   1
  -7   6   5   16.97    3.13   1
  -7   6   7   90.06    5.50   1
  -7   6   8   18.23    2.90   1
  -7   6   9    6.50    2.29   1
  -7   6  10    2.31    2.10   1
  -7   6  11    4.58    2.40   1
  -7   6  12  268.30   16.38   1
  -7   6  13   36.84    3.76   1
  -7   6  14    2.31    2.31   1
  -7   7 -34  -10.82    6.19   1
  -7   7 -33   -6.81    3.29   1
  -7   7 -32   -4.41    4.20   1
  -7   7 -31    3.39    4.20   1
  -7   7 -30   11.90    4.49   1
  -7   7 -29    7.02    4.08   1
  -7   7 -28   10.11    5.53   1
  -7   7 -27    2.99    3.29   1
  -7   7 -26    3.61    3.99   1
  -7   7 -25   -1.30    4.10   1
  -7   7 -24   20.79    4.38   1
  -7   7 -23   15.60    4.27   1
  -7   7 -22   -0.59    3.48   1
  -7   7 -21    0.79    3.19   1
  -7   7 -20   -0.50    3.21   1
  -7   7 -19    1.10    3.00   1
  -7   7 -18   78.85    6.57   1
  -7   7 -17   -1.69    3.09   1
  -7   7 -16   -2.40    3.10   1
  -7   7 -15   59.75    5.87   1
  -7   7 -14   20.98    3.76   1
  -7   7 -13    2.40    2.60   1
  -7   7 -12    0.40    2.68   1
  -7   7 -11   11.63    3.00   1
  -7   7 -10   -0.79    2.58   1
  -7   7  -9    1.39    2.38   1
  -7   7  -8   -0.71    2.50   1
  -7   7  -7    4.58    2.70   1
  -7   7  -6    1.00    2.60   1
  -7   7  -5    9.61    2.91   1
  -7   7  -4   25.10    3.41   1
  -7   7  -3   47.61    4.28   1
  -7   7  -2   45.43    4.18   1
  -7   7  -1    7.29    2.81   1
  -7   7   0   97.02    6.11   1
  -7   7   1   -1.00    2.30   1
  -7   7   2   13.10    2.97   1
  -7   7   3    1.99    2.40   1
  -7   7   4   16.97    2.64   1
  -7   7   5    3.50    2.51   1
  -7   7   6  150.55    9.08   1
  -7   7   7    4.41    2.39   1
  -7   7   8    3.61    2.32   1
  -7   7  10   42.77    4.05   1
  -7   7  11    4.20    2.58   1
  -7   7  12  127.69    9.27   1
  -7   7  13    3.69    2.61   1
  -7   7  14    4.20    2.50   1
  -7   8 -32    6.71   15.70   1
  -7   8 -31    2.59    4.99   1
  -7   8 -30   14.06    4.42   1
  -7   8 -29   -7.62    4.69   1
  -7   8 -28    0.79    3.08   1
  -7   8 -27    4.88    4.11   1
  -7   8 -26    0.50    4.52   1
  -7   8 -25    2.99    3.98   1
  -7   8 -24   22.09    4.14   1
  -7   8 -23    1.39    3.68   1
  -7   8 -22    9.30    4.21   1
  -7   8 -19   -0.71    2.30   1
  -7   8 -18   -2.10    3.51   1
  -7   8 -17    5.81    3.18   1
  -7   8 -16    0.40    2.89   1
  -7   8 -15   31.25    5.03   1
  -7   8 -14   11.70    3.90   1
  -7   8 -13    0.50    3.11   1
  -7   8 -12   37.45    3.79   1
  -7   8 -11   34.57    5.41   1
  -7   8 -10    3.20    2.79   1
  -7   8  -9    0.10    3.03   1
  -7   8  -8   45.16    4.84   1
  -7   8  -7   -4.71    2.60   1
  -7   8  -6    5.52    2.73   1
  -7   8  -5   16.56    3.26   1
  -7   8  -4   -1.21    2.51   1
  -7   8  -3   17.31    2.83   1
  -7   8  -2   14.36    2.88   1
  -7   8  -1    2.69    2.69   1
  -7   8   0   40.96    3.97   1
  -7   8   1   -1.80    2.49   1
  -7   8   2    5.20    2.78   1
  -7   8   3    0.71    2.30   1
  -7   8   4   -1.21    2.42   1
  -7   8   5   17.89    2.88   1
  -7   8   6   -1.39    2.29   1
  -7   8   7    3.10    2.60   1
  -7   8   8    1.10    2.60   1
  -7   8   9   16.56    3.26   1
  -7   8  11   27.14    3.75   1
  -7   8  12   42.51    4.43   1
  -7   8  13   20.07    3.49   1
  -7   8  14    2.10    2.81   1
  -7   9 -28    4.80    4.69   1
  -7   9 -27   20.79    5.56   1
  -7   9 -26    3.10    4.61   1
  -7   9 -25    4.41    4.62   1
  -7   9 -24    2.19    3.20   1
  -7   9 -23    0.71    2.81   1
  -7   9 -22    3.10    4.79   1
  -7   9 -21    4.80    4.12   1
  -7   9 -20    4.80    3.99   1
  -7   9 -19   -0.10    2.53   1
  -7   9 -18   20.07    4.84   1
  -7   9 -17    8.82    4.22   1
  -7   9 -16    4.41    4.12   1
  -7   9 -15   69.72    6.68   1
  -7   9 -14   35.76    5.14   1
  -7   9 -13   -0.30    3.72   1
  -7   9 -12    4.08    3.19   1
  -7   9 -11   10.30    3.53   1
  -7   9 -10   21.34    3.97   1
  -7   9  -9   61.78    5.34   1
  -7   9  -8  170.56    9.66   1
  -7   9  -7    5.29    2.99   1
  -7   9  -6   19.18    3.42   1
  -7   9  -5   14.82    3.46   1
  -7   9  -4   10.18    3.57   1
  -7   9  -3   30.03    3.95   1
  -7   9  -2    3.61    3.00   1
  -7   9  -1    4.08    2.99   1
  -7   9   0   38.94    4.37   1
  -7   9   2    0.00    1.00   1
  -7   9   3    5.62    2.51   1
  -7   9   4    5.02    2.51   1
  -7   9   5   -0.90    2.70   1
  -7   9   6    3.88    2.80   1
  -7   9   7    1.21    3.01   1
  -7   9   8    2.79    2.71   1
  -7   9   9   76.21    6.46   1
  -7  10 -26   -3.50    3.52   1
  -7  10 -25   -1.59    4.38   1
  -7  10 -24   -2.10    4.61   1
  -7  10 -23    5.02    5.51   1
  -7  10 -22   -4.20    4.80   1
  -7  10 -21   61.94    7.24   1
  -7  10 -20    7.78    4.58   1
  -7  10 -19   -4.08    4.40   1
  -7  10 -18   -0.71    4.12   1
  -7  10 -16   19.54    4.86   1
  -7  10 -15  108.37    7.91   1
  -7  10 -14   10.63    3.52   1
  -7  10 -13    0.30    3.52   1
  -7  10 -12    2.89    3.91   1
  -7  10 -11    7.78    3.79   1
  -7  10 -10   -3.88    3.51   1
  -7  10  -9   -0.40    2.99   1
  -7  10  -8    3.31    3.60   1
  -7  10  -7   -0.71    3.51   1
  -7  10  -6   15.52    4.33   1
  -7  10  -5    0.79    2.88   1
  -7  10  -4   19.36    4.14   1
  -7  10  -3   29.48    4.13   1
  -7  10  -2    5.90    3.21   1
  -7  10  -1    0.20    3.12   1
  -7  10   0    8.70    3.60   1
  -7  10   1   -1.49    3.29   1
  -7  10   2   22.56    3.89   1
  -7  11 -22    7.62    5.08   1
  -7  11 -21   40.96    6.91   1
  -7  11 -20    1.59    5.09   1
  -7  11 -19   14.29    5.52   1
  -7  11 -18   60.68    7.63   1
  -7  11 -17   -4.71    4.30   1
  -7  11 -16    0.30    4.42   1
  -7  11 -15   23.52    5.34   1
  -7  11 -14   35.88   37.02   1
  -7  11 -13    1.10    4.09   1
  -7  11 -12    2.19    4.29   1
  -7  11 -11    7.08    4.31   1
  -7  11 -10   -2.69    3.90   1
  -7  11  -9   36.60    5.08   1
  -7  11  -8    3.88    4.57   1
  -7  11  -7    0.00    1.00   1
  -7  11  -6   15.13    3.97   1
  -7  11  -5    5.52    3.90   1
  -7  12 -16   14.36    4.70   1
  -7  12 -15    6.00    5.39   1
  -7  12 -14    5.71    4.92   1
  -7  12 -13    1.80    3.81   1
  -6 -13 -14    2.69    5.28   1
  -6 -13 -13   10.37    4.77   1
  -6 -13 -12   10.37    5.80   1
  -6 -13 -11   -1.30    4.20   1
  -6 -13 -10    8.18    3.72   1
  -6 -13  -9   29.05    6.14   1
  -6 -13  -8    5.62    4.60   1
  -6 -13  -7    5.62    5.12   1
  -6 -13  -6   55.35    7.44   1
  -6 -13  -5    7.40    5.00   1
  -6 -13  -4   -1.69    4.39   1
  -6 -13  -3    1.30    4.40   1
  -6 -13  -2    1.59    4.18   1
  -6 -13  -1   19.10    5.42   1
  -6 -13   0    3.31    3.09   1
  -6 -13   1    3.88    4.81   1
  -6 -13   2    2.69    4.49   1
  -6 -13   3   10.18    4.91   1
  -6 -13   4    9.67    5.10   1
  -6 -13   5   -4.88    4.60   1
  -6 -13   6   27.25    5.53   1
  -6 -13   7    1.39    4.48   1
  -6 -13   8    3.50    4.60   1
  -6 -13   9   -0.71    5.02   1
  -6 -13  10    5.71    4.40   1
  -6 -13  11   11.49    4.88   1
  -6 -13  12   17.89    4.91   1
  -6 -13  13   24.11    5.40   1
  -6 -13  14   15.13    5.37   1
  -6 -13  15    2.79    4.98   1
  -6 -13  16   -6.50    5.41   1
  -6 -12 -21   19.62    5.32   1
  -6 -12 -20   11.83    5.78   1
  -6 -12 -19   11.70    4.99   1
  -6 -12 -18   15.37    5.10   1
  -6 -12 -17   -4.41    4.41   1
  -6 -12 -16    1.10    3.91   1
  -6 -12 -15    6.00    3.82   1
  -6 -12 -14   14.21    4.00   1
  -6 -12 -13    3.88    3.90   1
  -6 -12 -12   10.30    4.11   1
  -6 -12 -11   -0.20    4.02   1
  -6 -12 -10    2.59    3.99   1
  -6 -12  -9   19.18    4.82   1
  -6 -12  -8    1.80    3.89   1
  -6 -12  -7    4.88    3.98   1
  -6 -12  -6    3.80    3.71   1
  -6 -12  -5    3.39    3.97   1
  -6 -12  -4    0.20    3.62   1
  -6 -12  -3    7.90    4.22   1
  -6 -12  -2    7.62    4.03   1
  -6 -12  -1   -0.59    3.57   1
  -6 -12   0   30.58    5.09   1
  -6 -12   1    9.30    3.42   1
  -6 -12   2   -1.69    3.48   1
  -6 -12   3   19.62    4.78   1
  -6 -12   4   17.81    5.06   1
  -6 -12   5   12.32    4.70   1
  -6 -12   6   41.86    6.21   1
  -6 -12   7    2.50    4.49   1
  -6 -12   8    5.52    4.32   1
  -6 -12   9    4.80    3.68   1
  -6 -12  10    0.50    3.01   1
  -6 -12  11    3.20    4.51   1
  -6 -12  12    8.29    4.38   1
  -6 -12  13   -1.30    4.40   1
  -6 -12  14    6.30    4.62   1
  -6 -12  15    1.39    4.48   1
  -6 -12  16    1.10    4.51   1
  -6 -12  17    9.12    4.41   1
  -6 -12  18   19.98    6.08   1
  -6 -12  19   11.09    5.33   1
  -6 -12  20    4.88    5.48   1
  -6 -12  21   28.20    5.73   1
  -6 -12  22   -0.79    5.07   1
  -6 -12  23   12.53    5.52   1
  -6 -11 -26   -0.71    4.42   1
  -6 -11 -25    2.50    3.89   1
  -6 -11 -24   13.62    4.43   1
  -6 -11 -23    5.29    4.69   1
  -6 -11 -22    2.10    4.21   1
  -6 -11 -21   -0.30    4.21   1
  -6 -11 -20   16.16    4.50   1
  -6 -11 -19   -2.69    4.10   1
  -6 -11 -18    0.30    4.32   1
  -6 -11 -17   -0.10    3.74   1
  -6 -11 -16   11.49    4.81   1
  -6 -11 -15   30.80    5.33   1
  -6 -11 -14   14.52    4.42   1
  -6 -11 -13   20.61    4.18   1
  -6 -11 -12   14.67    4.29   1
  -6 -11 -11    1.69    3.38   1
  -6 -11 -10    1.69    3.48   1
  -6 -11  -9    1.69    3.80   1
  -6 -11  -8    0.50    2.91   1
  -6 -11  -7   16.73    3.60   1
  -6 -11  -6   63.52    7.01   1
  -6 -11  -5   20.16    3.68   1
  -6 -11  -4   -1.99    2.99   1
  -6 -11  -3   46.10    5.43   1
  -6 -11  -2    1.49    3.10   1
  -6 -11  -1    7.08    3.51   1
  -6 -11   0   -2.31    2.92   1
  -6 -11   1    9.18    2.79   1
  -6 -11   2   12.82    3.44   1
  -6 -11   3   97.22    7.49   1
  -6 -11   4   -1.21    2.90   1
  -6 -11   5    1.99    2.28   1
  -6 -11   6    6.71    3.63   1
  -6 -11   7    0.79    3.08   1
  -6 -11   8   14.21    3.77   1
  -6 -11   9   -1.30    2.90   1
  -6 -11  10    0.10    3.74   1
  -6 -11  11   41.22    6.03   1
  -6 -11  12   58.98    6.14   1
  -6 -11  13    3.20    3.62   1
  -6 -11  14    3.31    2.80   1
  -6 -11  15    4.88    4.11   1
  -6 -11  16    5.71    4.49   1
  -6 -11  17    0.90    4.10   1
  -6 -11  18    9.99    3.79   1
  -6 -11  19    1.39    4.18   1
  -6 -11  20    1.00    4.40   1
  -6 -11  21   -0.90    3.91   1
  -6 -11  22   -1.30    3.81   1
  -6 -11  23    0.71    3.01   1
  -6 -11  24   -3.20    3.19   1
  -6 -11  25    3.20    3.29   1
  -6 -11  26   18.58    4.14   1
  -6 -11  27    6.00    4.80   1
  -6 -11  28   -0.10    4.65   1
  -6 -10 -30    5.02    3.23   1
  -6 -10 -29    1.39    4.58   1
  -6 -10 -28    5.11    4.61   1
  -6 -10 -27  109.62    9.00   1
  -6 -10 -26    9.67    4.91   1
  -6 -10 -25   -0.90    4.01   1
  -6 -10 -24   10.18    4.27   1
  -6 -10 -23   -3.50    3.81   1
  -6 -10 -22    8.12    3.93   1
  -6 -10 -21   -1.30    3.31   1
  -6 -10 -20    3.80    3.39   1
  -6 -10 -19   -0.71    3.51   1
  -6 -10 -18    5.62    3.70   1
  -6 -10 -17   10.37    3.67   1
  -6 -10 -16    4.80    2.50   1
  -6 -10 -15   13.32    4.38   1
  -6 -10 -14    2.10    3.02   1
  -6 -10 -13    1.80    3.00   1
  -6 -10 -12   -2.89    2.89   1
  -6 -10 -11    3.88    2.99   1
  -6 -10 -10    8.82    3.03   1
  -6 -10  -9  250.91   19.96   1
  -6 -10  -8    3.10    2.82   1
  -6 -10  -7   -1.00    2.70   1
  -6 -10  -6    1.30    2.90   1
  -6 -10  -5   10.37    3.48   1
  -6 -10  -4   17.89    3.47   1
  -6 -10  -3    6.20    2.79   1
  -6 -10  -2    0.59    3.08   1
  -6 -10  -1    2.19    2.60   1
  -6 -10   0    3.50    2.51   1
  -6 -10   1    0.10    2.73   1
  -6 -10   2    0.30    2.92   1
  -6 -10   3   -1.59    2.60   1
  -6 -10   4    9.61    2.91   1
  -6 -10   5   -0.30    2.71   1
  -6 -10   6   19.27    4.04   1
  -6 -10   7    5.81    3.08   1
  -6 -10   8    3.61    2.32   1
  -6 -10   9   42.64    4.96   1
  -6 -10  10   13.32    4.09   1
  -6 -10  11   14.82    4.31   1
  -6 -10  12   11.02    3.32   1
  -6 -10  13    8.29    3.97   1
  -6 -10  14    7.29    2.81   1
  -6 -10  15   17.72    3.79   1
  -6 -10  16   -2.79    3.01   1
  -6 -10  17   -3.31    3.09   1
  -6 -10  18    0.40    2.19   1
  -6 -10  19    1.99    3.98   1
  -6 -10  20    2.10    3.71   1
  -6 -10  21    0.59    3.88   1
  -6 -10  22    5.62    4.31   1
  -6 -10  23    3.20    4.30   1
  -6 -10  24   75.34    8.51   1
  -6 -10  25   33.76    5.69   1
  -6 -10  26    2.89    2.79   1
  -6 -10  27   20.52    4.17   1
  -6 -10  28   14.36    3.87   1
  -6 -10  29    0.50    3.31   1
  -6 -10  30   -2.69    4.89   1
  -6 -10  31   37.70    7.12   1
  -6 -10  32   -1.39    4.89   1
  -6  -9 -33   60.37    7.61   1
  -6  -9 -32   16.81    5.17   1
  -6  -9 -30    0.10    3.85   1
  -6  -9 -29   12.11    4.73   1
  -6  -9 -28    5.81    4.00   1
  -6  -9 -27   20.88    4.02   1
  -6  -9 -26   -1.99    3.69   1
  -6  -9 -25   -0.30    3.11   1
  -6  -9 -24   12.89    3.52   1
  -6  -9 -23    1.80    2.89   1
  -6  -9 -22    0.71    2.60   1
  -6  -9 -21  138.06   11.98   1
  -6  -9 -20    4.00    3.40   1
  -6  -9 -19   -5.02    2.60   1
  -6  -9 -18   22.56    3.70   1
  -6  -9 -17    5.71    3.39   1
  -6  -9 -16   37.82    4.18   1
  -6  -9 -15  105.68   10.90   1
  -6  -9 -14   -1.21    2.90   1
  -6  -9 -13    4.20    2.91   1
  -6  -9 -12    0.40    2.49   1
  -6  -9 -11    5.11    2.49   1
  -6  -9 -10    0.20    2.72   1
  -6  -9  -9   -4.08    2.38   1
  -6  -9  -8    0.20    2.62   1
  -6  -9  -7    1.10    2.79   1
  -6  -9  -6   46.24    4.08   1
  -6  -9  -5   -2.19    2.60   1
  -6  -9  -4   13.10    3.33   1
  -6  -9  -3  230.74   11.54   1
  -6  -9  -2    6.30    2.61   1
  -6  -9  -1    2.99    2.28   1
  -6  -9   0    0.40    2.09   1
  -6  -9   1    5.71    2.49   1
  -6  -9   2    0.20    2.62   1
  -6  -9   3   28.84    4.62   1
  -6  -9   4    2.59    2.61   1
  -6  -9   5    1.00    2.50   1
  -6  -9   6   12.82    3.22   1
  -6  -9   7    4.08    2.71   1
  -6  -9   8   -1.39    2.60   1
  -6  -9   9    1.21    2.82   1
  -6  -9  10   43.30    4.34   1
  -6  -9  11   13.91    2.98   1
  -6  -9  12    2.89    1.80   1
  -6  -9  13    4.58    3.30   1
  -6  -9  14    3.50    3.10   1
  -6  -9  15    6.50    3.42   1
  -6  -9  16    6.81    2.92   1
  -6  -9  17    6.60    2.42   1
  -6  -9  18   11.22    3.68   1
  -6  -9  19   13.10    3.91   1
  -6  -9  20   14.59    3.59   1
  -6  -9  21   47.89    5.26   1
  -6  -9  22    2.50    3.29   1
  -6  -9  23   20.52    4.53   1
  -6  -9  24   -0.71    3.31   1
  -6  -9  25   12.32    4.07   1
  -6  -9  26   12.53    3.89   1
  -6  -9  27   43.69    5.95   1
  -6  -9  28   11.63    4.50   1
  -6  -9  29    2.19    4.29   1
  -6  -9  30   10.89    5.02   1
  -6  -9  31    5.81    4.82   1
  -6  -9  32   11.42    5.68   1
  -6  -9  33    2.79    5.08   1
  -6  -9  34    3.20    5.01   1
  -6  -8 -36    1.99    4.17   1
  -6  -8 -35    4.71    3.91   1
  -6  -8 -34    0.90    3.91   1
  -6  -8 -33   -2.89    3.81   1
  -6  -8 -32    2.79    3.61   1
  -6  -8 -31    3.61    3.72   1
  -6  -8 -30   44.76    5.75   1
  -6  -8 -29    0.50    3.11   1
  -6  -8 -28    7.02    3.92   1
  -6  -8 -27   23.72    4.19   1
  -6  -8 -26    5.81    3.42   1
  -6  -8 -25   -2.19    2.40   1
  -6  -8 -24    4.41    2.69   1
  -6  -8 -23    4.08    2.91   1
  -6  -8 -22    2.99    2.70   1
  -6  -8 -21    4.80    2.98   1
  -6  -8 -20   -1.99    2.48   1
  -6  -8 -19    1.39    2.50   1
  -6  -8 -18   19.36    3.26   1
  -6  -8 -17    8.01    2.60   1
  -6  -8 -16   10.50    2.92   1
  -6  -8 -15  144.48   10.82   1
  -6  -8 -14   -0.40    2.09   1
  -6  -8 -13    5.02    2.28   1
  -6  -8 -12    0.40    2.29   1
  -6  -8 -11   13.99    2.69   1
  -6  -8 -10   14.90    3.09   1
  -6  -8  -9   21.62    2.88   1
  -6  -8  -8   26.73    3.31   1
  -6  -8  -7    1.80    2.09   1
  -6  -8  -6    0.20    2.11   1
  -6  -8  -5    4.58    2.18   1
  -6  -8  -4    2.31    2.10   1
  -6  -8  -3  200.79    9.07   1
  -6  -8  -2   57.76    4.26   1
  -6  -8  -1   40.20    4.06   1
  -6  -8   0    4.28    2.19   1
  -6  -8   1    9.61    2.48   1
  -6  -8   2    2.40    2.11   1
  -6  -8   3    7.02    2.38   1
  -6  -8   4   30.69    3.32   1
  -6  -8   5   32.26    3.86   1
  -6  -8   6   -0.10    2.23   1
  -6  -8   7   15.60    3.08   1
  -6  -8   8    3.20    2.40   1
  -6  -8   9  157.50    8.53   1
  -6  -8  10   10.18    2.81   1
  -6  -8  11    0.00    1.00   1
  -6  -8  12   26.21    3.48   1
  -6  -8  13    0.50    1.90   1
  -6  -8  14   -1.59    2.90   1
  -6  -8  15   32.49    3.88   1
  -6  -8  16   -0.71    2.70   1
  -6  -8  17   -5.02    2.60   1
  -6  -8  18    5.29    2.90   1
  -6  -8  19    0.30    3.01   1
  -6  -8  20    0.20    2.02   1
  -6  -8  21   11.83    3.58   1
  -6  -8  22    2.79    3.11   1
  -6  -8  23   18.92    4.78   1
  -6  -8  24   47.06    6.04   1
  -6  -8  25    4.08    2.30   1
  -6  -8  26    1.30    2.60   1
  -6  -8  27   12.60    4.97   1
  -6  -8  28   35.40    5.35   1
  -6  -8  29   41.86    5.43   1
  -6  -8  30    1.59    3.48   1
  -6  -8  31    3.10    2.60   1
  -6  -8  32    0.71    2.70   1
  -6  -8  33   13.62    4.80   1
  -6  -8  34   -1.59    4.59   1
  -6  -8  35   -4.71    4.69   1
  -6  -8  36   30.14    5.60   1
  -6  -8  38   -6.71    5.02   1
  -6  -7 -38    0.59    4.08   1
  -6  -7 -37    4.58    3.81   1
  -6  -7 -36    9.99    3.79   1
  -6  -7 -35   -1.39    3.80   1
  -6  -7 -34   13.32    4.23   1
  -6  -7 -33   17.47    4.10   1
  -6  -7 -32    0.59    3.28   1
  -6  -7 -31    3.61    3.31   1
  -6  -7 -30   30.14    4.72   1
  -6  -7 -29    9.42    3.62   1
  -6  -7 -28    1.59    2.90   1
  -6  -7 -27    2.69    3.38   1
  -6  -7 -26   -0.71    2.70   1
  -6  -7 -25    2.40    2.79   1
  -6  -7 -24   13.99    3.59   1
  -6  -7 -23   -1.99    2.28   1
  -6  -7 -22   23.43    3.19   1
  -6  -7 -21   28.52    3.20   1
  -6  -7 -20    4.41    2.31   1
  -6  -7 -19    1.69    2.39   1
  -6  -7 -18    6.40    2.58   1
  -6  -7 -17    0.79    1.89   1
  -6  -7 -16   -1.59    1.89   1
  -6  -7 -15    6.20    1.89   1
  -6  -7 -14   -1.30    1.89   1
  -6  -7 -13   31.25    3.24   1
  -6  -7 -12   63.84    4.79   1
  -6  -7 -11   19.98    2.59   1
  -6  -7 -10    2.69    1.80   1
  -6  -7  -9   45.43    4.04   1
  -6  -7  -8    9.99    2.21   1
  -6  -7  -7   15.21    2.73   1
  -6  -7  -6  389.27   16.97   1
  -6  -7  -5   30.80    3.00   1
  -6  -7  -4   -0.90    1.71   1
  -6  -7  -3   91.78    6.71   1
  -6  -7  -2   14.82    2.31   1
  -6  -7  -1   -0.40    1.69   1
  -6  -7   0   -0.71    1.51   1
  -6  -7   1   23.23    2.41   1
  -6  -7   2    3.10    2.01   1
  -6  -7   3    4.58    2.01   1
  -6  -7   4   11.22    2.21   1
  -6  -7   5    0.20    1.71   1
  -6  -7   6  171.61    9.17   1
  -6  -7   7    0.20    1.81   1
  -6  -7   8   14.90    2.16   1
  -6  -7   9    3.10    2.18   1
  -6  -7  10   82.08    5.44   1
  -6  -7  11   66.10    4.23   1
  -6  -7  12   27.88    3.27   1
  -6  -7  13   10.30    2.63   1
  -6  -7  14   21.81    3.18   1
  -6  -7  15  311.17   15.88   1
  -6  -7  16   68.56    5.46   1
  -6  -7  17   21.62    3.72   1
  -6  -7  18    6.20    2.69   1
  -6  -7  19    1.39    2.38   1
  -6  -7  20   -1.59    1.89   1
  -6  -7  21    3.88    2.80   1
  -6  -7  22    0.59    2.68   1
  -6  -7  23    4.49    2.80   1
  -6  -7  24   18.32    3.00   1
  -6  -7  25   17.81    4.30   1
  -6  -7  26    3.39    3.39   1
  -6  -7  27    6.92    3.10   1
  -6  -7  28   -1.30    3.10   1
  -6  -7  29   30.25    4.84   1
  -6  -7  30   64.64    6.59   1
  -6  -7  31    0.10    3.95   1
  -6  -7  32    3.31    2.69   1
  -6  -7  33    4.49    4.11   1
  -6  -7  34   -1.69    4.29   1
  -6  -7  35   -2.99    3.91   1
  -6  -7  36   14.82    5.70   1
  -6  -7  37    5.62    3.51   1
  -6  -7  38    7.62    5.19   1
  -6  -7  39    3.69    4.88   1
  -6  -7  40   68.23    9.25   1
  -6  -6 -40    9.67    4.91   1
  -6  -6 -39   15.21    4.52   1
  -6  -6 -38    7.08    4.89   1
  -6  -6 -37    6.92    4.00   1
  -6  -6 -36  104.65    9.00   1
  -6  -6 -35    8.88    3.70   1
  -6  -6 -34    1.00    3.40   1
  -6  -6 -33    4.80    3.42   1
  -6  -6 -32    1.90    2.90   1
  -6  -6 -31    0.90    3.31   1
  -6  -6 -30    0.90    2.91   1
  -6  -6 -29    2.99    2.91   1
  -6  -6 -28    1.21    2.62   1
  -6  -6 -27    3.20    3.29   1
  -6  -6 -26    2.40    2.60   1
  -6  -6 -25    4.00    2.28   1
  -6  -6 -24  111.94    6.56   1
  -6  -6 -23   23.23    3.37   1
  -6  -6 -22   -2.19    2.19   1
  -6  -6 -21   36.60    3.27   1
  -6  -6 -20    7.29    2.38   1
  -6  -6 -19    1.90    2.01   1
  -6  -6 -18    2.19    1.81   1
  -6  -6 -17    1.39    1.79   1
  -6  -6 -16    8.41    2.20   1
  -6  -6 -15    1.80    1.90   1
  -6  -6 -13    2.10    2.20   1
  -6  -6 -13    1.30    1.39   1
  -6  -6 -12   36.00    3.36   1
  -6  -6 -12   24.60    2.48   1
  -6  -6 -11    2.99    1.80   1
  -6  -6 -10    3.50    1.91   1
  -6  -6  -9  294.47   17.16   1
  -6  -6  -8  111.09    5.90   1
  -6  -6  -7    7.08    1.70   1
  -6  -6  -6    7.78    2.12   1
  -6  -6  -5   15.92    2.63   1
  -6  -6  -4    1.00    1.60   1
  -6  -6  -3   36.12    3.13   1
  -6  -6  -2   25.20    2.91   1
  -6  -6  -1   -0.10    1.32   1
  -6  -6   0  100.60    5.42   1
  -6  -6   1    0.10    1.41   1
  -6  -6   2    1.00    1.70   1
  -6  -6   3   27.25    2.92   1
  -6  -6   4    3.20    1.79   1
  -6  -6   5    4.08    1.90   1
  -6  -6   6  202.78   10.82   1
  -6  -6   7    3.88    2.01   1
  -6  -6   8   -0.71    1.71   1
  -6  -6   9   97.22    6.51   1
  -6  -6  10  101.61    5.24   1
  -6  -6  11   32.04    3.28   1
  -6  -6  12  274.90   12.60   1
  -6  -6  13   35.52    3.46   1
  -6  -6  14    6.50    2.19   1
  -6  -6  15  121.00    7.92   1
  -6  -6  16   21.16    3.04   1
  -6  -6  17   32.95    3.67   1
  -6  -6  18  217.56   10.32   1
  -6  -6  19    1.80    2.20   1
  -6  -6  20   11.90    2.97   1
  -6  -6  21    5.90    2.62   1
  -6  -6  22   14.59    3.13   1
  -6  -6  23   31.58    3.37   1
  -6  -6  24   87.80    6.56   1
  -6  -6  25   10.30    2.89   1
  -6  -6  26    0.71    2.50   1
  -6  -6  27    3.20    2.79   1
  -6  -6  28   10.18    3.32   1
  -6  -6  29    7.18    3.38   1
  -6  -6  31   43.30    5.13   1
  -6  -6  32   14.29    4.76   1
  -6  -6  33    3.20    3.69   1
  -6  -6  34   -2.79    3.91   1
  -6  -6  36   11.70    4.58   1
  -6  -6  37    2.31    4.01   1
  -6  -6  40   -0.50    5.13   1
  -6  -5 -41    3.31    4.11   1
  -6  -5 -40   -0.30    3.92   1
  -6  -5 -39   24.60    4.56   1
  -6  -5 -38    6.50    3.88   1
  -6  -5 -37    3.31    3.42   1
  -6  -5 -36   -5.02    3.09   1
  -6  -5 -35    0.40    2.99   1
  -6  -5 -34    6.92    3.42   1
  -6  -5 -33   -1.10    2.79   1
  -6  -5 -32    2.50    3.19   1
  -6  -5 -31    1.59    3.10   1
  -6  -5 -30    6.30    3.21   1
  -6  -5 -29   -0.59    2.68   1
  -6  -5 -28    1.90    2.10   1
  -6  -5 -27  107.74    8.72   1
  -6  -5 -26    8.53    2.39   1
  -6  -5 -25   -0.50    2.22   1
  -6  -5 -24   35.16    4.03   1
  -6  -5 -23   18.58    2.50   1
  -6  -5 -22    6.92    2.42   1
  -6  -5 -21    8.53    2.69   1
  -6  -5 -20    2.59    1.61   1
  -6  -5 -19   -0.59    1.39   1
  -6  -5 -19    0.59    1.49   1
  -6  -5 -18  370.18   15.01   1
  -6  -5 -18  277.22   13.65   1
  -6  -5 -17    4.58    2.01   1
  -6  -5 -17    0.20    1.51   1
  -6  -5 -16   25.60    2.93   1
  -6  -5 -16   15.52    2.36   1
  -6  -5 -15   11.63    2.18   1
  -6  -5 -15    9.49    2.22   1
  -6  -5 -14    3.61    1.41   1
  -6  -5 -14    4.41    1.89   1
  -6  -5 -13    0.10    1.72   1
  -6  -5 -13    0.10    1.52   1
  -6  -5 -12   22.28    2.27   1
  -6  -5 -12   27.25    2.30   1
  -6  -5 -11    5.62    1.71   1
  -6  -5 -11    7.18    1.88   1
  -6  -5 -10    0.10    1.72   1
  -6  -5  -9  129.73    6.61   1
  -6  -5  -9   88.55    6.96   1
  -6  -5  -8   19.18    1.93   1
  -6  -5  -8   12.89    2.51   1
  -6  -5  -7    1.39    1.60   1
  -6  -5  -7    2.40    1.80   1
  -6  -5  -6  138.06    6.58   1
  -6  -5  -5   -1.00    1.20   1
  -6  -5  -4   -0.50    1.31   1
  -6  -5  -3   12.60    1.70   1
  -6  -5  -2    0.90    1.20   1
  -6  -5  -1    3.88    1.50   1
  -6  -5   0  160.02    8.35   1
  -6  -5   1    1.69    1.51   1
  -6  -5   2   14.21    1.81   1
  -6  -5   3  103.63    5.70   1
  -6  -5   4    6.40    1.92   1
  -6  -5   5    7.40    1.58   1
  -6  -5   6   18.23    2.31   1
  -6  -5   7   13.62    2.21   1
  -6  -5   8   20.16    2.60   1
  -6  -5  10    2.40    1.61   1
  -6  -5  11   15.37    1.80   1
  -6  -5  12  436.39   21.31   1
  -6  -5  13   60.53    3.73   1
  -6  -5  14    0.71    1.81   1
  -6  -5  15  336.72   15.78   1
  -6  -5  16    8.70    2.48   1
  -6  -5  17    6.30    2.31   1
  -6  -5  18    5.52    1.93   1
  -6  -5  19   11.70    2.39   1
  -6  -5  20   10.50    2.59   1
  -6  -5  21    9.30    2.38   1
  -6  -5  22   -1.10    1.70   1
  -6  -5  23    1.30    2.60   1
  -6  -5  24   19.27    3.07   1
  -6  -5  25    2.50    2.69   1
  -6  -5  26   31.36    3.81   1
  -6  -5  27    3.50    2.58   1
  -6  -5  28   76.39    6.12   1
  -6  -5  29    4.41    2.52   1
  -6  -5  30   50.41    5.40   1
  -6  -5  31    0.59    2.99   1
  -6  -5  32    4.28    3.39   1
  -6  -5  33   12.32    3.37   1
  -6  -5  34    6.50    4.18   1
  -6  -5  35    1.99    3.98   1
  -6  -5  36    3.61    3.12   1
  -6  -5  37    1.90    4.00   1
  -6  -5  40    2.89    4.69   1
  -6  -5  41    4.00    3.40   1
  -6  -5  42   53.44    7.16   1
  -6  -5  43   34.22    5.97   1
  -6  -4 -42   11.22    5.02   1
  -6  -4 -41    5.20    3.92   1
  -6  -4 -40    3.80    3.39   1
  -6  -4 -39   31.92    4.63   1
  -6  -4 -38    4.80    3.29   1
  -6  -4 -37    4.88    3.32   1
  -6  -4 -36   15.92    4.47   1
  -6  -4 -35   -0.79    2.99   1
  -6  -4 -34    0.50    2.91   1
  -6  -4 -33   41.47    4.25   1
  -6  -4 -32    2.99    2.70   1
  -6  -4 -31    6.10    2.62   1
  -6  -4 -30   25.70    3.65   1
  -6  -4 -29    0.30    1.90   1
  -6  -4 -28    1.49    1.68   1
  -6  -4 -27  158.26    9.06   1
  -6  -4 -26   -1.59    1.89   1
  -6  -4 -25    2.19    2.19   1
  -6  -4 -25    4.28    2.28   1
  -6  -4 -24  137.59    7.27   1
  -6  -4 -24  186.32    7.64   1
  -6  -4 -23   14.29    2.19   1
  -6  -4 -23    9.61    2.48   1
  -6  -4 -22   15.13    2.10   1
  -6  -4 -22   13.10    2.32   1
  -6  -4 -21   50.27    3.55   1
  -6  -4 -21   61.94    4.41   1
  -6  -4 -20    5.02    1.88   1
  -6  -4 -20    3.39    1.91   1
  -6  -4 -19    6.81    2.09   1
  -6  -4 -19    5.81    2.02   1
  -6  -4 -18  203.06   11.11   1
  -6  -4 -18  244.92   12.21   1
  -6  -4 -17   15.37    2.59   1
  -6  -4 -17   18.06    2.63   1
  -6  -4 -16   -0.90    1.50   1
  -6  -4 -16    1.21    1.41   1
  -6  -4 -15   35.88    2.88   1
  -6  -4 -15   37.45    3.79   1
  -6  -4 -14    2.50    1.61   1
  -6  -4 -14   -2.10    1.31   1
  -6  -4 -13    1.49    1.29   1
  -6  -4 -12   45.70    3.24   1
  -6  -4 -12   64.48    4.18   1
  -6  -4 -11    1.00    1.40   1
  -6  -4 -11    0.90    1.50   1
  -6  -4 -10    0.10    1.01   1
  -6  -4 -10    1.49    1.49   1
  -6  -4  -9  205.64   11.47   1
  -6  -4  -9  155.75    7.49   1
  -6  -4  -8   27.04    2.29   1
  -6  -4  -8   31.81    2.71   1
  -6  -4  -7   -0.90    1.41   1
  -6  -4  -7    0.71    1.81   1
  -6  -4  -6    0.79    1.69   1
  -6  -4  -6    0.50    1.31   1
  -6  -4  -5    0.59    1.39   1
  -6  -4  -4    2.31    1.31   1
  -6  -4  -4    2.31    1.49   1
  -6  -4  -3   98.01    4.95   1
  -6  -4  -3   68.56    4.31   1
  -6  -4  -2    1.49    1.10   1
  -6  -4  -1    2.19    1.10   1
  -6  -4   0   11.09    1.80   1
  -6  -4   1    0.90    1.01   1
  -6  -4   2    1.00    1.20   1
  -6  -4   3   29.05    2.16   1
  -6  -4   4    1.99    1.30   1
  -6  -4   5   10.30    1.61   1
  -6  -4   6    3.10    1.51   1
  -6  -4   7    1.80    1.29   1
  -6  -4   8    2.99    1.49   1
  -6  -4   9  143.04    7.65   1
  -6  -4  10   12.39    1.83   1
  -6  -4  11   12.89    2.01   1
  -6  -4  12  239.63   11.46   1
  -6  -4  13  111.94    6.14   1
  -6  -4  14   23.62    2.72   1
  -6  -4  15  178.49    8.55   1
  -6  -4  16    2.69    1.80   1
  -6  -4  17    6.40    1.92   1
  -6  -4  18   87.42    5.80   1
  -6  -4  19    3.39    1.69   1
  -6  -4  20    5.20    2.28   1
  -6  -4  21   11.09    2.33   1
  -6  -4  22   -0.59    1.89   1
  -6  -4  23    6.92    2.42   1
  -6  -4  24  206.21   10.63   1
  -6  -4  25    3.20    2.40   1
  -6  -4  26   11.02    2.79   1
  -6  -4  28   96.83    7.87   1
  -6  -4  29    7.40    2.77   1
  -6  -4  30   45.16    4.57   1
  -6  -4  31    2.99    2.70   1
  -6  -4  32   -1.21    3.01   1
  -6  -3 -43   22.94    5.36   1
  -6  -3 -42   11.70    4.10   1
  -6  -3 -41    2.10    3.71   1
  -6  -3 -40    1.49    3.68   1
  -6  -3 -39   63.52    7.01   1
  -6  -3 -38   -0.20    3.12   1
  -6  -3 -37    4.00    3.00   1
  -6  -3 -36   -0.50    2.51   1
  -6  -3 -35    0.10    2.63   1
  -6  -3 -34    1.69    2.78   1
  -6  -3 -33   91.97    6.33   1
  -6  -3 -32    1.21    2.31   1
  -6  -3 -31   -1.80    2.60   1
  -6  -3 -30    5.62    2.61   1
  -6  -3 -30   13.76    3.19   1
  -6  -3 -29   27.25    3.65   1
  -6  -3 -29   16.89    3.21   1
  -6  -3 -28    1.39    2.50   1
  -6  -3 -28    1.00    2.00   1
  -6  -3 -27  144.24   10.33   1
  -6  -3 -27  145.93    7.25   1
  -6  -3 -26    3.10    2.29   1
  -6  -3 -26    3.61    2.20   1
  -6  -3 -25    1.59    1.79   1
  -6  -3 -25    4.71    2.21   1
  -6  -3 -24   49.56    3.66   1
  -6  -3 -24   65.12    4.68   1
  -6  -3 -23    9.61    2.60   1
  -6  -3 -23    9.18    1.88   1
  -6  -3 -22   27.14    2.61   1
  -6  -3 -22   28.20    3.29   1
  -6  -3 -21  647.19   33.58   1
  -6  -3 -21  755.15   39.02   1
  -6  -3 -20   93.32    7.92   1
  -6  -3 -20   90.44    5.71   1
  -6  -3 -19    8.12    1.60   1
  -6  -3 -19   12.32    2.53   1
  -6  -3 -18   40.70    3.06   1
  -6  -3 -18   35.16    2.73   1
  -6  -3 -17    0.71    1.51   1
  -6  -3 -17   -0.30    1.21   1
  -6  -3 -16    3.20    1.50   1
  -6  -3 -16    8.18    1.89   1
  -6  -3 -15  119.25    6.33   1
  -6  -3 -15  100.40    7.21   1
  -6  -3 -14    5.52    1.93   1
  -6  -3 -14    1.80    1.21   1
  -6  -3 -13   -0.10    0.91   1
  -6  -3 -13    1.49    1.59   1
  -6  -3 -12   11.70    1.78   1
  -6  -3 -12    9.18    1.27   1
  -6  -3 -11    6.81    1.98   1
  -6  -3 -11    4.08    1.29   1
  -6  -3 -10    3.80    1.60   1
  -6  -3 -10    3.20    1.00   1
  -6  -3  -9   10.37    2.00   1
  -6  -3  -9    6.20    1.00   1
  -6  -3  -8   23.23    1.93   1
  -6  -3  -8   33.64    3.25   1
  -6  -3  -7    0.79    1.09   1
  -6  -3  -7    0.50    1.70   1
  -6  -3  -6  132.71    5.99   1
  -6  -3  -6  168.22    9.34   1
  -6  -3  -5   55.80    3.59   1
  -6  -3  -5   77.97    4.24   1
  -6  -3  -4    8.18    1.89   1
  -6  -3  -4    7.40    1.20   1
  -6  -3  -3   29.05    2.59   1
  -6  -3  -3   23.72    1.95   1
  -6  -3  -2   12.67    1.57   1
  -6  -3  -2   11.09    1.40   1
  -6  -3  -1    0.71    0.91   1
  -6  -3  -1    2.89    1.50   1
  -6  -3   0   54.91    4.74   1
  -6  -3   0   39.82    2.65   1
  -6  -3   1   84.27    5.51   1
  -6  -3   2    0.10    1.01   1
  -6  -3   3   35.64    2.39   1
  -6  -3   4   23.72    2.14   1
  -6  -3   5   34.34    2.23   1
  -6  -3   6   69.06    4.16   1
  -6  -3   7    5.90    1.31   1
  -6  -3   8    5.29    1.38   1
  -6  -3   9    1.59    1.29   1
  -6  -3  11    6.10    1.58   1
  -6  -3  12    2.50    1.39   1
  -6  -3  13    6.20    1.69   1
  -6  -3  14    6.71    1.81   1
  -6  -3  15  196.56   11.50   1
  -6  -3  16   -0.30    1.51   1
  -6  -3  17    0.59    1.89   1
  -6  -3  18  139.95    7.10   1
  -6  -3  19    0.71    1.71   1
  -6  -3  20    1.30    1.80   1
  -6  -3  21  490.62   19.93   1
  -6  -3  22    1.99    2.40   1
  -6  -3  25  305.55   15.03   1
  -6  -3  28    2.31    2.49   1
  -6  -3  29    0.40    1.50   1
  -6  -3  30    9.30    2.62   1
  -6  -3  33   17.39    3.59   1
  -6  -3  34    1.80    3.19   1
  -6  -3  35   15.21    3.20   1
  -6  -3  38    5.38    2.78   1
  -6  -3  44   -1.10    3.30   1
  -6  -3  45   11.09    4.80   1
  -6  -2 -44   -1.90    3.89   1
  -6  -2 -43   -1.10    3.51   1
  -6  -2 -42    9.00    4.02   1
  -6  -2 -41   20.34    3.97   1
  -6  -2 -40    0.10    3.34   1
  -6  -2 -39    4.71    3.21   1
  -6  -2 -38    9.80    3.19   1
  -6  -2 -37    4.20    3.12   1
  -6  -2 -36   34.81    4.96   1
  -6  -2 -36   50.84    5.56   1
  -6  -2 -35   22.18    4.43   1
  -6  -2 -35   24.60    3.97   1
  -6  -2 -34    3.39    2.98   1
  -6  -2 -34   -2.31    2.22   1
  -6  -2 -33   51.27    4.44   1
  -6  -2 -33   56.55    5.56   1
  -6  -2 -32    1.10    1.99   1
  -6  -2 -32    1.10    3.21   1
  -6  -2 -31    0.20    2.82   1
  -6  -2 -31    0.90    2.91   1
  -6  -2 -30   12.32    3.23   1
  -6  -2 -30   14.21    3.02   1
  -6  -2 -29    3.10    2.29   1
  -6  -2 -29    0.79    2.39   1
  -6  -2 -28    0.20    2.02   1
  -6  -2 -28    3.39    2.61   1
  -6  -2 -27    5.52    2.30   1
  -6  -2 -27    4.80    2.50   1
  -6  -2 -26    9.12    2.78   1
  -6  -2 -26    2.50    1.80   1
  -6  -2 -25    0.71    1.41   1
  -6  -2 -25    5.20    2.10   1
  -6  -2 -24    0.50    1.51   1
  -6  -2 -24    2.40    2.01   1
  -6  -2 -23   91.20    5.35   1
  -6  -2 -23  103.43    6.10   1
  -6  -2 -22    0.40    2.09   1
  -6  -2 -22    0.59    1.39   1
  -6  -2 -21  458.39   21.84   1
  -6  -2 -21  507.15   27.02   1
  -6  -2 -20    2.50    1.71   1
  -6  -2 -20   -0.30    1.90   1
  -6  -2 -19    8.82    2.32   1
  -6  -2 -19   11.83    2.00   1
  -6  -2 -18  162.56    7.91   1
  -6  -2 -18  183.87   10.85   1
  -6  -2 -17   23.23    2.70   1
  -6  -2 -17   23.33    2.13   1
  -6  -2 -16    2.79    1.00   1
  -6  -2 -16    1.80    1.80   1
  -6  -2 -15   87.05    4.66   1
  -6  -2 -15   94.48    6.61   1
  -6  -2 -14    3.10    1.90   1
  -6  -2 -14    1.49    1.00   1
  -6  -2 -13    0.00    1.00   1
  -6  -2 -13    0.50    1.60   1
  -6  -2 -12    0.20    1.71   1
  -6  -2 -12    1.00    1.00   1
  -6  -2 -11   27.88    2.85   1
  -6  -2 -11   17.22    1.66   1
  -6  -2 -10    7.29    1.08   1
  -6  -2 -10    9.12    1.87   1
  -6  -2 -10   10.89    1.19   1
  -6  -2  -9  381.03   16.40   1
  -6  -2  -9  511.66   20.81   1
  -6  -2  -8    3.39    1.91   1
  -6  -2  -8    2.69    0.89   1
  -6  -2  -7    3.31    1.49   1
  -6  -2  -7    1.00    0.80   1
  -6  -2  -6  158.51    7.30   1
  -6  -2  -6  201.36    8.51   1
  -6  -2  -5   17.39    1.42   1
  -6  -2  -5   25.40    3.02   1
  -6  -2  -4   24.70    2.29   1
  -6  -2  -4   13.32    1.39   1
  -6  -2  -3  392.04   15.84   1
  -6  -2  -3  309.06   12.66   1
  -6  -2  -2    1.10    1.20   1
  -6  -2  -2    1.49    0.81   1
  -6  -2  -1   27.25    2.61   1
  -6  -2  -1   22.94    1.72   1
  -6  -2   0   13.62    1.48   1
  -6  -2   0   16.56    2.28   1
  -6  -2   1   58.37    4.43   1
  -6  -2   1   47.61    2.62   1
  -6  -2   2    9.80    1.88   1
  -6  -2   2    4.88    1.11   1
  -6  -2   3   42.38    2.60   1
  -6  -2   4    0.50    1.01   1
  -6  -2   5   16.40    1.70   1
  -6  -2   6   25.81    2.03   1
  -6  -2   7  165.12    8.48   1
  -6  -2   8    9.00    1.68   1
  -6  -2   9    3.20    1.11   1
  -6  -2  10  135.02    6.51   1
  -6  -2  11   -1.49    1.00   1
  -6  -2  12   17.31    1.66   1
  -6  -2  13    1.99    1.38   1
  -6  -2  14    1.99    1.61   1
  -6  -2  15  282.91   12.45   1
  -6  -2  16   24.60    2.58   1
  -6  -2  19   21.81    2.99   1
  -6  -2  28    7.90    1.80   1
  -6  -2  31   -1.39    1.89   1
  -6  -2  35    0.40    1.89   1
  -6  -2  39    2.50    2.81   1
  -6  -2  44    6.92    3.68   1
  -6  -1 -44    5.90    4.18   1
  -6  -1 -43    4.88    4.77   1
  -6  -1 -42  102.01    8.69   1
  -6  -1 -41    1.21    3.52   1
  -6  -1 -40    8.01    4.08   1
  -6  -1 -40    9.30    3.60   1
  -6  -1 -39   72.76    6.65   1
  -6  -1 -39  114.70    7.93   1
  -6  -1 -38    0.20    3.42   1
  -6  -1 -38   -1.59    3.88   1
  -6  -1 -37    2.69    4.20   1
  -6  -1 -37    8.29    3.51   1
  -6  -1 -36    1.10    4.09   1
  -6  -1 -36    1.30    3.19   1
  -6  -1 -35    8.70    3.78   1
  -6  -1 -35    7.62    4.31   1
  -6  -1 -34   18.49    3.10   1
  -6  -1 -34   19.36    4.22   1
  -6  -1 -33   19.01    4.19   1
  -6  -1 -33   13.40    2.49   1
  -6  -1 -32    2.50    2.91   1
  -6  -1 -32    1.80    2.09   1
  -6  -1 -31    1.80    2.79   1
  -6  -1 -31    0.30    2.01   1
  -6  -1 -30   33.76    3.72   1
  -6  -1 -30   36.60    4.24   1
  -6  -1 -29   -0.71    3.11   1
  -6  -1 -29   -0.79    1.58   1
  -6  -1 -28   14.36    2.73   1
  -6  -1 -28   15.52    2.99   1
  -6  -1 -27   14.06    3.30   1
  -6  -1 -27   14.82    4.39   1
  -6  -1 -26    0.79    2.30   1
  -6  -1 -26    2.31    1.79   1
  -6  -1 -25   -2.40    1.39   1
  -6  -1 -25    3.39    2.10   1
  -6  -1 -24  175.03   10.32   1
  -6  -1 -23    2.79    2.30   1
  -6  -1 -23    3.31    1.49   1
  -6  -1 -22   -2.50    2.09   1
  -6  -1 -22    2.40    1.39   1
  -6  -1 -21   35.64    3.58   1
  -6  -1 -21   47.33    3.16   1
  -6  -1 -20   -0.10    1.01   1
  -6  -1 -20    0.40    1.79   1
  -6  -1 -19    0.50    1.01   1
  -6  -1 -19    0.90    1.31   1
  -6  -1 -18   14.59    2.37   1
  -6  -1 -18    9.92    1.51   1
  -6  -1 -17    2.19    1.30   1
  -6  -1 -17    1.99    1.10   1
  -6  -1 -16    3.10    1.09   1
  -6  -1 -16    3.88    2.01   1
  -6  -1 -15    4.41    2.02   1
  -6  -1 -15    2.99    1.11   1
  -6  -1 -14    8.82    1.19   1
  -6  -1 -14   11.42    1.69   1
  -6  -1 -13    0.59    1.59   1
  -6  -1 -13    0.00    1.00   1
  -6  -1 -12  312.94    7.08   1
  -6  -1 -12   -1.00    0.80   1
  -6  -1 -12  365.96   12.63   1
  -6  -1 -11   25.50    1.41   1
  -6  -1 -11   27.14    2.81   1
  -6  -1 -11   10.18    1.28   1
  -6  -1 -10    0.90    0.61   1
  -6  -1 -10   -0.30    0.70   1
  -6  -1 -10    0.79    1.00   1
  -6  -1  -9  705.96   27.63   1
  -6  -1  -9  742.56   26.16   1
  -6  -1  -9  575.04   23.98   1
  -6  -1  -8    0.30    0.51   1
  -6  -1  -8   -1.00    1.50   1
  -6  -1  -8    1.80    0.70   1
  -6  -1  -7    1.90    1.60   1
  -6  -1  -7    2.89    0.61   1
  -6  -1  -7    2.79    0.60   1
  -6  -1  -6  931.47   36.62   1
  -6  -1  -6 1030.41   41.09   1
  -6  -1  -5    0.40    0.50   1
  -6  -1  -5    0.59    1.49   1
  -6  -1  -4    8.01    0.68   1
  -6  -1  -4   14.59    1.99   1
  -6  -1  -3   41.09    2.69   1
  -6  -1  -3   37.58    1.84   1
  -6  -1  -2   55.06    4.16   1
  -6  -1  -2   45.83    2.17   1
  -6  -1  -1   12.18    0.98   1
  -6  -1  -1   14.52    2.13   1
  -6  -1   0    0.79    1.58   1
  -6  -1   0    2.89    0.71   1
  -6  -1   2   22.00    1.50   1
  -6  -1   3    5.38    1.72   1
  -6  -1   3    6.71    0.88   1
  -6  -1   4   13.03    2.09   1
  -6  -1   4   11.70    1.30   1
  -6  -1   5   -1.90    0.91   1
  -6  -1   5    0.50    0.81   1
  -6  -1   6   21.72    1.58   1
  -6  -1   7    1.10    0.80   1
  -6  -1   8    3.10    0.99   1
  -6  -1   9  125.89    6.73   1
  -6  -1  10   18.49    1.89   1
  -6  -1  19   26.94    2.39   1
  -6  -1  25   -2.40    1.30   1
  -6  -1  26    3.69    1.80   1
  -6  -1  38    2.31    2.71   1
  -6  -1  39    8.70    3.19   1
  -6  -1  40    1.21    2.71   1
  -6  -1  41    6.60    2.88   1
  -6  -1  46    1.00    4.90   1
  -6   0 -44    3.69    4.80   1
  -6   0 -44    1.80    5.31   1
  -6   0 -42   72.76    6.65   1
  -6   0 -42   71.74    7.11   1
  -6   0 -40    9.42    4.79   1
  -6   0 -40    4.88    3.49   1
  -6   0 -38    5.29    3.08   1
  -6   0 -38    2.10    4.09   1
  -6   0 -36  250.27   16.45   1
  -6   0 -36  256.96   17.31   1
  -6   0 -34    4.08    2.38   1
  -6   0 -34    5.11    3.80   1
  -6   0 -32   19.98    2.86   1
  -6   0 -32   22.66    4.19   1
  -6   0 -30   57.00    4.83   1
  -6   0 -30   57.61    4.86   1
  -6   0 -28    7.90    3.09   1
  -6   0 -28   -1.99    1.61   1
  -6   0 -26   89.11    7.55   1
  -6   0 -26   88.74    6.78   1
  -6   0 -24   20.16    3.32   1
  -6   0 -22    1.80    2.09   1
  -6   0 -22   -0.10    1.11   1
  -6   0 -20    1.99    2.00   1
  -6   0 -20    1.30    1.09   1
  -6   0 -18  567.39   24.30   1
  -6   0 -18  536.39   24.55   1
  -6   0 -16    3.61    2.01   1
  -6   0 -16    1.10    1.01   1
  -6   0 -14   34.69    2.00   1
  -6   0 -14   42.25    3.90   1
  -6   0 -12  514.38   21.32   1
  -6   0 -12  498.18   18.75   1
  -6   0 -12  444.37   19.39   1
  -6   0 -10  142.32    7.64   1
  -6   0 -10  139.00    4.72   1
  -6   0 -10  128.14    4.98   1
  -6   0  -8   36.00    3.48   1
  -6   0  -6  114.92    7.08   1
  -6   0  -4    7.08    1.70   1
  -6   0  -2   13.76    2.08   1
  -6   0   0  848.56   33.21   1
  -6   0   0  801.46   32.27   1
  -6   0   2    2.19    0.59   1
  -6   0   2    0.20    1.51   1
  -6   0   4  125.44    7.39   1
  -6   0   6   74.82    4.32   1
  -6   0   6   87.24    5.04   1
  -6   0   8   51.98    2.60   1
  -6   0  12    8.29    1.38   1
  -6   0  38    1.00    3.40   1
  -6   0  46   24.01    5.78   1
  -6   1 -44   -2.19    5.39   1
  -6   1 -44    6.30    3.51   1
  -6   1 -43   -3.39    4.78   1
  -6   1 -42   96.04    7.45   1
  -6   1 -42   77.62    7.58   1
  -6   1 -41    8.01    4.81   1
  -6   1 -41    0.30    2.92   1
  -6   1 -40   12.39    4.22   1
  -6   1 -39  103.02    8.93   1
  -6   1 -38    0.50    2.51   1
  -6   1 -38    4.41    4.20   1
  -6   1 -37    5.38    2.60   1
  -6   1 -37   -0.30    3.82   1
  -6   1 -36    0.50    2.22   1
  -6   1 -36    1.10    2.39   1
  -6   1 -35   15.37    3.61   1
  -6   1 -35    0.90    2.30   1
  -6   1 -34   13.69    4.00   1
  -6   1 -33    8.82    3.39   1
  -6   1 -32    6.30    3.21   1
  -6   1 -32    2.69    2.30   1
  -6   1 -31    0.30    2.11   1
  -6   1 -31    2.79    1.90   1
  -6   1 -30   45.16    4.84   1
  -6   1 -30   31.70    2.93   1
  -6   1 -29   -1.30    3.10   1
  -6   1 -29    3.80    1.79   1
  -6   1 -28   12.89    2.23   1
  -6   1 -28   14.98    2.48   1
  -6   1 -27   11.49    2.17   1
  -6   1 -27   15.52    3.62   1
  -6   1 -26    3.50    1.50   1
  -6   1 -26    3.20    2.61   1
  -6   1 -25    0.40    2.78   1
  -6   1 -24  169.78    9.12   1
  -6   1 -24  188.51   10.43   1
  -6   1 -23    2.19    2.31   1
  -6   1 -22    2.10    1.19   1
  -6   1 -22    5.38    1.90   1
  -6   1 -21   42.25    4.16   1
  -6   1 -21   46.10    3.12   1
  -6   1 -20   -0.50    2.10   1
  -6   1 -20    1.30    1.09   1
  -6   1 -19    1.10    1.81   1
  -6   1 -19    1.10    1.01   1
  -6   1 -18    9.18    1.88   1
  -6   1 -18   11.49    1.42   1
  -6   1 -17   -0.30    2.11   1
  -6   1 -17    3.20    1.00   1
  -6   1 -16   -0.90    1.71   1
  -6   1 -16    2.19    0.89   1
  -6   1 -15    5.38    2.09   1
  -6   1 -15    2.89    0.78   1
  -6   1 -14   11.09    2.20   1
  -6   1 -14   10.11    1.02   1
  -6   1 -13   -0.50    0.60   1
  -6   1 -13    1.30    1.21   1
  -6   1 -13    0.20    0.50   1
  -6   1 -12  317.55   12.47   1
  -6   1 -12  360.62   15.95   1
  -6   1 -11   25.30    2.52   1
  -6   1 -10    1.21    1.72   1
  -6   1  -9  692.74   27.37   1
  -6   1  -8    1.80    1.61   1
  -6   1  -7    3.31    1.60   1
  -6   1  -6 1025.92   39.08   1
  -6   1  -5    0.00    1.00   1
  -6   1  -4    8.29    2.02   1
  -6   1  -3   41.09    3.46   1
  -6   1  -2   50.55    3.41   1
  -6   1  -1   13.32    2.19   1
  -6   1   0    2.99    1.21   1
  -6   1   1  252.49   12.39   1
  -6   1   2   23.23    2.22   1
  -6   1   3   12.60    1.99   1
  -6   1   4   12.39    1.97   1
  -6   1   5    1.49    1.10   1
  -6   1   6   23.23    1.64   1
  -6   1   6   23.23    2.80   1
  -6   1   7    1.10    1.51   1
  -6   1   8    5.02    1.79   1
  -6   1   8    6.10    0.99   1
  -6   1   9  139.24    7.32   1
  -6   1   9  153.26    8.17   1
  -6   1  10   13.76    1.48   1
  -6   1  11    6.10    1.38   1
  -6   1  12   36.84    2.67   1
  -6   1  13    1.30    1.21   1
  -6   1  14    0.50    1.01   1
  -6   1  15   47.33    3.44   1
  -6   1  17   34.46    3.29   1
  -6   1  18    0.71    1.61   1
  -6   1  19   26.01    2.55   1
  -6   1  22   15.60    2.37   1
  -6   1  32    0.79    2.58   1
  -6   1  40    3.20    4.51   1
  -6   1  41    7.51    4.22   1
  -6   1  44    0.10    5.06   1
  -6   1  45   16.16    5.47   1
  -6   1  46    3.88    5.20   1
  -6   2 -44   -4.28    5.80   1
  -6   2 -43    5.62    5.40   1
  -6   2 -43    6.92    3.42   1
  -6   2 -42    3.10    5.21   1
  -6   2 -42    4.88    3.32   1
  -6   2 -41   15.60    5.53   1
  -6   2 -40    5.20    5.11   1
  -6   2 -39    4.49    4.28   1
  -6   2 -38    9.92    4.22   1
  -6   2 -37    3.39    4.08   1
  -6   2 -36   46.79    4.65   1
  -6   2 -35   29.05    5.17   1
  -6   2 -34   -0.90    3.40   1
  -6   2 -33   47.75    6.50   1
  -6   2 -32    3.61    3.00   1
  -6   2 -31    3.39    2.91   1
  -6   2 -30   19.98    4.11   1
  -6   2 -29    0.90    3.10   1
  -6   2 -28   -3.61    2.51   1
  -6   2 -27    9.00    3.12   1
  -6   2 -26    8.58    3.22   1
  -6   2 -25    2.50    1.80   1
  -6   2 -24    1.49    1.59   1
  -6   2 -23   82.45    5.08   1
  -6   2 -22   -1.59    2.29   1
  -6   2 -21  518.02   24.13   1
  -6   2 -20    0.40    2.39   1
  -6   2 -19   11.42    2.77   1
  -6   2 -18  178.76    9.63   1
  -6   2 -17   25.20    1.91   1
  -6   2 -17   19.10    2.88   1
  -6   2 -16    6.40    2.18   1
  -6   2 -16    3.50    0.90   1
  -6   2 -15   90.06    6.07   1
  -6   2 -14    1.21    1.21   1
  -6   2 -13    0.90    0.70   1
  -6   2 -13   -0.30    1.21   1
  -6   2 -12   -0.50    0.50   1
  -6   2 -12    0.90    1.50   1
  -6   2 -12   -0.20    0.60   1
  -6   2 -11   18.92    2.52   1
  -6   2 -11   17.14    0.91   1
  -6   2 -10    8.53    1.81   1
  -6   2  -9  452.41   20.42   1
  -6   2  -8    8.12    1.88   1
  -6   2  -7    0.90    1.60   1
  -6   2  -6  185.23    8.71   1
  -6   2  -5   23.04    2.69   1
  -6   2  -4   11.97    2.08   1
  -6   2  -3  367.49   18.40   1
  -6   2  -2    1.59    1.79   1
  -6   2  -1   26.01    2.65   1
  -6   2   0   16.73    2.37   1
  -6   2   1   44.76    3.75   1
  -6   2   2    6.50    1.58   1
  -6   2   3   50.84    3.14   1
  -6   2   4    1.90    1.49   1
  -6   2   5   18.84    2.43   1
  -6   2   6   43.96    3.32   1
  -6   2   7  191.82    9.69   1
  -6   2   8   14.52    1.90   1
  -6   2  10  177.42    8.79   1
  -6   2  16   27.88    2.75   1
  -6   2  17   -1.30    1.30   1
  -6   2  18    6.00    1.91   1
  -6   2  19   21.07    2.57   1
  -6   2  20   -0.10    1.72   1
  -6   2  21   17.89    2.62   1
  -6   2  22    1.30    1.80   1
  -6   2  23   22.75    2.77   1
  -6   2  24   32.26    3.18   1
  -6   2  25    9.80    2.50   1
  -6   2  26    2.69    2.10   1
  -6   2  27   46.10    4.35   1
  -6   2  28   16.32    3.31   1
  -6   2  29   21.44    2.87   1
  -6   2  36   -0.20    3.12   1
  -6   2  37    0.71    3.71   1
  -6   3 -43   13.10    7.02   1
  -6   3 -42   19.71    5.68   1
  -6   3 -41    4.20    5.08   1
  -6   3 -40    8.53    5.43   1
  -6   3 -39   86.86    8.02   1
  -6   3 -38    1.59    4.08   1
  -6   3 -37    3.50    3.89   1
  -6   3 -36   10.37    4.38   1
  -6   3 -35   -4.88    3.98   1
  -6   3 -34    3.39    3.97   1
  -6   3 -33  104.86    7.37   1
  -6   3 -32    1.21    3.41   1
  -6   3 -31    0.40    2.89   1
  -6   3 -30    8.70    3.42   1
  -6   3 -29   40.32    4.83   1
  -6   3 -28   -1.99    3.10   1
  -6   3 -27  163.58    9.72   1
  -6   3 -26    3.88    2.80   1
  -6   3 -25    6.20    2.79   1
  -6   3 -24   50.98    5.57   1
  -6   3 -23    2.40    1.80   1
  -6   3 -22   25.60    4.35   1
  -6   3 -21  711.82   27.21   1
  -6   3 -20   93.32    6.18   1
  -6   3 -19    7.78    2.40   1
  -6   3 -18   28.41    3.09   1
  -6   3 -17   -0.79    1.99   1
  -6   3 -16    9.61    2.23   1
  -6   3 -15  106.09    5.77   1
  -6   3 -14    4.71    2.00   1
  -6   3 -13   -0.30    1.80   1
  -6   3 -12    6.60    2.31   1
  -6   3 -11    4.00    1.80   1
  -6   3 -10    4.00    1.88   1
  -6   3 -10    0.79    0.61   1
  -6   3  -9    7.29    2.21   1
  -6   3  -9    7.29    0.81   1
  -6   3  -8   27.25    1.36   1
  -6   3  -8   32.72    2.97   1
  -6   3  -7   -0.10    1.72   1
  -6   3  -6  146.17    5.56   1
  -6   3  -6  162.31    7.64   1
  -6   3  -5   63.36    4.14   1
  -6   3  -4    6.60    2.11   1
  -6   3  -3   22.00    2.63   1
  -6   3  -2   11.09    2.13   1
  -6   3  -1    2.40    1.71   1
  -6   3   0   46.65    3.14   1
  -6   3   1  109.83    6.08   1
  -6   3   2    1.21    1.61   1
  -6   3   3   43.82    3.31   1
  -6   3   4   20.88    2.47   1
  -6   3   5   36.36    3.14   1
  -6   3   6   88.17    4.88   1
  -6   3   7    4.20    1.89   1
  -6   3   8    4.08    1.78   1
  -6   3   9    2.50    1.71   1
  -6   3  10   24.80    2.69   1
  -6   3  11    6.81    1.83   1
  -6   4 -41    3.20    5.69   1
  -6   4 -40   -2.40    4.80   1
  -6   4 -39   17.47    5.52   1
  -6   4 -38   12.60    4.69   1
  -6   4 -37    0.50    4.42   1
  -6   4 -36   35.05    5.56   1
  -6   4 -35   -1.90    3.09   1
  -6   4 -34    0.20    3.73   1
  -6   4 -33   44.76    5.08   1
  -6   4 -32   -1.69    3.48   1
  -6   4 -31   -2.69    3.28   1
  -6   4 -30   26.52    4.63   1
  -6   4 -29   -1.49    3.20   1
  -6   4 -28   -4.20    3.20   1
  -6   4 -27  178.22   10.41   1
  -6   4 -26   -1.21    2.71   1
  -6   4 -25    5.29    2.12   1
  -6   4 -24  141.13   10.45   1
  -6   4 -23   10.11    3.50   1
  -6   4 -22    8.58    2.81   1
  -6   4 -21   57.91    6.09   1
  -6   4 -20    1.80    1.61   1
  -6   4 -19   11.97    2.91   1
  -6   4 -18  226.20   14.14   1
  -6   4 -17   14.90    2.78   1
  -6   4 -16   -0.30    2.31   1
  -6   4 -15   29.48    3.91   1
  -6   4 -14    2.50    2.09   1
  -6   4 -13   -0.59    1.49   1
  -6   4 -12   51.84    4.46   1
  -6   4 -11    2.69    1.90   1
  -6   4 -10   -1.69    1.69   1
  -6   4  -9  190.16    9.10   1
  -6   4  -8   33.76    3.83   1
  -6   4  -7    0.90    1.99   1
  -6   4  -6    0.00    1.00   1
  -6   4  -5   -1.10    1.60   1
  -6   4  -4    5.62    1.90   1
  -6   4  -3   77.97    4.94   1
  -6   4  -2    2.89    1.90   1
  -6   4  -1    1.00    1.10   1
  -6   4   0    6.40    1.72   1
  -6   4   1    3.69    1.69   1
  -6   4   2    2.69    1.90   1
  -6   4   3   29.92    2.52   1
  -6   4   4    2.31    1.22   1
  -6   4   5    7.62    2.10   1
  -6   4   6    1.80    1.80   1
  -6   4   7   -3.20    1.61   1
  -6   4   8    1.90    2.01   1
  -6   4   9  201.64   10.22   1
  -6   4  10   13.91    2.24   1
  -6   4  11   12.89    2.08   1
  -6   4  12  334.52   14.27   1
  -6   5 -39   14.59    5.58   1
  -6   5 -38   -0.20    4.83   1
  -6   5 -37    1.30    4.40   1
  -6   5 -36    1.90    4.42   1
  -6   5 -35    0.90    4.10   1
  -6   5 -34    4.20    2.58   1
  -6   5 -33    1.59    3.48   1
  -6   5 -32    4.58    3.81   1
  -6   5 -31    2.40    2.51   1
  -6   5 -30    7.90    3.82   1
  -6   5 -29   -1.80    3.30   1
  -6   5 -27  101.20    8.05   1
  -6   5 -26   12.89    3.37   1
  -6   5 -25   -4.20    2.71   1
  -6   5 -24   43.30    4.87   1
  -6   5 -23   16.89    3.70   1
  -6   5 -22    7.02    3.18   1
  -6   5 -21    8.58    2.87   1
  -6   5 -20    2.89    2.79   1
  -6   5 -19    0.40    2.60   1
  -6   5 -18  304.50   15.36   1
  -6   5 -17    0.10    2.53   1
  -6   5 -16   29.48    3.15   1
  -6   5 -13    3.10    2.11   1
  -6   5 -12   19.01    2.88   1
  -6   5 -11    2.19    2.19   1
  -6   5 -10   -1.30    1.89   1
  -6   5  -9   93.70    5.61   1
  -6   5  -8   15.60    2.69   1
  -6   5  -7    0.79    1.30   1
  -6   5  -6  164.87   10.02   1
  -6   5  -5    0.90    2.11   1
  -6   5  -4   -0.90    1.90   1
  -6   5  -3   11.70    2.53   1
  -6   5  -2    2.89    1.70   1
  -6   5  -1    0.30    1.61   1
  -6   5   0  185.50    8.99   1
  -6   5   1    2.99    1.80   1
  -6   5   2   11.09    2.13   1
  -6   5   3  131.10    7.56   1
  -6   5   4    5.02    1.39   1
  -6   5   5    8.53    1.93   1
  -6   5   6   20.16    2.51   1
  -6   5   7   20.70    2.82   1
  -6   5   8   23.43    2.71   1
  -6   5   9   92.35    5.57   1
  -6   5  10    3.39    1.69   1
  -6   5  11   15.52    2.29   1
  -6   5  12  561.22   21.79   1
  -6   5  13   83.36    5.48   1
  -6   6 -38  -12.82    5.23   1
  -6   6 -37    4.88    4.60   1
  -6   6 -36  108.16   10.82   1
  -6   6 -35    9.99    5.12   1
  -6   6 -34   -0.30    3.21   1
  -6   6 -33    8.70    4.72   1
  -6   6 -32    4.00    4.08   1
  -6   6 -31    2.50    2.50   1
  -6   6 -30    7.78    4.07   1
  -6   6 -29   -0.20    2.62   1
  -6   6 -28    0.71    3.21   1
  -6   6 -27    1.21    2.31   1
  -6   6 -26    1.59    3.28   1
  -6   6 -25    1.99    3.10   1
  -6   6 -24  127.69    8.36   1
  -6   6 -23   25.10    4.11   1
  -6   6 -22    0.50    2.00   1
  -6   6 -21   42.25    4.03   1
  -6   6 -20    9.61    3.41   1
  -6   6 -19    5.90    2.92   1
  -6   6 -18   -1.30    2.51   1
  -6   6 -17   -1.39    1.70   1
  -6   6 -16   11.29    3.09   1
  -6   6 -15   -4.08    2.30   1
  -6   6 -14   -1.39    2.19   1
  -6   6 -13    1.69    2.50   1
  -6   6 -12   31.36    3.58   1
  -6   6 -11   -1.30    1.89   1
  -6   6 -10   -0.40    2.29   1
  -6   6  -9  365.96   16.45   1
  -6   6  -8  128.14    7.70   1
  -6   6  -7    5.29    2.21   1
  -6   6  -6    6.10    2.22   1
  -6   6  -5   17.81    2.53   1
  -6   6  -4    1.21    2.11   1
  -6   6  -3   26.11    2.96   1
  -6   6  -2   42.77    3.27   1
  -6   6  -1    0.10    1.72   1
  -6   6   0  114.49    7.92   1
  -6   6   1    0.59    1.69   1
  -6   6   2   10.37    2.13   1
  -6   6   3   39.19    3.38   1
  -6   6   4    7.62    1.99   1
  -6   6   5   -0.10    1.62   1
  -6   6   6  252.49   11.12   1
  -6   6   7    4.71    2.00   1
  -6   6   8    0.79    1.69   1
  -6   6   9  125.66    6.50   1
  -6   6  10  137.12    6.56   1
  -6   6  11   25.40    2.62   1
  -6   6  12  350.81   14.98   1
  -6   6  13   41.86    3.36   1
  -6   7 -35   -1.80    4.40   1
  -6   7 -34   15.13    4.90   1
  -6   7 -33   27.14    6.46   1
  -6   7 -32   -2.59    3.90   1
  -6   7 -31    5.11    4.11   1
  -6   7 -30   19.36    4.58   1
  -6   7 -29   10.69    3.92   1
  -6   7 -28    0.00    1.00   1
  -6   7 -26    1.00    3.50   1
  -6   7 -25    0.30    2.21   1
  -6   7 -24    9.18    3.58   1
  -6   7 -23   -0.79    2.99   1
  -6   7 -22   20.98    4.21   1
  -6   7 -21   25.60    3.85   1
  -6   7 -20    0.71    2.60   1
  -6   7 -19   -2.50    3.00   1
  -6   7 -18   10.30    2.82   1
  -6   7 -17    4.58    2.78   1
  -6   7 -16    2.19    2.90   1
  -6   7 -15    0.59    2.68   1
  -6   7 -14   -2.31    2.61   1
  -6   7 -13   32.60    3.65   1
  -6   7 -12   66.26    5.86   1
  -6   7 -11   25.00    2.70   1
  -6   7 -10    4.00    1.80   1
  -6   7  -9   39.19    3.88   1
  -6   7  -8   10.11    2.67   1
  -6   7  -7   19.36    2.90   1
  -6   7  -6  469.59   23.84   1
  -6   7  -5   33.29    3.92   1
  -6   7  -4    2.19    2.31   1
  -6   7  -3  109.41    7.11   1
  -6   7  -2    6.71    1.92   1
  -6   7  -1   -0.50    1.90   1
  -6   7   0    4.58    2.10   1
  -6   7   1   22.75    2.67   1
  -6   7   2    3.20    2.00   1
  -6   7   3    5.38    2.18   1
  -6   7   4    9.61    2.48   1
  -6   7   5   -0.90    1.80   1
  -6   7   6  221.12    9.81   1
  -6   7   7   -2.19    1.81   1
  -6   7   8   19.54    3.62   1
  -6   7   9    5.38    2.60   1
  -6   7  10  104.04    7.34   1
  -6   7  12   44.09    4.12   1
  -6   7  13   17.22    2.57   1
  -6   7  14   30.69    3.32   1
  -6   8 -33    1.39    3.80   1
  -6   8 -32   -1.90    4.42   1
  -6   8 -31    2.59    4.60   1
  -6   8 -30   32.04    5.55   1
  -6   8 -29   -0.59    4.08   1
  -6   8 -28    5.11    3.39   1
  -6   8 -27   26.42    5.14   1
  -6   8 -26    6.10    4.10   1
  -6   8 -25    1.49    2.49   1
  -6   8 -24    1.90    3.89   1
  -6   8 -23    8.12    3.59   1
  -6   8 -22    7.29    3.51   1
  -6   8 -21   10.89    3.30   1
  -6   8 -20   -0.20    3.42   1
  -6   8 -19    1.00    3.40   1
  -6   8 -18   20.43    4.34   1
  -6   8 -17   12.89    2.51   1
  -6   8 -16   13.47    3.30   1
  -6   8 -15  160.78    9.64   1
  -6   8 -14   -1.99    2.79   1
  -6   8 -13    5.62    2.18   1
  -6   8 -12    0.79    2.49   1
  -6   8 -11   16.56    3.17   1
  -6   8 -10   15.76    3.10   1
  -6   8  -9   17.31    3.33   1
  -6   8  -8   27.88    3.59   1
  -6   8  -7    0.50    1.41   1
  -6   8  -6   -1.30    2.19   1
  -6   8  -5    6.60    2.78   1
  -6   8  -4    5.81    2.60   1
  -6   8  -3  251.54   13.64   1
  -6   8  -2   74.30    6.72   1
  -6   8  -1   39.82    4.42   1
  -6   8   0    5.90    2.38   1
  -6   8   1    9.80    2.38   1
  -6   8   2    2.50    2.09   1
  -6   8   3    4.28    2.28   1
  -6   8   4   38.56    3.85   1
  -6   8   5   29.05    3.45   1
  -6   8   6    0.59    2.19   1
  -6   8   7   18.32    3.00   1
  -6   8   8    5.81    2.31   1
  -6   8   9  210.54   10.45   1
  -6   8  10    8.58    2.29   1
  -6   8  11   -2.59    2.00   1
  -6   8  12   27.35    3.35   1
  -6   8  13   -0.30    2.01   1
  -6   8  14    2.89    2.69   1
  -6   9 -32   -7.18    6.00   1
  -6   9 -31   -0.10    3.24   1
  -6   9 -30    3.61    4.79   1
  -6   9 -29   28.62    5.78   1
  -6   9 -28    1.80    4.50   1
  -6   9 -27   19.36    4.14   1
  -6   9 -26   -8.01    4.19   1
  -6   9 -25    4.80    3.90   1
  -6   9 -24   13.91    4.48   1
  -6   9 -23    2.69    2.49   1
  -6   9 -22    4.49    3.18   1
  -6   9 -21  168.48   11.42   1
  -6   9 -20    6.30    3.71   1
  -6   9 -19    2.19    2.99   1
  -6   9 -18   35.05    4.26   1
  -6   9 -17   -2.19    3.11   1
  -6   9 -16   37.82    4.80   1
  -6   9 -15  129.73    9.80   1
  -6   9 -14   -3.20    3.11   1
  -6   9 -13    0.59    2.88   1
  -6   9 -12    1.21    2.11   1
  -6   9 -11    2.31    2.80   1
  -6   9 -10   -0.50    2.71   1
  -6   9  -8   -1.21    2.71   1
  -6   9  -7    2.10    1.80   1
  -6   9  -6   48.16    5.00   1
  -6   9  -5   10.30    2.89   1
  -6   9  -4   22.09    3.38   1
  -6   9  -3  279.22   18.05   1
  -6   9  -2   10.37    3.09   1
  -6   9  -1    3.50    2.69   1
  -6   9   0    0.30    2.41   1
  -6   9   1   -0.90    2.39   1
  -6   9   2    3.31    2.69   1
  -6   9   3   40.70    3.83   1
  -6   9   4    8.29    2.71   1
  -6   9   5    2.19    2.31   1
  -6   9   6   10.11    2.61   1
  -6   9   7    4.28    2.48   1
  -6   9   8    3.61    2.20   1
  -6  10 -29   -4.80    5.39   1
  -6  10 -28   -1.49    4.98   1
  -6  10 -27  110.04   11.75   1
  -6  10 -26    8.88    5.07   1
  -6  10 -25   -0.50    4.61   1
  -6  10 -24    4.58    5.01   1
  -6  10 -23    1.49    4.17   1
  -6  10 -22    1.00    3.70   1
  -6  10 -21    4.71    4.38   1
  -6  10 -20   -3.80    4.02   1
  -6  10 -19    9.42    3.99   1
  -6  10 -18    6.10    3.61   1
  -6  10 -17   11.70    4.31   1
  -6  10 -16   -2.50    3.29   1
  -6  10 -15   13.18    4.28   1
  -6  10 -14    4.58    3.38   1
  -6  10 -13   -1.90    2.40   1
  -6  10 -12    4.28    3.39   1
  -6  10 -11   14.82    3.70   1
  -6  10 -10    7.02    3.50   1
  -6  10  -9  303.46   14.63   1
  -6  10  -8   -3.10    2.89   1
  -6  10  -7    2.10    2.81   1
  -6  10  -6   -1.00    2.90   1
  -6  10  -5   12.53    3.40   1
  -6  10  -4   20.52    3.62   1
  -6  10  -3    6.81    3.03   1
  -6  10  -2    3.50    2.92   1
  -6  10  -1   -1.80    2.60   1
  -6  10   0    4.00    2.48   1
  -6  10   1    0.79    3.19   1
  -6  11 -26   -5.29    5.20   1
  -6  11 -25    2.19    5.30   1
  -6  11 -24   19.18    6.22   1
  -6  11 -23    8.01    5.09   1
  -6  11 -22    3.31    4.11   1
  -6  11 -21    6.71    4.30   1
  -6  11 -20   14.06    5.18   1
  -6  11 -19   -0.10    3.64   1
  -6  11 -18    3.80    4.41   1
  -6  11 -17   34.46   41.79   1
  -6  11 -16   10.11    4.32   1
  -6  11 -15   37.33    5.74   1
  -6  11 -14   10.11    4.20   1
  -6  11 -13   11.49    4.27   1
  -6  11 -12   17.72    4.46   1
  -6  11 -11   -0.10    3.85   1
  -6  11 -10    5.38    3.39   1
  -6  11  -9    6.92    3.79   1
  -6  11  -8    2.79    3.31   1
  -6  11  -7   11.63    3.61   1
  -6  11  -6   54.02    6.47   1
  -6  12 -21    1.00    5.70   1
  -6  12 -20   12.18    4.82   1
  -6  12 -19   11.09    5.39   1
  -6  12 -18   26.52    5.67   1
  -6  12 -17    0.90    4.71   1
  -6  12 -16    9.18    4.97   1
  -6  12 -15    1.10    4.41   1
  -6  12 -14   12.67    4.49   1
  -6  12 -13   -3.10    4.19   1
  -5 -14  -8    3.20    5.19   1
  -5 -14  -7   -6.50    4.69   1
  -5 -14  -6   -3.50    4.60   1
  -5 -14  -5    9.00    5.70   1
  -5 -14  -4    0.10    3.74   1
  -5 -14  -3   22.00    6.19   1
  -5 -14  -2   -3.50    5.01   1
  -5 -14  -1    4.71    5.29   1
  -5 -14   0   -5.81    4.82   1
  -5 -14   1    1.69    4.08   1
  -5 -14   2   10.50    5.38   1
  -5 -14   3    8.88    5.90   1
  -5 -14   4   12.53    5.38   1
  -5 -14   5    2.79    4.98   1
  -5 -14   6   15.92    5.83   1
  -5 -14   7   16.48    5.52   1
  -5 -14   9    1.30    4.49   1
  -5 -14  10    5.52    3.99   1
  -5 -13 -18   18.40    4.89   1
  -5 -13 -17    1.49    4.88   1
  -5 -13 -16   -3.88    3.31   1
  -5 -13 -15   10.69    5.30   1
  -5 -13 -14    8.88    3.52   1
  -5 -13 -13   -2.31    4.80   1
  -5 -13 -12   13.99    5.46   1
  -5 -13 -11   -2.19    4.29   1
  -5 -13 -10    6.60    4.63   1
  -5 -13  -9    5.38    4.41   1
  -5 -13  -8    5.11    3.48   1
  -5 -13  -7   12.32    4.98   1
  -5 -13  -6   25.40    5.24   1
  -5 -13  -5   -1.21    4.22   1
  -5 -13  -4    0.40    3.98   1
  -5 -13  -3    2.69    4.59   1
  -5 -13  -2    2.40    2.79   1
  -5 -13  -1    0.71    3.01   1
  -5 -13   0    2.10    4.29   1
  -5 -13   1    3.31    4.51   1
  -5 -13   2   -0.79    4.08   1
  -5 -13   3    4.71    4.60   1
  -5 -13   4    0.50    4.12   1
  -5 -13   5   19.71    4.97   1
  -5 -13   6   37.58    6.13   1
  -5 -13   7    9.30    4.57   1
  -5 -13   8   -6.60    4.32   1
  -5 -13   9    0.10    3.54   1
  -5 -13  10   -3.50    3.22   1
  -5 -13  11    4.28    3.19   1
  -5 -13  12   -2.99    3.01   1
  -5 -13  13    0.00    1.00   1
  -5 -13  14   -0.90    4.90   1
  -5 -13  15    2.99    4.19   1
  -5 -13  16    3.20    5.01   1
  -5 -13  17   -1.69    4.58   1
  -5 -13  18   18.32    6.59   1
  -5 -13  19    1.90    5.11   1
  -5 -13  20   -0.79    5.57   1
  -5 -12 -24   -4.58    5.18   1
  -5 -12 -23   -8.18    4.98   1
  -5 -12 -22    1.39    4.89   1
  -5 -12 -21    4.49    4.88   1
  -5 -12 -20    0.30    4.72   1
  -5 -12 -19    0.50    4.71   1
  -5 -12 -18    4.71    5.12   1
  -5 -12 -17    1.80    4.50   1
  -5 -12 -16   10.18    5.10   1
  -5 -12 -15   35.28    5.94   1
  -5 -12 -14   17.39    4.34   1
  -5 -12 -13    3.61    4.22   1
  -5 -12 -12    2.69    3.61   1
  -5 -12 -11   15.37    4.63   1
  -5 -12 -10    4.58    2.48   1
  -5 -12  -9    6.10    4.50   1
  -5 -12  -8   16.56    4.72   1
  -5 -12  -7    4.20    3.81   1
  -5 -12  -6  110.67    9.47   1
  -5 -12  -5    0.00    1.00   1
  -5 -12  -4    0.79    3.49   1
  -5 -12  -3    3.50    3.70   1
  -5 -12  -2   -1.49    3.29   1
  -5 -12  -1    2.19    3.70   1
  -5 -12   0   12.32    4.07   1
  -5 -12   1    1.80    2.39   1
  -5 -12   2   12.60    3.83   1
  -5 -12   3    3.20    3.69   1
  -5 -12   4    2.31    4.10   1
  -5 -12   5    6.60    4.21   1
  -5 -12   6   -1.69    3.80   1
  -5 -12   7    6.00    3.58   1
  -5 -12   8    3.88    2.80   1
  -5 -12   9    1.90    3.81   1
  -5 -12  10    1.39    4.08   1
  -5 -12  11   21.16    4.78   1
  -5 -12  12   46.10    6.25   1
  -5 -12  13   24.90    5.99   1
  -5 -12  14   -7.08    3.09   1
  -5 -12  15    3.10    4.08   1
  -5 -12  16    1.00    4.30   1
  -5 -12  17    1.10    4.91   1
  -5 -12  18    6.50    4.79   1
  -5 -12  19   -2.59    4.38   1
  -5 -12  20    1.39    4.89   1
  -5 -12  21   -2.50    4.49   1
  -5 -12  22   -5.62    4.69   1
  -5 -12  23   -0.79    3.38   1
  -5 -12  24   -0.79    3.49   1
  -5 -12  25    0.40    3.69   1
  -5 -12  26   -2.31    3.80   1
  -5 -11 -29    3.50    5.31   1
  -5 -11 -28   -4.80    3.29   1
  -5 -11 -27   36.60    6.53   1
  -5 -11 -26   -2.79    4.58   1
  -5 -11 -25   -3.20    5.01   1
  -5 -11 -24   24.60    5.46   1
  -5 -11 -23    0.40    3.98   1
  -5 -11 -22   10.82    4.41   1
  -5 -11 -21   27.77    5.16   1
  -5 -11 -20    1.49    4.07   1
  -5 -11 -19   -1.69    3.80   1
  -5 -11 -18    6.00    3.72   1
  -5 -11 -17   -0.30    3.72   1
  -5 -11 -16    4.28    3.60   1
  -5 -11 -15   -1.99    3.19   1
  -5 -11 -14    6.81    2.51   1
  -5 -11 -13    2.40    3.69   1
  -5 -11 -12    3.39    3.09   1
  -5 -11 -11    2.50    3.19   1
  -5 -11 -10    2.31    3.31   1
  -5 -11  -9   46.24    5.44   1
  -5 -11  -8   11.02    4.32   1
  -5 -11  -7   -1.69    3.09   1
  -5 -11  -6   11.22    3.89   1
  -5 -11  -5    4.49    2.59   1
  -5 -11  -4    0.59    2.88   1
  -5 -11  -3   -1.30    3.01   1
  -5 -11  -2   -2.99    3.01   1
  -5 -11  -1    3.80    3.20   1
  -5 -11   0    3.69    2.00   1
  -5 -11   1   -0.20    3.22   1
  -5 -11   2    5.62    3.41   1
  -5 -11   3    8.53    2.92   1
  -5 -11   4    3.61    3.19   1
  -5 -11   5   -0.40    3.19   1
  -5 -11   6  101.20    8.05   1
  -5 -11   7    5.71    3.49   1
  -5 -11   8    0.50    3.21   1
  -5 -11   9   28.41    5.12   1
  -5 -11  10    3.69    3.19   1
  -5 -11  11    3.39    3.39   1
  -5 -11  12   32.72    5.72   1
  -5 -11  13    1.69    3.09   1
  -5 -11  14    2.99    3.91   1
  -5 -11  15    0.90    4.41   1
  -5 -11  16    0.59    3.57   1
  -5 -11  17    4.88    3.89   1
  -5 -11  18    6.10    3.80   1
  -5 -11  19    8.58    4.22   1
  -5 -11  20    0.50    3.82   1
  -5 -11  21    0.20    3.82   1
  -5 -11  22    7.90    3.48   1
  -5 -11  23   16.56    5.21   1
  -5 -11  24  119.25   10.48   1
  -5 -11  25    5.52    4.61   1
  -5 -11  26    2.40    4.09   1
  -5 -11  27   27.14    5.31   1
  -5 -11  28    3.50    4.49   1
  -5 -11  29   16.73    5.64   1
  -5 -11  30   -4.49    4.58   1
  -5 -11  31    1.49    4.78   1
  -5 -10 -32   20.88    5.21   1
  -5 -10 -31   -3.31    4.51   1
  -5 -10 -30   -1.59    4.49   1
  -5 -10 -29    1.90    4.80   1
  -5 -10 -28    1.00    3.50   1
  -5 -10 -27    2.89    3.98   1
  -5 -10 -26    0.00    1.00   1
  -5 -10 -25    0.00    1.00   1
  -5 -10 -24    7.51    3.89   1
  -5 -10 -23    2.99    3.49   1
  -5 -10 -22    8.58    3.87   1
  -5 -10 -21   47.89    5.54   1
  -5 -10 -20   17.64    4.12   1
  -5 -10 -19   -3.10    3.31   1
  -5 -10 -18   19.89    4.46   1
  -5 -10 -17    1.30    3.10   1
  -5 -10 -16    1.90    3.09   1
  -5 -10 -15   68.06    7.26   1
  -5 -10 -14    8.58    3.11   1
  -5 -10 -13    7.40    2.88   1
  -5 -10 -12    4.28    2.98   1
  -5 -10 -11    0.10    2.63   1
  -5 -10 -10    5.62    2.89   1
  -5 -10  -9    2.79    2.71   1
  -5 -10  -8    1.10    2.79   1
  -5 -10  -7    8.29    3.23   1
  -5 -10  -6   64.96    4.19   1
  -5 -10  -5   24.40    3.56   1
  -5 -10  -4    9.61    3.10   1
  -5 -10  -3  127.92    8.37   1
  -5 -10  -2   44.36    4.26   1
  -5 -10  -1    1.90    2.59   1
  -5 -10   0   11.42    3.38   1
  -5 -10   1   -0.20    1.61   1
  -5 -10   2    1.90    2.82   1
  -5 -10   3   17.72    3.12   1
  -5 -10   4    0.20    2.41   1
  -5 -10   5   16.00    2.32   1
  -5 -10   6   10.37    3.22   1
  -5 -10   7   30.25    3.74   1
  -5 -10   8    7.29    3.08   1
  -5 -10  11    3.61    2.32   1
  -5 -10  12    1.49    3.20   1
  -5 -10  13    3.20    3.11   1
  -5 -10  14    2.99    3.18   1
  -5 -10  15   29.48    4.45   1
  -5 -10  16    2.79    2.30   1
  -5 -10  17    4.71    3.30   1
  -5 -10  18    7.08    3.67   1
  -5 -10  19   -0.40    2.68   1
  -5 -10  20    2.99    3.49   1
  -5 -10  21   28.30    5.21   1
  -5 -10  22    4.71    3.60   1
  -5 -10  23   -1.00    4.00   1
  -5 -10  24   -2.99    2.60   1
  -5 -10  25   21.72    5.31   1
  -5 -10  26   13.47    4.48   1
  -5 -10  27   11.49    4.61   1
  -5 -10  28    4.88    4.51   1
  -5 -10  29    0.20    4.43   1
  -5 -10  30    8.82    4.93   1
  -5 -10  31   -0.50    4.71   1
  -5 -10  32    6.40    4.81   1
  -5 -10  33   13.32    6.13   1
  -5 -10  34    2.69    5.18   1
  -5  -9 -35   -0.90    4.01   1
  -5  -9 -34   -5.11    3.12   1
  -5  -9 -33   -2.19    3.70   1
  -5  -9 -32    1.21    3.92   1
  -5  -9 -31    2.99    3.98   1
  -5  -9 -30    8.41    3.60   1
  -5  -9 -29    2.79    3.61   1
  -5  -9 -28    6.30    4.22   1
  -5  -9 -27  106.71    9.30   1
  -5  -9 -26   -1.49    3.20   1
  -5  -9 -25    4.71    2.99   1
  -5  -9 -24    0.90    3.00   1
  -5  -9 -23    3.80    3.20   1
  -5  -9 -22    0.79    3.49   1
  -5  -9 -21   -2.59    2.99   1
  -5  -9 -20    2.99    3.01   1
  -5  -9 -19    5.71    2.92   1
  -5  -9 -18   -0.30    2.82   1
  -5  -9 -17    1.21    2.71   1
  -5  -9 -16    1.49    2.49   1
  -5  -9 -15    7.51    2.79   1
  -5  -9 -14   12.82    3.01   1
  -5  -9 -13   -0.10    2.63   1
  -5  -9 -12   11.90    2.69   1
  -5  -9 -10   14.59    2.67   1
  -5  -9  -9  150.06   10.53   1
  -5  -9  -8   38.44    3.60   1
  -5  -9  -7    5.90    2.82   1
  -5  -9  -6    8.82    2.61   1
  -5  -9  -5    4.49    2.59   1
  -5  -9  -4   69.06    5.48   1
  -5  -9  -3   49.70    4.23   1
  -5  -9  -2   66.75    4.74   1
  -5  -9  -1   15.37    3.21   1
  -5  -9   0    3.39    2.39   1
  -5  -9   1    0.90    2.51   1
  -5  -9   2   -0.30    2.31   1
  -5  -9   3   19.18    3.07   1
  -5  -9   4   -1.80    2.20   1
  -5  -9   5    0.50    1.70   1
  -5  -9   6   60.84    5.46   1
  -5  -9   7   13.91    2.69   1
  -5  -9   8   27.46    3.56   1
  -5  -9   9  182.52   13.51   1
  -5  -9  10    6.30    2.81   1
  -5  -9  11    0.59    2.68   1
  -5  -9  12    0.00    1.00   1
  -5  -9  13    0.71    2.81   1
  -5  -9  14    1.69    4.29   1
  -5  -9  15   12.67    4.41   1
  -5  -9  16   19.98    3.67   1
  -5  -9  17    2.59    2.90   1
  -5  -9  18   55.65    5.37   1
  -5  -9  19   22.00    4.13   1
  -5  -9  20   14.52    3.58   1
  -5  -9  21    2.10    2.70   1
  -5  -9  22    0.10    3.24   1
  -5  -9  23   -2.40    3.60   1
  -5  -9  24   -0.50    2.91   1
  -5  -9  25    7.78    4.02   1
  -5  -9  26   -1.69    2.39   1
  -5  -9  27   39.06    5.75   1
  -5  -9  28    2.31    3.31   1
  -5  -9  29   -2.40    4.49   1
  -5  -9  30   -2.50    3.79   1
  -5  -9  31   13.10    5.43   1
  -5  -9  32    9.00    4.68   1
  -5  -9  33   18.58    5.26   1
  -5  -9  34   -3.80    4.91   1
  -5  -9  36    0.40    3.98   1
  -5  -9  37    8.70    5.07   1
  -5  -8 -38   11.29    6.32   1
  -5  -8 -37    8.58    4.51   1
  -5  -8 -36    5.81    4.29   1
  -5  -8 -35   14.90    5.10   1
  -5  -8 -34    5.81    4.00   1
  -5  -8 -33    9.99    3.73   1
  -5  -8 -32   -1.21    3.21   1
  -5  -8 -31   -1.30    3.19   1
  -5  -8 -30   21.53    4.36   1
  -5  -8 -29   17.39    3.92   1
  -5  -8 -28    1.49    2.98   1
  -5  -8 -27   -0.90    2.91   1
  -5  -8 -26   -0.59    2.99   1
  -5  -8 -25    0.30    2.82   1
  -5  -8 -24   -0.90    2.91   1
  -5  -8 -23    1.00    2.70   1
  -5  -8 -22    5.81    2.99   1
  -5  -8 -21   68.23    5.45   1
  -5  -8 -20    4.71    2.39   1
  -5  -8 -19    3.10    2.39   1
  -5  -8 -18   11.90    2.62   1
  -5  -8 -17    0.40    2.09   1
  -5  -8 -16    3.80    2.42   1
  -5  -8 -15    3.80    2.42   1
  -5  -8 -14    6.40    2.28   1
  -5  -8 -13    7.18    2.57   1
  -5  -8 -12   16.48    2.52   1
  -5  -8 -11   -0.90    2.11   1
  -5  -8 -10   -1.21    1.50   1
  -5  -8  -9  101.81    6.46   1
  -5  -8  -8    4.58    2.40   1
  -5  -8  -7   -1.59    1.99   1
  -5  -8  -6  195.44   12.02   1
  -5  -8  -5   24.30    3.16   1
  -5  -8  -4   53.00    4.80   1
  -5  -8  -3  211.41   11.63   1
  -5  -8  -2  133.86    8.10   1
  -5  -8  -1    1.39    1.70   1
  -5  -8   0   -1.21    1.80   1
  -5  -8   1   13.62    2.73   1
  -5  -8   2    9.12    2.48   1
  -5  -8   3  105.68    7.20   1
  -5  -8   4   10.50    2.92   1
  -5  -8   5    0.40    2.29   1
  -5  -8   6   54.61    4.73   1
  -5  -8   7   13.62    2.73   1
  -5  -8   8   -1.10    2.20   1
  -5  -8   9   12.60    2.91   1
  -5  -8  10    1.30    2.01   1
  -5  -8  11   10.82    2.43   1
  -5  -8  12   54.32    4.86   1
  -5  -8  13   17.72    3.12   1
  -5  -8  14   33.76    4.76   1
  -5  -8  15  350.06   16.46   1
  -5  -8  16   -3.10    2.11   1
  -5  -8  17    3.69    2.61   1
  -5  -8  18   11.29    3.09   1
  -5  -8  19    2.69    4.00   1
  -5  -8  20    1.10    2.60   1
  -5  -8  21    4.49    2.29   1
  -5  -8  22    4.00    3.28   1
  -5  -8  23    0.50    2.71   1
  -5  -8  24    5.52    3.29   1
  -5  -8  25    5.81    2.51   1
  -5  -8  26    3.10    3.10   1
  -5  -8  27   39.94    5.44   1
  -5  -8  28   -3.20    3.29   1
  -5  -8  29   -0.10    3.34   1
  -5  -8  30   12.60    4.19   1
  -5  -8  31   -0.50    3.82   1
  -5  -8  32    0.71    3.61   1
  -5  -8  33   -1.69    4.08   1
  -5  -8  34    2.99    4.19   1
  -5  -8  35   10.11    4.71   1
  -5  -8  36    8.18    5.09   1
  -5  -8  37    1.59    4.79   1
  -5  -8  38    6.10    3.80   1
  -5  -8  39   27.88    6.55   1
  -5  -8  40   -1.99    5.39   1
  -5  -7 -40    1.80    4.58   1
  -5  -7 -39   13.03    4.62   1
  -5  -7 -38   -3.50    4.60   1
  -5  -7 -37   -3.39    4.49   1
  -5  -7 -36   63.68    6.70   1
  -5  -7 -35   -0.50    3.21   1
  -5  -7 -34    7.62    4.08   1
  -5  -7 -33    6.92    2.68   1
  -5  -7 -32   -0.90    3.31   1
  -5  -7 -31    1.30    3.49   1
  -5  -7 -30   18.06    3.91   1
  -5  -7 -29   -3.80    3.00   1
  -5  -7 -28   14.90    3.78   1
  -5  -7 -27    0.90    2.60   1
  -5  -7 -26    1.49    2.78   1
  -5  -7 -25    8.18    3.09   1
  -5  -7 -24  124.99    8.50   1
  -5  -7 -23    2.59    2.38   1
  -5  -7 -22    4.71    2.21   1
  -5  -7 -21    4.71    2.60   1
  -5  -7 -20   -0.90    1.99   1
  -5  -7 -19    2.69    1.90   1
  -5  -7 -18    6.00    2.30   1
  -5  -7 -17    2.10    1.60   1
  -5  -7 -15   82.63    6.54   1
  -5  -7 -14    2.40    1.89   1
  -5  -7 -13    3.20    2.29   1
  -5  -7 -12  114.28    7.48   1
  -5  -7 -11   -0.50    1.90   1
  -5  -7 -10   45.56    3.24   1
  -5  -7  -9  274.90   11.61   1
  -5  -7  -8  369.41   15.76   1
  -5  -7  -7   11.90    2.41   1
  -5  -7  -6  171.35    9.16   1
  -5  -7  -5   29.92    2.84   1
  -5  -7  -4   16.08    2.57   1
  -5  -7  -3   46.24    3.67   1
  -5  -7  -2   39.19    4.76   1
  -5  -7  -1   17.47    3.01   1
  -5  -7   0  212.28   10.20   1
  -5  -7   1   10.63    1.83   1
  -5  -7   2    9.49    2.09   1
  -5  -7   3    3.88    1.81   1
  -5  -7   4    9.80    1.82   1
  -5  -7   5    4.58    1.80   1
  -5  -7   6   49.84    3.67   1
  -5  -7   7    0.59    1.69   1
  -5  -7   8    4.49    1.78   1
  -5  -7   9   29.48    2.28   1
  -5  -7  10   52.13    4.04   1
  -5  -7  11   23.81    3.03   1
  -5  -7  12    2.31    1.49   1
  -5  -7  13   42.64    3.66   1
  -5  -7  14    5.90    2.38   1
  -5  -7  15   36.72    3.76   1
  -5  -7  16    6.71    2.02   1
  -5  -7  17    7.02    2.81   1
  -5  -7  18  128.14    8.60   1
  -5  -7  19   25.60    3.54   1
  -5  -7  20    0.59    2.68   1
  -5  -7  21    6.81    2.19   1
  -5  -7  22   -1.49    2.39   1
  -5  -7  23    9.67    2.99   1
  -5  -7  24   82.08    6.89   1
  -5  -7  25    3.50    2.81   1
  -5  -7  26   31.25    4.25   1
  -5  -7  27   27.56    4.93   1
  -5  -7  28  164.10    9.99   1
  -5  -7  29   23.43    5.03   1
  -5  -7  30    1.90    3.20   1
  -5  -7  32    2.40    3.60   1
  -5  -7  33   -2.69    3.38   1
  -5  -7  34    8.18    4.69   1
  -5  -7  35   -3.20    4.30   1
  -5  -7  36   27.56    5.14   1
  -5  -7  37    0.79    4.08   1
  -5  -7  38   -1.69    3.09   1
  -5  -7  39    0.79    4.68   1
  -5  -7  40   74.65    8.64   1
  -5  -7  41    5.11    5.60   1
  -5  -7  42   11.22    4.09   1
  -5  -6 -42    7.90    4.61   1
  -5  -6 -41    1.00    4.20   1
  -5  -6 -40    9.92    4.41   1
  -5  -6 -39   17.64    4.20   1
  -5  -6 -38    2.59    3.80   1
  -5  -6 -37    4.58    4.11   1
  -5  -6 -36   24.70    3.78   1
  -5  -6 -35   -0.71    3.51   1
  -5  -6 -34   25.10    4.71   1
  -5  -6 -33   14.06    3.60   1
  -5  -6 -32    2.31    3.01   1
  -5  -6 -31   10.50    3.50   1
  -5  -6 -30  109.41    7.53   1
  -5  -6 -29    8.82    2.91   1
  -5  -6 -28    2.50    3.10   1
  -5  -6 -27   32.60    3.77   1
  -5  -6 -26   31.25    3.91   1
  -5  -6 -25    0.50    2.41   1
  -5  -6 -24  152.52   10.87   1
  -5  -6 -23   20.70    3.37   1
  -5  -6 -22    2.50    2.21   1
  -5  -6 -21   14.90    3.63   1
  -5  -6 -20    0.00    1.00   1
  -5  -6 -19    6.50    2.19   1
  -5  -6 -18  308.35   13.70   1
  -5  -6 -17   17.14    2.73   1
  -5  -6 -16    7.02    2.23   1
  -5  -6 -15   38.56    3.85   1
  -5  -6 -14    1.49    2.29   1
  -5  -6 -13   -0.90    1.31   1
  -5  -6 -13    1.10    1.60   1
  -5  -6 -12  112.36    5.51   1
  -5  -6 -12   73.27    5.48   1
  -5  -6 -11    9.61    1.92   1
  -5  -6 -10   27.14    2.40   1
  -5  -6  -9  204.20   12.00   1
  -5  -6  -8  135.26    6.51   1
  -5  -6  -7    1.69    1.59   1
  -5  -6  -5    0.71    1.61   1
  -5  -6  -4    2.89    1.50   1
  -5  -6  -3   10.30    1.93   1
  -5  -6  -2    8.01    1.81   1
  -5  -6  -1   -0.10    1.41   1
  -5  -6   0   32.60    2.63   1
  -5  -6   1   -0.40    1.40   1
  -5  -6   2   -0.10    1.41   1
  -5  -6   3   22.56    2.47   1
  -5  -6   4   10.30    1.99   1
  -5  -6   5    4.71    1.82   1
  -5  -6   6  107.54    5.81   1
  -5  -6   7    3.69    1.88   1
  -5  -6   8    9.61    2.23   1
  -5  -6   9   11.22    2.08   1
  -5  -6  10   51.55    3.88   1
  -5  -6  11   25.70    2.84   1
  -5  -6  13   22.56    2.66   1
  -5  -6  14    3.10    2.18   1
  -5  -6  15   26.83    3.32   1
  -5  -6  16    3.31    2.00   1
  -5  -6  17   -1.99    2.09   1
  -5  -6  18   22.18    3.01   1
  -5  -6  19    1.99    2.20   1
  -5  -6  20    0.71    2.10   1
  -5  -6  21   28.94    3.55   1
  -5  -6  22   14.21    2.87   1
  -5  -6  23    3.80    2.50   1
  -5  -6  24   50.55    4.27   1
  -5  -6  25   34.81    4.25   1
  -5  -6  26   68.56    5.46   1
  -5  -6  27   53.44    4.97   1
  -5  -6  28    1.99    2.79   1
  -5  -6  29   46.10    5.16   1
  -5  -6  30  307.65   18.59   1
  -5  -6  31  108.16    8.11   1
  -5  -6  32   25.70    4.46   1
  -5  -6  33   40.45    4.83   1
  -5  -6  34    6.81    3.91   1
  -5  -6  35   -3.10    3.20   1
  -5  -6  36    6.10    3.11   1
  -5  -6  37    8.01    4.08   1
  -5  -6  38   19.01    4.88   1
  -5  -6  41    9.12    5.19   1
  -5  -5 -43    4.71    4.30   1
  -5  -5 -42   16.08    4.81   1
  -5  -5 -41   -3.31    3.60   1
  -5  -5 -40   21.72    5.03   1
  -5  -5 -39    4.88    4.38   1
  -5  -5 -38    4.88    3.89   1
  -5  -5 -37   11.97    3.39   1
  -5  -5 -36  127.46    9.26   1
  -5  -5 -35   14.06    3.38   1
  -5  -5 -34   -1.21    3.21   1
  -5  -5 -33   31.02    4.46   1
  -5  -5 -32   13.40    3.22   1
  -5  -5 -31   -1.59    2.90   1
  -5  -5 -30   33.52    4.05   1
  -5  -5 -29   15.60    3.40   1
  -5  -5 -28    5.02    2.82   1
  -5  -5 -27   26.11    3.58   1
  -5  -5 -26    4.71    2.52   1
  -5  -5 -25    3.20    2.11   1
  -5  -5 -24    4.71    2.08   1
  -5  -5 -23   32.26    3.64   1
  -5  -5 -22    2.31    1.92   1
  -5  -5 -21    0.40    1.89   1
  -5  -5 -20   19.10    2.10   1
  -5  -5 -20   12.89    2.30   1
  -5  -5 -19    9.49    2.22   1
  -5  -5 -19    9.92    1.83   1
  -5  -5 -18  325.44   19.84   1
  -5  -5 -18  269.29   13.46   1
  -5  -5 -17    1.80    1.29   1
  -5  -5 -17    0.71    1.71   1
  -5  -5 -16   10.37    1.80   1
  -5  -5 -16   10.69    2.29   1
  -5  -5 -15   -1.10    1.20   1
  -5  -5 -15    0.00    1.00   1
  -5  -5 -14    1.99    1.49   1
  -5  -5 -14    2.79    1.30   1
  -5  -5 -13    1.49    1.20   1
  -5  -5 -13    5.11    1.08   1
  -5  -5 -12    1.30    1.21   1
  -5  -5 -12   -0.10    1.11   1
  -5  -5 -11    5.38    1.30   1
  -5  -5 -11    6.71    1.50   1
  -5  -5 -10   23.33    2.13   1
  -5  -5 -10   13.62    1.92   1
  -5  -5  -9  173.19   10.26   1
  -5  -5  -9  132.71    6.68   1
  -5  -5  -8   49.70    3.24   1
  -5  -5  -7    1.39    1.39   1
  -5  -5  -6   16.81    2.21   1
  -5  -5  -5   36.24    2.77   1
  -5  -5  -4    3.39    1.40   1
  -5  -5  -2   18.49    1.89   1
  -5  -5  -1   -0.90    1.50   1
  -5  -5   0    1.21    1.30   1
  -5  -5   1    0.50    1.21   1
  -5  -5   2   10.69    1.83   1
  -5  -5   3   10.11    1.59   1
  -5  -5   4    0.90    1.31   1
  -5  -5   5    6.81    1.72   1
  -5  -5   6  343.36   14.45   1
  -5  -5   7   14.21    2.11   1
  -5  -5   8    2.50    1.20   1
  -5  -5   9   22.47    2.18   1
  -5  -5  10    0.79    0.89   1
  -5  -5  11    4.58    1.71   1
  -5  -5  12   12.53    1.98   1
  -5  -5  13   37.95    3.45   1
  -5  -5  14   34.69    3.65   1
  -5  -5  15  183.06   11.64   1
  -5  -5  16   16.56    2.60   1
  -5  -5  17    9.12    2.30   1
  -5  -5  18  246.49   12.25   1
  -5  -5  19    2.69    2.10   1
  -5  -5  20   52.56    4.79   1
  -5  -5  21    8.18    2.57   1
  -5  -5  22    2.31    2.22   1
  -5  -5  23   39.94    4.04   1
  -5  -5  24  475.68   21.81   1
  -5  -5  25  217.56   11.50   1
  -5  -5  26    1.30    2.60   1
  -5  -5  27  320.77   15.40   1
  -5  -5  28   33.87    3.84   1
  -5  -5  29   31.92    4.29   1
  -5  -5  30    1.59    2.80   1
  -5  -5  31   97.42    6.32   1
  -5  -5  32    8.12    3.42   1
  -5  -5  33   39.56    4.91   1
  -5  -5  34    3.31    3.49   1
  -5  -5  35    1.30    3.31   1
  -5  -5  37   13.03    3.10   1
  -5  -5  38    2.10    4.00   1
  -5  -5  41    1.59    4.38   1
  -5  -5  42   18.06    5.10   1
  -5  -5  43   10.50    5.12   1
  -5  -5  44   -0.30    3.72   1
  -5  -5  45   17.89    6.18   1
  -5  -4 -44    8.88    4.11   1
  -5  -4 -43   12.32    4.49   1
  -5  -4 -42    2.10    4.49   1
  -5  -4 -41    3.39    3.79   1
  -5  -4 -40   -0.10    3.95   1
  -5  -4 -39  112.78    9.13   1
  -5  -4 -38   -0.10    3.14   1
  -5  -4 -37   -0.20    3.12   1
  -5  -4 -36   -1.49    3.10   1
  -5  -4 -35    4.49    3.10   1
  -5  -4 -34   -1.00    2.80   1
  -5  -4 -33   43.96    4.64   1
  -5  -4 -32   -2.31    2.61   1
  -5  -4 -31   10.30    3.08   1
  -5  -4 -30   22.28    3.49   1
  -5  -4 -29    4.00    2.40   1
  -5  -4 -28   15.60    2.77   1
  -5  -4 -27    6.71    2.38   1
  -5  -4 -26   -0.20    1.91   1
  -5  -4 -26    4.08    2.18   1
  -5  -4 -25   -0.90    1.90   1
  -5  -4 -25   -0.50    1.80   1
  -5  -4 -24   27.35    3.24   1
  -5  -4 -24   31.25    3.24   1
  -5  -4 -23    1.10    1.70   1
  -5  -4 -23   -0.59    1.99   1
  -5  -4 -22   -0.30    1.41   1
  -5  -4 -22   -0.50    1.70   1
  -5  -4 -21  301.02   17.00   1
  -5  -4 -21  257.92   11.56   1
  -5  -4 -20  118.81    5.67   1
  -5  -4 -20  101.40    5.64   1
  -5  -4 -19    1.90    1.30   1
  -5  -4 -19    2.69    1.61   1
  -5  -4 -18  130.19    6.85   1
  -5  -4 -18  162.05    7.38   1
  -5  -4 -17    2.40    1.61   1
  -5  -4 -17    4.08    1.41   1
  -5  -4 -16    6.30    1.51   1
  -5  -4 -16    7.08    1.81   1
  -5  -4 -15   10.11    1.78   1
  -5  -4 -15    6.60    1.59   1
  -5  -4 -14    2.19    1.30   1
  -5  -4 -14    1.80    1.21   1
  -5  -4 -13    6.60    1.70   1
  -5  -4 -13    4.58    1.41   1
  -5  -4 -12   15.68    1.98   1
  -5  -4 -12   15.21    1.87   1
  -5  -4 -11   -0.30    0.90   1
  -5  -4 -11    0.40    1.00   1
  -5  -4 -10    0.20    1.01   1
  -5  -4 -10    0.50    1.21   1
  -5  -4  -9   80.64    4.31   1
  -5  -4  -9  102.41    4.66   1
  -5  -4  -8    1.10    1.01   1
  -5  -4  -8    0.20    1.01   1
  -5  -4  -7    7.08    1.22   1
  -5  -4  -7    7.62    1.71   1
  -5  -4  -6   29.59    2.07   1
  -5  -4  -6   23.72    2.14   1
  -5  -4  -5    2.31    1.09   1
  -5  -4  -5    2.59    1.00   1
  -5  -4  -4   12.11    1.53   1
  -5  -4  -4   16.97    1.98   1
  -5  -4  -3  217.86   10.33   1
  -5  -4  -1   53.88    3.08   1
  -5  -4   0   46.24    3.13   1
  -5  -4   1  128.82    7.04   1
  -5  -4   2    6.81    1.41   1
  -5  -4   3  164.35    8.72   1
  -5  -4   4  220.52    9.50   1
  -5  -4   5   28.52    2.35   1
  -5  -4   6  750.21   29.03   1
  -5  -4   7   13.91    2.01   1
  -5  -4   9    9.30    1.52   1
  -5  -4  10    6.60    1.59   1
  -5  -4  11    5.20    1.50   1
  -5  -4  12  129.96    7.07   1
  -5  -4  13    0.30    1.00   1
  -5  -4  14   15.68    1.82   1
  -5  -4  15  134.33    7.88   1
  -5  -4  16   35.05    3.55   1
  -5  -4  17    2.10    1.71   1
  -5  -4  18   92.35    6.34   1
  -5  -4  19    5.71    1.91   1
  -5  -4  20   49.70    3.95   1
  -5  -4  21  423.54   24.28   1
  -5  -4  22   37.70    3.19   1
  -5  -4  23   32.04    3.28   1
  -5  -4  24  224.40   12.88   1
  -5  -4  25  128.60    7.94   1
  -5  -4  26   26.94    3.84   1
  -5  -4  27   54.17    4.12   1
  -5  -4  28    3.88    2.68   1
  -5  -4  29   38.44    4.34   1
  -5  -4  30   19.36    3.26   1
  -5  -4  31   36.48    4.83   1
  -5  -4  32    0.10    3.03   1
  -5  -4  35    0.90    3.40   1
  -5  -4  37    0.20    3.12   1
  -5  -4  46    1.99    3.58   1
  -5  -3 -45   25.20    5.82   1
  -5  -3 -44    2.40    3.91   1
  -5  -3 -43    0.30    3.31   1
  -5  -3 -42   22.00    4.88   1
  -5  -3 -41    8.41    3.89   1
  -5  -3 -40   -0.30    3.52   1
  -5  -3 -39    2.19    3.49   1
  -5  -3 -38    2.89    2.89   1
  -5  -3 -37   20.52    3.90   1
  -5  -3 -36    2.31    2.61   1
  -5  -3 -35    0.79    2.69   1
  -5  -3 -34   -1.59    2.60   1
  -5  -3 -33   40.96    4.74   1
  -5  -3 -32   -2.10    2.41   1
  -5  -3 -31    3.31    2.29   1
  -5  -3 -31    0.30    2.31   1
  -5  -3 -30   19.80    3.11   1
  -5  -3 -30   18.84    3.12   1
  -5  -3 -29    7.08    3.19   1
  -5  -3 -29    7.40    2.28   1
  -5  -3 -28    8.01    2.60   1
  -5  -3 -28    7.40    2.12   1
  -5  -3 -27  107.74    7.27   1
  -5  -3 -27   87.24    6.54   1
  -5  -3 -26   25.20    2.81   1
  -5  -3 -26   26.32    3.39   1
  -5  -3 -25    1.49    1.78   1
  -5  -3 -25    1.59    1.89   1
  -5  -3 -24   61.15    4.54   1
  -5  -3 -24   60.68    4.05   1
  -5  -3 -23   10.82    2.43   1
  -5  -3 -23    8.53    1.81   1
  -5  -3 -22    1.99    1.38   1
  -5  -3 -22    1.39    2.01   1
  -5  -3 -21    2.59    1.80   1
  -5  -3 -21    1.99    1.49   1
  -5  -3 -20   27.04    2.60   1
  -5  -3 -20   17.98    2.20   1
  -5  -3 -19    2.19    1.51   1
  -5  -3 -19    3.31    1.71   1
  -5  -3 -18  102.01    5.66   1
  -5  -3 -18   84.09    6.24   1
  -5  -3 -17   35.88    2.76   1
  -5  -3 -17   26.63    2.48   1
  -5  -3 -16    4.20    1.39   1
  -5  -3 -16    2.19    1.18   1
  -5  -3 -15  199.09   11.29   1
  -5  -3 -15  265.04   11.40   1
  -5  -3 -14    1.80    1.29   1
  -5  -3 -14    0.00    1.00   1
  -5  -3 -13    2.10    1.31   1
  -5  -3 -13    0.59    1.00   1
  -5  -3 -12    4.41    1.30   1
  -5  -3 -12    2.50    1.49   1
  -5  -3 -11   43.43    3.03   1
  -5  -3 -11   40.70    3.06   1
  -5  -3 -10    2.10    0.90   1
  -5  -3  -9  514.84   23.60   1
  -5  -3  -8    2.69    0.89   1
  -5  -3  -7    2.89    1.19   1
  -5  -3  -7    0.40    0.79   1
  -5  -3  -6  159.77    8.09   1
  -5  -3  -6  227.10   10.25   1
  -5  -3  -5   79.21    4.27   1
  -5  -3  -5  105.06    5.54   1
  -5  -3  -4   22.94    1.63   1
  -5  -3  -4   34.22    2.57   1
  -5  -3  -3  529.00   25.76   1
  -5  -3  -3  726.84   30.73   1
  -5  -3  -2   43.43    2.90   1
  -5  -3  -2   37.33    2.20   1
  -5  -3  -1    9.92    1.07   1
  -5  -3  -1   14.82    1.77   1
  -5  -3   0    5.02    1.21   1
  -5  -3   0    6.00    1.52   1
  -5  -3   1   25.91    2.14   1
  -5  -3   2    1.99    0.79   1
  -5  -3   3   40.45    2.54   1
  -5  -3   4    2.99    1.21   1
  -5  -3   5   81.18    4.69   1
  -5  -3   6   26.21    2.46   1
  -5  -3   7  662.03   27.27   1
  -5  -3   8   -1.00    1.10   1
  -5  -3   9  402.00   18.45   1
  -5  -3  10   33.64    2.55   1
  -5  -3  11   45.29    3.10   1
  -5  -3  12   39.19    3.13   1
  -5  -3  13   77.97    4.41   1
  -5  -3  14    0.40    1.50   1
  -5  -3  15  119.46    5.47   1
  -5  -3  16    7.02    1.70   1
  -5  -3  17    0.50    1.60   1
  -5  -3  18    2.59    1.71   1
  -5  -3  19   33.64    3.36   1
  -5  -3  20    4.41    1.60   1
  -5  -3  21   48.44    4.45   1
  -5  -3  22   19.36    2.73   1
  -5  -3  23   61.15    4.22   1
  -5  -3  24    0.79    1.58   1
  -5  -3  25  186.60   12.29   1
  -5  -3  26    7.67    2.77   1
  -5  -3  27  114.49    7.70   1
  -5  -3  30   17.47    3.18   1
  -5  -3  31   44.09    4.38   1
  -5  -3  32    5.02    3.00   1
  -5  -3  37    8.88    2.92   1
  -5  -3  38    2.69    3.38   1
  -5  -3  39   -1.49    2.59   1
  -5  -3  42    2.40    3.41   1
  -5  -2 -45    4.20    4.10   1
  -5  -2 -44   -2.40    4.22   1
  -5  -2 -43   26.83    4.97   1
  -5  -2 -42    3.61    3.80   1
  -5  -2 -41    6.10    3.41   1
  -5  -2 -40    2.10    3.10   1
  -5  -2 -39   88.36    6.58   1
  -5  -2 -38   18.92    3.83   1
  -5  -2 -37    0.40    2.60   1
  -5  -2 -37    4.41    3.61   1
  -5  -2 -36   -4.00    2.72   1
  -5  -2 -36    1.59    3.18   1
  -5  -2 -35    1.21    2.90   1
  -5  -2 -35    0.71    3.11   1
  -5  -2 -34    6.30    2.81   1
  -5  -2 -34    0.30    2.82   1
  -5  -2 -33    5.62    2.61   1
  -5  -2 -33    9.80    3.13   1
  -5  -2 -32    5.90    2.38   1
  -5  -2 -32    5.11    2.62   1
  -5  -2 -31    3.20    2.51   1
  -5  -2 -31    2.10    2.09   1
  -5  -2 -30   -0.79    2.30   1
  -5  -2 -30   -2.19    1.98   1
  -5  -2 -29   11.29    2.82   1
  -5  -2 -29   14.06    2.40   1
  -5  -2 -28   15.68    2.30   1
  -5  -2 -28   22.66    2.86   1
  -5  -2 -27   62.41    4.58   1
  -5  -2 -27   52.56    4.06   1
  -5  -2 -26    8.29    1.79   1
  -5  -2 -26    6.20    2.19   1
  -5  -2 -25    7.08    1.81   1
  -5  -2 -25   10.11    2.29   1
  -5  -2 -24  123.88    8.68   1
  -5  -2 -24  140.66    8.30   1
  -5  -2 -23    7.29    1.67   1
  -5  -2 -23    8.70    2.42   1
  -5  -2 -22    2.50    1.90   1
  -5  -2 -22    4.00    1.80   1
  -5  -2 -21    1.80    1.21   1
  -5  -2 -21   -1.30    1.71   1
  -5  -2 -20    9.99    1.90   1
  -5  -2 -20    8.29    1.90   1
  -5  -2 -19   16.40    2.51   1
  -5  -2 -19   20.61    2.27   1
  -5  -2 -18    6.30    1.41   1
  -5  -2 -18    4.71    1.61   1
  -5  -2 -17    0.90    1.50   1
  -5  -2 -17   -0.20    1.01   1
  -5  -2 -16   19.98    2.41   1
  -5  -2 -16   14.52    1.83   1
  -5  -2 -15   55.06    3.56   1
  -5  -2 -15   55.80    3.88   1
  -5  -2 -14    6.60    1.18   1
  -5  -2 -14   12.60    1.99   1
  -5  -2 -13   19.89    1.61   1
  -5  -2 -13   20.16    2.07   1
  -5  -2 -12  157.25   11.29   1
  -5  -2 -12  144.72    7.70   1
  -5  -2 -12  176.36    7.44   1
  -5  -2 -11    2.59    0.90   1
  -5  -2 -11    1.80    1.10   1
  -5  -2 -11    3.80    1.48   1
  -5  -2 -10    9.18    1.21   1
  -5  -2 -10    9.99    1.58   1
  -5  -2  -9   25.40    2.12   1
  -5  -2  -9   44.49    2.80   1
  -5  -2  -8   20.79    2.19   1
  -5  -2  -8   16.56    1.30   1
  -5  -2  -7   37.33    2.69   1
  -5  -2  -7   28.73    2.14   1
  -5  -2  -6  891.02   40.60   1
  -5  -2  -6 1111.56   42.68   1
  -5  -2  -5   34.81    2.83   1
  -5  -2  -5   25.91    2.14   1
  -5  -2  -4    8.01    1.08   1
  -5  -2  -4    9.42    1.41   1
  -5  -2  -3   17.64    2.44   1
  -5  -2  -3    8.01    1.02   1
  -5  -2  -2    2.99    0.80   1
  -5  -2  -2    8.70    1.59   1
  -5  -2  -1    3.10    0.92   1
  -5  -2  -1    4.00    1.20   1
  -5  -2   0   35.05    2.72   1
  -5  -2   0   30.58    1.99   1
  -5  -2   1  101.00    5.23   1
  -5  -2   1   69.56    3.34   1
  -5  -2   2    6.20    0.90   1
  -5  -2   2    9.99    1.71   1
  -5  -2   3   88.36    5.83   1
  -5  -2   4   14.90    1.47   1
  -5  -2   5   13.18    1.52   1
  -5  -2   6    0.59    0.80   1
  -5  -2   7   15.52    1.50   1
  -5  -2   8   27.67    2.00   1
  -5  -2   9  183.33    8.67   1
  -5  -2  10    4.58    1.20   1
  -5  -2  11    2.79    1.20   1
  -5  -2  12  540.56   22.78   1
  -5  -2  13   12.82    1.72   1
  -5  -2  14   -0.40    1.30   1
  -5  -2  15    0.20    1.51   1
  -5  -2  16    5.38    1.39   1
  -5  -2  17    0.20    1.11   1
  -5  -2  18   55.65    3.73   1
  -5  -2  20    6.81    1.83   1
  -5  -2  21  410.87   19.05   1
  -5  -2  22    1.39    1.70   1
  -5  -2  23    0.90    1.31   1
  -5  -2  24  118.37    7.18   1
  -5  -2  31    0.10    1.62   1
  -5  -2  37    5.02    2.42   1
  -5  -2  41    4.88    2.92   1
  -5  -2  45   -1.30    3.31   1
  -5  -1 -46   -1.90    4.91   1
  -5  -1 -45   43.03    5.51   1
  -5  -1 -44    7.90    4.50   1
  -5  -1 -43    5.71    3.82   1
  -5  -1 -42   18.40    4.80   1
  -5  -1 -42   19.89    4.28   1
  -5  -1 -41    2.40    3.50   1
  -5  -1 -41    2.50    4.20   1
  -5  -1 -40    3.80    3.32   1
  -5  -1 -40    4.41    3.99   1
  -5  -1 -39   15.13    3.89   1
  -5  -1 -39   20.61    4.72   1
  -5  -1 -38    7.08    3.51   1
  -5  -1 -38    2.40    3.81   1
  -5  -1 -37    1.49    2.78   1
  -5  -1 -37    2.99    3.60   1
  -5  -1 -36  226.80   10.84   1
  -5  -1 -36  204.49   11.73   1
  -5  -1 -35   -1.49    2.49   1
  -5  -1 -35    0.90    2.91   1
  -5  -1 -34   -0.20    2.92   1
  -5  -1 -34    2.10    2.29   1
  -5  -1 -33   84.09    6.24   1
  -5  -1 -33   92.54    5.96   1
  -5  -1 -32    1.21    2.42   1
  -5  -1 -32    2.59    2.00   1
  -5  -1 -31    0.79    3.08   1
  -5  -1 -31   -1.30    2.01   1
  -5  -1 -30   72.76    7.17   1
  -5  -1 -30   74.65    4.67   1
  -5  -1 -29    3.10    2.18   1
  -5  -1 -29    3.69    2.38   1
  -5  -1 -28    0.30    1.51   1
  -5  -1 -28    2.89    2.11   1
  -5  -1 -26   -1.00    2.10   1
  -5  -1 -26   -0.59    1.39   1
  -5  -1 -25    1.30    2.10   1
  -5  -1 -24    1.69    1.79   1
  -5  -1 -24    2.10    1.39   1
  -5  -1 -23   26.21    2.97   1
  -5  -1 -23   25.30    2.41   1
  -5  -1 -22   17.22    2.49   1
  -5  -1 -22   12.18    1.88   1
  -5  -1 -21   73.27    4.96   1
  -5  -1 -21   87.05    5.04   1
  -5  -1 -20   78.85    4.80   1
  -5  -1 -20   91.78    5.75   1
  -5  -1 -19   -0.40    1.10   1
  -5  -1 -19    1.69    1.59   1
  -5  -1 -18  409.66   20.64   1
  -5  -1 -17    3.88    1.50   1
  -5  -1 -17    2.79    1.20   1
  -5  -1 -16    0.71    1.51   1
  -5  -1 -16    0.20    0.91   1
  -5  -1 -15    1.80    0.91   1
  -5  -1 -15    0.71    1.01   1
  -5  -1 -14   16.48    1.87   1
  -5  -1 -14   16.73    1.47   1
  -5  -1 -14   15.76    1.83   1
  -5  -1 -13   -0.90    1.41   1
  -5  -1 -13   -0.79    1.00   1
  -5  -1 -13   -0.30    0.80   1
  -5  -1 -12  395.21   16.70   1
  -5  -1 -12  380.64   16.39   1
  -5  -1 -12  327.97   14.49   1
  -5  -1 -11    1.59    0.81   1
  -5  -1 -11    0.40    0.79   1
  -5  -1 -11    0.10    1.32   1
  -5  -1 -10   -0.20    0.60   1
  -5  -1 -10    1.30    1.09   1
  -5  -1 -10    2.50    0.60   1
  -5  -1  -9   -0.10    0.61   1
  -5  -1  -9  403.21   11.65   1
  -5  -1  -9  356.83    8.69   1
  -5  -1  -8   42.38    2.34   1
  -5  -1  -8   54.17    3.53   1
  -5  -1  -7   32.83    2.52   1
  -5  -1  -7   24.11    1.37   1
  -5  -1  -6  100.40    5.01   1
  -5  -1  -5  280.56   11.39   1
  -5  -1  -5  228.01   10.27   1
  -5  -1  -4   -0.10    1.11   1
  -5  -1  -4    0.90    0.49   1
  -5  -1  -3  474.37   22.22   1
  -5  -1  -2    0.00    1.00   1
  -5  -1  -2    2.19    1.30   1
  -5  -1  -1   14.67    1.99   1
  -5  -1   0  478.73   18.38   1
  -5  -1   1   23.43    1.26   1
  -5  -1   1   25.30    2.41   1
  -5  -1   2   -0.59    1.00   1
  -5  -1   2    0.40    0.69   1
  -5  -1   3  157.75    7.54   1
  -5  -1   3  138.77    6.60   1
  -5  -1   4   13.69    1.78   1
  -5  -1   4    9.61    1.12   1
  -5  -1   5    1.30    1.09   1
  -5  -1   5    0.71    0.60   1
  -5  -1   7   21.81    1.68   1
  -5  -1   9    8.18    1.49   1
  -5  -1  10  162.31    8.41   1
  -5  -1  11  113.85    6.62   1
  -5  -1  12  439.32   21.80   1
  -5  -1  13  289.34   13.95   1
  -5  -1  27   33.64    3.36   1
  -5  -1  33   36.72    3.64   1
  -5  -1  42   35.05    5.45   1
  -5  -1  43    2.19    2.99   1
  -5  -1  46   25.10    5.61   1
  -5  -1  47    7.67    5.37   1
  -5  -1  48   -5.81    5.69   1
  -5   0 -46    0.59    4.37   1
  -5   0 -46   -4.49    4.20   1
  -5   0 -44    9.99    3.79   1
  -5   0 -44   11.42    5.48   1
  -5   0 -42  142.56   12.42   1
  -5   0 -42  146.65    9.93   1
  -5   0 -40   10.69    4.12   1
  -5   0 -38    7.29    3.29   1
  -5   0 -38    3.80    2.50   1
  -5   0 -36    4.88    3.71   1
  -5   0 -34   20.98    3.57   1
  -5   0 -32   12.89    3.09   1
  -5   0 -32    8.82    2.91   1
  -5   0 -30   52.85    4.36   1
  -5   0 -28    2.50    2.21   1
  -5   0 -28    0.50    1.51   1
  -5   0 -26   -0.20    1.41   1
  -5   0 -24  399.60   19.99   1
  -5   0 -24  420.66   20.92   1
  -5   0 -22    5.11    2.31   1
  -5   0 -22    3.80    1.48   1
  -5   0 -20   18.66    2.33   1
  -5   0 -20   17.89    2.96   1
  -5   0 -18   -0.40    1.69   1
  -5   0 -18    0.50    1.21   1
  -5   0 -16   20.70    2.37   1
  -5   0 -16   17.72    1.52   1
  -5   0 -16   15.13    1.63   1
  -5   0 -14    3.80    0.82   1
  -5   0 -14    5.62    1.00   1
  -5   0 -14    4.71    1.52   1
  -5   0 -12   -0.40   17.83   1
  -5   0 -12 1323.50   48.02   1
  -5   0 -12 1189.56   31.73   1
  -5   0 -10   10.63    1.70   1
  -5   0 -10    6.81    0.78   1
  -5   0 -10    6.60    0.72   1
  -5   0  -8   19.80    0.98   1
  -5   0  -8   17.81    1.94   1
  -5   0  -8   15.37    0.86   1
  -5   0  -6  112.36    5.72   1
  -5   0  -4   32.60    2.63   1
  -5   0  -2    1.69    1.20   1
  -5   0   0  343.36   16.68   1
  -5   0   0  322.92   15.09   1
  -5   0   2   -0.20    1.21   1
  -5   0   2    0.20    0.40   1
  -5   0   4    9.80    1.88   1
  -5   0   4    6.92    0.89   1
  -5   0   6  115.56    5.38   1
  -5   0   6  131.79    7.58   1
  -5   0   8   52.56    2.90   1
  -5   0  10  277.22   11.65   1
  -5   0  34    4.80    2.98   1
  -5   0  36   30.80    4.55   1
  -5   0  38    1.00    3.30   1
  -5   0  40   38.56    4.72   1
  -5   0  42   11.83    3.10   1
  -5   0  42    7.29    4.21   1
  -5   0  44   31.02    6.02   1
  -5   0  46  103.43   10.37   1
  -5   0  46   71.23    7.76   1
  -5   0  48   22.47    6.26   1
  -5   0  48   33.87    7.33   1
  -5   1 -46    1.21    5.83   1
  -5   1 -46    7.62    4.53   1
  -5   1 -45   44.49    5.60   1
  -5   1 -45   30.80    7.33   1
  -5   1 -44    5.71    4.92   1
  -5   1 -44    4.28    3.60   1
  -5   1 -43    5.81    5.01   1
  -5   1 -43    6.40    3.90   1
  -5   1 -42   26.32    5.13   1
  -5   1 -41   -0.10    4.04   1
  -5   1 -40    9.61    4.40   1
  -5   1 -39   34.46    5.05   1
  -5   1 -38    2.89    3.81   1
  -5   1 -37   -0.90    3.40   1
  -5   1 -36  230.13   11.83   1
  -5   1 -35    2.79    3.51   1
  -5   1 -34    7.40    2.99   1
  -5   1 -33   70.73    6.06   1
  -5   1 -32    1.90    2.90   1
  -5   1 -31   -1.69    2.70   1
  -5   1 -30   71.06    6.58   1
  -5   1 -29    7.08    2.61   1
  -5   1 -28    3.31    2.62   1
  -5   1 -27  108.99    8.14   1
  -5   1 -26    0.20    2.11   1
  -5   1 -25    0.90    2.30   1
  -5   1 -24   -1.30    1.89   1
  -5   1 -23   22.37    3.41   1
  -5   1 -22   18.66    2.76   1
  -5   1 -22   22.09    1.88   1
  -5   1 -21   77.26    5.63   1
  -5   1 -20   97.42    4.93   1
  -5   1 -20   83.17    5.65   1
  -5   1 -19    0.20    1.71   1
  -5   1 -19    1.00    1.20   1
  -5   1 -18  454.54   22.17   1
  -5   1 -17    4.41    0.88   1
  -5   1 -17    4.00    1.80   1
  -5   1 -16   -0.30    1.51   1
  -5   1 -16    0.30    0.90   1
  -5   1 -15    1.69    1.59   1
  -5   1 -15    2.19    0.89   1
  -5   1 -15    1.80    0.80   1
  -5   1 -14    4.20    1.11   1
  -5   1 -14   10.30    2.50   1
  -5   1 -14   18.06    1.28   1
  -5   1 -13    0.40    0.59   1
  -5   1 -13   -1.39    1.39   1
  -5   1 -13    0.40    0.69   1
  -5   1 -12   29.92    9.19   1
  -5   1 -12  361.38   15.21   1
  -5   1 -12  363.66   13.35   1
  -5   1 -11    1.49    1.29   1
  -5   1 -11    1.39    0.59   1
  -5   1 -10    2.19    0.50   1
  -5   1 -10    4.41    1.51   1
  -5   1  -9  410.06   17.42   1
  -5   1  -8   53.44    3.36   1
  -5   1  -7   26.63    2.27   1
  -5   1  -6   81.90    4.89   1
  -5   1  -5  271.92   12.86   1
  -5   1  -4    1.10    1.20   1
  -5   1  -3  420.25   17.22   1
  -5   1  -2    4.00    1.20   1
  -5   1  -1   15.37    1.80   1
  -5   1   0  444.79   20.25   1
  -5   1   1   30.25    2.42   1
  -5   1   2    1.21    1.30   1
  -5   1   3  155.75    8.24   1
  -5   1   4   10.89    1.72   1
  -5   1   5    0.71    0.71   1
  -5   1   5    0.50    1.21   1
  -5   1   6   13.40    2.12   1
  -5   1   6   14.67    1.23   1
  -5   1   7   30.80    2.66   1
  -5   1   7   25.70    2.13   1
  -5   1   8   -1.39    1.20   1
  -5   1   8    0.90    0.80   1
  -5   1   9    9.12    1.21   1
  -5   1  10  165.89    7.99   1
  -5   1  11  114.70    4.93   1
  -5   1  12  424.77   18.96   1
  -5   1  13  268.63   12.46   1
  -5   1  14    1.80    1.10   1
  -5   1  15    3.39    1.29   1
  -5   1  16   12.39    1.90   1
  -5   1  22    6.60    1.80   1
  -5   1  28   16.40    2.92   1
  -5   1  29    0.71    2.20   1
  -5   1  30   45.97    5.15   1
  -5   1  31   -2.10    2.09   1
  -5   1  32   17.14    3.39   1
  -5   1  33   41.47    4.64   1
  -5   1  34   43.96    5.04   1
  -5   1  35   -0.59    2.88   1
  -5   1  36    1.00    2.90   1
  -5   1  36   -0.20    3.42   1
  -5   1  37    6.00    3.28   1
  -5   1  37   -0.40    2.89   1
  -5   1  38   -0.59    3.08   1
  -5   1  39    1.30    3.19   1
  -5   1  40   -4.00    2.92   1
  -5   1  40   -4.41    3.70   1
  -5   1  41   -0.71    3.71   1
  -5   1  41   -0.30    3.62   1
  -5   1  42   28.62    4.92   1
  -5   1  43    0.71    4.12   1
  -5   1  44   -4.88    3.98   1
  -5   1  44   -1.99    4.60   1
  -5   1  45   79.39    8.38   1
  -5   1  45   64.96    8.54   1
  -5   1  46   13.18    5.88   1
  -5   1  46   27.46    5.76   1
  -5   1  47    2.50    5.40   1
  -5   1  47    8.29    5.47   1
  -5   1  48    1.69    3.80   1
  -5   1  48    4.00    4.40   1
  -5   2 -45   -1.21    5.41   1
  -5   2 -44   -3.10    4.40   1
  -5   2 -43   13.10    3.98   1
  -5   2 -42    0.71    4.32   1
  -5   2 -41    2.40    4.31   1
  -5   2 -40   -4.20    4.18   1
  -5   2 -39   76.39    6.99   1
  -5   2 -38   28.41    5.22   1
  -5   2 -37    0.00    1.00   1
  -5   2 -36    1.00    3.40   1
  -5   2 -35   -2.89    3.30   1
  -5   2 -34    3.50    3.10   1
  -5   2 -33    7.08    3.40   1
  -5   2 -32    4.80    3.29   1
  -5   2 -31   -0.50    2.61   1
  -5   2 -30    1.39    2.78   1
  -5   2 -29   13.47    3.23   1
  -5   2 -28   16.40    3.48   1
  -5   2 -27   64.16    5.77   1
  -5   2 -26    9.18    2.79   1
  -5   2 -25    3.88    2.60   1
  -5   2 -24  140.90    7.12   1
  -5   2 -23   10.30    2.50   1
  -5   2 -22    6.92    2.58   1
  -5   2 -21   -1.49    1.78   1
  -5   2 -20    5.90    2.09   1
  -5   2 -19   28.94    3.23   1
  -5   2 -18    1.39    1.89   1
  -5   2 -17   -0.71    1.81   1
  -5   2 -16   22.37    2.84   1
  -5   2 -15   49.84    3.11   1
  -5   2 -14    7.02    2.01   1
  -5   2 -14    7.40    1.09   1
  -5   2 -13   26.94    2.80   1
  -5   2 -13    0.50    0.81   1
  -5   2 -12  165.89    6.70   1
  -5   2 -12   -0.10    0.71   1
  -5   2 -11    1.30    1.50   1
  -5   2 -11    0.20    0.60   1
  -5   2 -10    7.18    0.80   1
  -5   2 -10    9.99    1.58   1
  -5   2  -9   30.91    3.45   1
  -5   2  -9   32.72    1.49   1
  -5   2  -8   14.98    2.63   1
  -5   2  -8   16.48    1.14   1
  -5   2  -7   33.64    2.55   1
  -5   2  -7   30.91    1.45   1
  -5   2  -6 1015.06   43.97   1
  -5   2  -6  924.16   33.44   1
  -5   2  -5   31.70    2.48   1
  -5   2  -4    8.88    1.91   1
  -5   2  -3   13.91    2.09   1
  -5   2  -2    3.39    1.29   1
  -5   2  -1    3.10    1.30   1
  -5   2   0   41.47    3.09   1
  -5   2   1   84.64    5.15   1
  -5   2   2    5.90    1.60   1
  -5   2   3  121.22    5.95   1
  -5   2   4   14.67    1.69   1
  -5   2   5   15.37    1.96   1
  -5   2   6    3.20    1.50   1
  -5   2   7   16.40    2.03   1
  -5   2   8   30.25    2.86   1
  -5   2  10    2.79    1.50   1
  -5   2  14    1.10    1.09   1
  -5   2  15   -0.10    1.22   1
  -5   2  16    8.01    1.58   1
  -5   2  17   -0.50    1.31   1
  -5   2  18   69.06    3.82   1
  -5   2  19    8.41    1.91   1
  -5   2  20    5.29    1.79   1
  -5   2  21  389.67   19.35   1
  -5   2  22    0.40    1.40   1
  -5   2  23    5.81    2.02   1
  -5   2  24  106.92    6.41   1
  -5   2  25    3.88    2.21   1
  -5   2  25   -0.59    1.69   1
  -5   2  26    1.39    1.20   1
  -5   2  26    0.10    1.62   1
  -5   2  27    0.79    1.39   1
  -5   2  27   -1.00    1.70   1
  -5   2  28    0.30    1.90   1
  -5   2  29    7.08    2.39   1
  -5   2  30   16.97    2.80   1
  -5   2  31    2.31    2.40   1
  -5   2  32    5.11    2.71   1
  -5   2  33   91.58    9.76   1
  -5   2  34   11.02    2.79   1
  -5   2  35    1.00    2.50   1
  -5   2  36   22.94    4.02   1
  -5   2  37    0.00    1.00   1
  -5   2  38   -1.10    3.21   1
  -5   2  39   26.01    4.18   1
  -5   2  40   -4.41    3.49   1
  -5   2  40    0.59    3.28   1
  -5   2  41    3.31    4.00   1
  -5   2  41    0.71    3.01   1
  -5   2  42   -0.50    3.62   1
  -5   2  43   27.77    4.95   1
  -5   3 -45   10.18    6.70   1
  -5   3 -44   -9.42    5.10   1
  -5   3 -43   -2.79    3.21   1
  -5   3 -42   29.05    6.58   1
  -5   3 -41    9.12    4.83   1
  -5   3 -40   11.09    4.53   1
  -5   3 -39    9.30    4.09   1
  -5   3 -38    4.28    3.81   1
  -5   3 -37   24.80    4.98   1
  -5   3 -36    2.40    3.10   1
  -5   3 -34   -1.80    3.11   1
  -5   3 -33   44.49    5.60   1
  -5   3 -32    0.10    2.84   1
  -5   3 -31    1.39    2.90   1
  -5   3 -30   23.52    3.39   1
  -5   3 -29   10.82    3.22   1
  -5   3 -28    7.40    2.88   1
  -5   3 -27   99.80    6.59   1
  -5   3 -26   20.70    2.46   1
  -5   3 -25    2.50    2.81   1
  -5   3 -24   52.42    4.63   1
  -5   3 -23    6.50    2.70   1
  -5   3 -22    0.59    2.09   1
  -5   3 -21    4.08    2.30   1
  -5   3 -20   20.34    2.89   1
  -5   3 -19    2.89    2.38   1
  -5   3 -18  102.82    6.29   1
  -5   3 -17   27.46    3.25   1
  -5   3 -16    6.60    2.00   1
  -5   3 -15  225.30   11.41   1
  -5   3 -14    2.19    1.69   1
  -5   3 -13    0.20    1.01   1
  -5   3 -13   -0.79    1.58   1
  -5   3 -12    1.49    0.90   1
  -5   3 -12    6.10    1.58   1
  -5   3 -11   40.83    3.32   1
  -5   3 -10   -0.10    1.62   1
  -5   3 -10    0.20    0.91   1
  -5   3  -8   -0.10    0.61   1
  -5   3  -8    1.90    1.71   1
  -5   3  -7    0.00    1.00   1
  -5   3  -7   -0.40    1.40   1
  -5   3  -6  205.64    9.46   1
  -5   3  -5  100.40    4.81   1
  -5   3  -4   31.25    3.13   1
  -5   3  -3  638.57   25.78   1
  -5   3  -2   40.32    3.05   1
  -5   3  -1   10.11    1.78   1
  -5   3   0    6.00    1.32   1
  -5   3   1   31.47    2.58   1
  -5   3   2    3.61    1.52   1
  -5   3   3   51.98    3.03   1
  -5   3   4    1.59    1.29   1
  -5   3   5   94.87    5.26   1
  -5   3   6   32.72    2.75   1
  -5   3   7  866.71   33.56   1
  -5   3   8    1.39    1.49   1
  -5   3   9  526.70   22.95   1
  -5   3  10   54.17    3.24   1
  -5   3  11   51.84    4.03   1
  -5   3  23   76.04    4.53   1
  -5   3  24    1.00    1.90   1
  -5   3  25  212.28    9.91   1
  -5   3  26    9.30    1.89   1
  -5   3  27  133.17    8.08   1
  -5   3  28   10.69    2.42   1
  -5   3  29   33.87    3.38   1
  -5   3  30   25.10    3.61   1
  -5   3  31   49.70    3.81   1
  -5   3  32   14.21    3.32   1
  -5   3  33  102.21    7.08   1
  -5   3  34   29.05    3.77   1
  -5   3  35    9.99    3.22   1
  -5   4 -43    5.20    6.11   1
  -5   4 -42  -13.91    4.92   1
  -5   4 -41   -1.99    4.40   1
  -5   4 -40    3.50    2.99   1
  -5   4 -39  104.65    9.00   1
  -5   4 -38   -0.40    3.78   1
  -5   4 -37   -0.30    3.41   1
  -5   4 -36    0.79    2.99   1
  -5   4 -35   -2.50    2.50   1
  -5   4 -34    0.90    3.31   1
  -5   4 -33   40.20    5.33   1
  -5   4 -32    4.71    3.39   1
  -5   4 -31   10.30    3.53   1
  -5   4 -30   23.62    3.60   1
  -5   4 -29    0.79    2.88   1
  -5   4 -28    8.41    2.90   1
  -5   4 -27    6.40    3.29   1
  -5   4 -26    2.69    2.69   1
  -5   4 -25   -2.31    1.79   1
  -5   4 -24   31.81    4.40   1
  -5   4 -23    1.80    2.71   1
  -5   4 -22    1.21    2.31   1
  -5   4 -21  283.25   14.14   1
  -5   4 -20  105.47    7.19   1
  -5   4 -19    2.99    1.90   1
  -5   4 -18  131.33    7.11   1
  -5   4 -17    3.61    2.20   1
  -5   4 -15    8.82    2.08   1
  -5   4 -14   -2.89    1.80   1
  -5   4 -13    3.39    1.99   1
  -5   4 -12   14.52    2.29   1
  -5   4 -11    2.31    1.31   1
  -5   4 -10   -2.31    1.00   1
  -5   4 -10   -1.90    1.49   1
  -5   4  -9   93.12    5.02   1
  -5   4  -9   67.73    3.95   1
  -5   4  -8    0.20    1.01   1
  -5   4  -8   -1.49    1.59   1
  -5   4  -7    3.88    1.62   1
  -5   4  -7    5.20    1.09   1
  -5   4  -6   23.14    2.40   1
  -5   4  -6   18.84    1.74   1
  -5   4  -5    4.49    1.70   1
  -5   4  -5    2.69    0.98   1
  -5   4  -4    9.92    1.32   1
  -5   4  -4   14.98    1.70   1
  -5   4  -3  205.06   10.88   1
  -5   4  -2  115.13    7.08   1
  -5   4  -2  144.48    7.21   1
  -5   4  -1   74.48    4.66   1
  -5   4   0   39.31    2.88   1
  -5   4   1  127.46    9.03   1
  -5   4   2    2.10    1.19   1
  -5   4   2    6.60    1.70   1
  -5   4   3  210.25    9.57   1
  -5   4   4  282.24   14.11   1
  -5   4   5   43.16    3.15   1
  -5   4   6  915.67   38.73   1
  -5   4   7   21.81    2.43   1
  -5   4   8   35.64    2.75   1
  -5   4   9   15.29    2.11   1
  -5   4  10    6.60    1.59   1
  -5   4  11    2.89    1.39   1
  -5   4  24  250.59   11.40   1
  -5   4  25  154.50    9.70   1
  -5   5 -42   -4.28    6.09   1
  -5   5 -41    3.20    3.79   1
  -5   5 -40    5.11    3.62   1
  -5   5 -39    3.10    4.61   1
  -5   5 -38    9.99    4.68   1
  -5   5 -37   15.92    5.11   1
  -5   5 -36  125.89    9.87   1
  -5   5 -35   15.29    3.52   1
  -5   5 -34    0.10    2.53   1
  -5   5 -33   35.05    4.74   1
  -5   5 -32   22.75    4.67   1
  -5   5 -31    0.20    3.22   1
  -5   5 -30   39.44    5.15   1
  -5   5 -29    5.81    3.33   1
  -5   5 -28    4.80    2.41   1
  -5   5 -27   32.72    4.35   1
  -5   5 -26    5.71    3.39   1
  -5   5 -25    0.20    2.92   1
  -5   5 -24    5.11    2.98   1
  -5   5 -23   29.05    4.20   1
  -5   5 -22    6.92    2.68   1
  -5   5 -21    0.00    1.00   1
  -5   5 -20   20.07    3.32   1
  -5   5 -19    5.20    2.78   1
  -5   5 -18  272.58   13.54   1
  -5   5 -17    2.99    1.38   1
  -5   5 -16    4.88    2.21   1
  -5   5 -15   -0.30    2.01   1
  -5   5 -14    4.80    2.10   1
  -5   5 -13    3.20    2.00   1
  -5   5 -12    0.00    1.00   1
  -5   5 -11    5.81    2.12   1
  -5   5 -10   19.27    2.37   1
  -5   5  -9  141.61    7.14   1
  -5   5  -8   47.47    4.13   1
  -5   5  -7   -1.30    1.60   1
  -5   5  -6   19.18    2.72   1
  -5   5  -5   46.51    3.68   1
  -5   5  -4    3.20    1.72   1
  -5   5  -3    0.20    1.31   1
  -5   5  -2   17.22    2.41   1
  -5   5  -1    3.20    1.40   1
  -5   5   0   -0.20    1.01   1
  -5   5   1    0.10    1.22   1
  -5   5   2    9.99    1.90   1
  -5   5   3   13.03    1.73   1
  -5   5   4    0.40    1.40   1
  -5   5   5    2.10    1.71   1
  -5   5   6  423.54   17.70   1
  -5   5   7   12.11    1.67   1
  -5   5   8    6.40    1.62   1
  -5   5   9   27.88    2.75   1
  -5   5  10    1.59    1.49   1
  -5   5  11    6.10    1.98   1
  -5   5  12   20.98    2.20   1
  -5   6 -40   -3.61    5.32   1
  -5   6 -39   27.88    6.23   1
  -5   6 -38    4.58    4.41   1
  -5   6 -37    1.10    4.51   1
  -5   6 -36   13.47    4.62   1
  -5   6 -35    5.90    4.18   1
  -5   6 -34   30.25    5.39   1
  -5   6 -33   13.18    4.86   1
  -5   6 -32    2.59    2.90   1
  -5   6 -31    6.92    3.89   1
  -5   6 -30  135.72    9.09   1
  -5   6 -29   15.68    3.41   1
  -5   6 -28   -1.49    3.29   1
  -5   6 -27   29.81    3.49   1
  -5   6 -26   31.02    4.57   1
  -5   6 -25    7.62    2.98   1
  -5   6 -24  179.02   12.58   1
  -5   6 -23   35.76    4.31   1
  -5   6 -22   -0.40    2.39   1
  -5   6 -21   18.66    3.37   1
  -5   6 -20   -1.90    2.40   1
  -5   6 -19    5.38    2.78   1
  -5   6 -18  345.22   15.24   1
  -5   6 -17   25.81    3.15   1
  -5   6 -16    6.20    2.59   1
  -5   6 -15   49.14    5.05   1
  -5   6 -14    6.92    2.31   1
  -5   6 -13    1.30    2.01   1
  -5   6 -12   81.36    5.05   1
  -5   6 -11   12.60    2.27   1
  -5   6 -10   23.62    2.82   1
  -5   6  -9  241.80   13.68   1
  -5   6  -8  149.82    7.59   1
  -5   6  -7    0.20    1.71   1
  -5   6  -6  267.00   12.09   1
  -5   6  -5    2.19    1.89   1
  -5   6  -4    3.69    1.69   1
  -5   6  -3   10.37    1.87   1
  -5   6  -2    7.62    1.71   1
  -5   6  -1    0.71    1.81   1
  -5   6   0   33.76    3.14   1
  -5   6   1    0.90    1.71   1
  -5   6   2    1.69    1.59   1
  -5   6   3   22.56    2.57   1
  -5   6   4    8.88    1.91   1
  -5   6   5    9.49    1.97   1
  -5   6   6  149.33    8.80   1
  -5   6   9   12.60    2.41   1
  -5   6  10   69.22    4.66   1
  -5   6  11   37.45    2.94   1
  -5   6  12   73.10    4.62   1
  -5   6  13   16.89    2.63   1
  -5   7 -38   -2.89    3.50   1
  -5   7 -37    4.28    4.60   1
  -5   7 -36   53.14    8.16   1
  -5   7 -35   -1.10    4.70   1
  -5   7 -34   -3.20    4.51   1
  -5   7 -33   11.29    4.50   1
  -5   7 -32   -5.52    4.09   1
  -5   7 -31    1.30    4.10   1
  -5   7 -30   20.34    4.87   1
  -5   7 -29    3.50    3.40   1
  -5   7 -28    8.53    3.50   1
  -5   7 -27    4.28    3.19   1
  -5   7 -26    1.10    3.00   1
  -5   7 -25    7.08    2.50   1
  -5   7 -24  138.30    9.41   1
  -5   7 -23   -1.49    2.78   1
  -5   7 -22    7.18    3.11   1
  -5   7 -21    5.90    3.11   1
  -5   7 -20    1.80    2.79   1
  -5   7 -19   -1.21    2.71   1
  -5   7 -18    1.90    2.29   1
  -5   7 -17   10.11    3.12   1
  -5   7 -16   31.47    3.37   1
  -5   7 -15  103.23    6.71   1
  -5   7 -14    4.88    2.30   1
  -5   7 -13    6.50    1.78   1
  -5   7 -12  123.88    7.79   1
  -5   7 -11    0.30    2.01   1
  -5   7 -10   57.76    4.56   1
  -5   7  -9  306.95   15.77   1
  -5   7  -8  421.48   17.66   1
  -5   7  -7   13.69    2.81   1
  -5   7  -6  185.78    9.27   1
  -5   7  -5   37.58    3.80   1
  -5   7  -4   21.62    2.70   1
  -5   7  -3   49.56    3.80   1
  -5   7  -2   49.70    3.67   1
  -5   7  -1   21.44    2.96   1
  -5   7   0  260.50   10.98   1
  -5   7   1   19.10    2.27   1
  -5   7   2    6.10    1.68   1
  -5   7   3    5.62    1.80   1
  -5   7   4   12.53    2.41   1
  -5   7   5    7.51    2.19   1
  -5   7   6   65.12    4.36   1
  -5   7   7   -0.90    1.41   1
  -5   7   8    3.69    1.88   1
  -5   7   9   43.03    3.02   1
  -5   7  10   67.57    4.60   1
  -5   7  11   24.70    2.88   1
  -5   7  12    1.69    1.69   1
  -5   7  13   60.84    4.37   1
  -5   8 -36    6.50    6.02   1
  -5   8 -33    9.42    4.61   1
  -5   8 -32   -3.10    4.08   1
  -5   8 -31   -5.29    4.19   1
  -5   8 -30   18.32    4.54   1
  -5   8 -29    9.49    4.19   1
  -5   8 -28    2.10    3.80   1
  -5   8 -27    0.20    3.82   1
  -5   8 -26    0.30    3.82   1
  -5   8 -25    4.20    3.69   1
  -5   8 -24    0.59    2.68   1
  -5   8 -23    1.80    3.00   1
  -5   8 -22    5.02    3.23   1
  -5   8 -21   76.21    6.11   1
  -5   8 -20    1.10    3.00   1
  -5   8 -19    1.90    2.82   1
  -5   8 -18    9.49    3.20   1
  -5   8 -17    0.90    1.80   1
  -5   8 -16    8.18    2.80   1
  -5   8 -15   10.37    3.61   1
  -5   8 -14   12.89    2.87   1
  -5   8 -13    2.69    1.80   1
  -5   8 -12   11.97    2.77   1
  -5   8 -11    1.59    2.39   1
  -5   8 -10   -0.50    2.00   1
  -5   8  -9   92.54    6.93   1
  -5   8  -8    6.30    2.51   1
  -5   8  -7    0.30    2.11   1
  -5   8  -6  213.45   12.27   1
  -5   8  -5   22.09    3.38   1
  -5   8  -4   51.27    3.87   1
  -5   8  -3  265.69   11.41   1
  -5   8  -2  137.59    7.51   1
  -5   8  -1   10.82    2.63   1
  -5   8   0    1.21    1.91   1
  -5   8   1   19.36    2.38   1
  -5   8   2   12.32    2.18   1
  -5   8   3  121.88    6.84   1
  -5   8   4   18.66    3.02   1
  -5   8   5    3.31    1.82   1
  -5   8   6   69.56    4.34   1
  -5   8   7   11.70    2.53   1
  -5   8   8   -0.20    1.71   1
  -5   8   9   17.81    2.70   1
  -5   8  10    6.92    2.00   1
  -5   8  11   15.37    2.20   1
  -5   8  13   16.73    2.86   1
  -5   9 -34   -7.40    5.49   1
  -5   9 -33    9.12    5.44   1
  -5   9 -32   -2.89    5.30   1
  -5   9 -31    1.00    3.00   1
  -5   9 -30    8.12    4.73   1
  -5   9 -29    0.59    4.57   1
  -5   9 -28   13.76    4.23   1
  -5   9 -27  124.77   11.17   1
  -5   9 -26    9.30    4.03   1
  -5   9 -25    0.20    2.62   1
  -5   9 -24    1.00    3.60   1
  -5   9 -23    7.18    3.48   1
  -5   9 -22    5.02    3.49   1
  -5   9 -21    0.10    3.44   1
  -5   9 -20   -3.20    3.19   1
  -5   9 -19    2.19    2.78   1
  -5   9 -18    4.00    3.40   1
  -5   9 -17    8.41    3.31   1
  -5   9 -16    3.31    2.51   1
  -5   9 -15   17.22    3.24   1
  -5   9 -14   11.22    2.61   1
  -5   9 -13    2.59    2.61   1
  -5   9 -12   13.62    3.10   1
  -5   9 -11   62.25    5.05   1
  -5   9 -10   15.68    3.41   1
  -5   9  -9  199.09    9.59   1
  -5   9  -8   48.44    4.32   1
  -5   9  -7    6.50    3.01   1
  -5   9  -6   16.73    2.78   1
  -5   9  -5    1.59    2.39   1
  -5   9  -4   72.93    5.12   1
  -5   9  -3   62.73    4.44   1
  -5   9  -2   72.42    5.11   1
  -5   9  -1   20.34    2.80   1
  -5   9   0    1.21    2.20   1
  -5   9   1    2.10    1.91   1
  -5   9   2    0.71    1.92   1
  -5   9   3   22.66    2.67   1
  -5   9   4    1.99    2.00   1
  -5   9   5    8.29    2.02   1
  -5   9   6   78.32    5.31   1
  -5   9   7   13.62    2.58   1
  -5  10 -32   -0.10    6.27   1
  -5  10 -31   -9.92    4.41   1
  -5  10 -30    2.19    5.00   1
  -5  10 -29    5.52    5.73   1
  -5  10 -28   -1.49    4.59   1
  -5  10 -27    0.59    2.48   1
  -5  10 -26   -3.88    4.49   1
  -5  10 -25   -1.10    4.09   1
  -5  10 -24    4.20    4.30   1
  -5  10 -23    0.30    4.02   1
  -5  10 -22    6.81    3.91   1
  -5  10 -21   51.12    5.29   1
  -5  10 -20   20.61    5.08   1
  -5  10 -19   -5.52    3.20   1
  -5  10 -18   28.20    4.25   1
  -5  10 -17    2.89    2.89   1
  -5  10 -16    4.71    3.52   1
  -5  10 -15   95.65    7.43   1
  -5  10 -14    1.21    3.01   1
  -5  10 -13   14.98    3.41   1
  -5  10 -12    9.61    3.47   1
  -5  10 -11    0.90    2.70   1
  -5  10 -10    3.31    2.62   1
  -5  10  -9   -0.30    2.51   1
  -5  10  -8    1.59    2.60   1
  -5  10  -7    7.90    2.47   1
  -5  10  -6   84.82    6.26   1
  -5  10  -5   21.16    3.86   1
  -5  10  -4   14.98    2.79   1
  -5  10  -3  162.82    8.42   1
  -5  10  -2   44.89    4.15   1
  -5  10  -1   -1.99    2.28   1
  -5  10   0   11.09    2.60   1
  -5  11 -28   -2.10    5.60   1
  -5  11 -27   18.23    5.72   1
  -5  11 -26    8.29    4.09   1
  -5  11 -25    3.20    4.40   1
  -5  11 -24   18.84    5.64   1
  -5  11 -23    3.80    4.49   1
  -5  11 -22    0.20    3.01   1
  -5  11 -21   27.04    5.30   1
  -5  11 -20    2.31    3.10   1
  -5  11 -19    3.80    3.00   1
  -5  11 -18   -0.40    3.78   1
  -5  11 -17   -0.59    3.37   1
  -5  11 -16    0.30    3.62   1
  -5  11 -15   -3.50    3.22   1
  -5  11 -14    1.80    3.48   1
  -5  11 -13    3.69    3.49   1
  -5  11 -12    4.71    3.30   1
  -5  11 -11    1.39    3.19   1
  -5  11 -10   -1.69    2.70   1
  -5  11  -9   43.16    4.60   1
  -5  11  -7   -0.59    2.79   1
  -5  11  -6   14.59    3.21   1
  -5  12 -24   -1.69    4.29   1
  -5  12 -23   -4.08    3.68   1
  -5  12 -21    7.40    4.62   1
  -5  12 -20    1.69    4.29   1
  -5  12 -19    0.10    2.84   1
  -5  12 -18    9.42    4.79   1
  -5  12 -17   -0.59    4.17   1
  -5  12 -16    3.69    3.88   1
  -5  12 -15   39.19    6.51   1
  -5  12 -14    8.18    3.60   1
  -4 -14 -13    4.58    5.18   1
  -4 -14 -12    1.69    3.48   1
  -4 -14 -11    0.90    5.61   1
  -4 -14 -10    0.50    5.03   1
  -4 -14  -9  116.86   12.11   1
  -4 -14  -8   -3.50    5.20   1
  -4 -14  -7   -6.00    4.70   1
  -4 -14  -6    1.80    4.69   1
  -4 -14  -5    1.21    4.51   1
  -4 -14  -4   -4.20    5.08   1
  -4 -14  -3    6.20    5.38   1
  -4 -14  -2    7.40    3.21   1
  -4 -14  -1    2.59    4.70   1
  -4 -14   0    2.59    5.18   1
  -4 -14   1    1.69    4.78   1
  -4 -14   2    8.12    5.02   1
  -4 -14   3    6.81    4.28   1
  -4 -14   4    0.79    5.18   1
  -4 -14   5   24.60    6.65   1
  -4 -14   6   -0.90    5.11   1
  -4 -14   7   16.48    6.01   1
  -4 -14   8    4.08    4.97   1
  -4 -14   9    3.69    5.11   1
  -4 -14  10   -9.80    5.70   1
  -4 -14  11   -0.79    5.27   1
  -4 -14  12    4.80    5.30   1
  -4 -14  13    8.70    5.72   1
  -4 -14  14    6.60    5.81   1
  -4 -14  15   18.06    5.36   1
  -4 -13 -21    3.61    4.90   1
  -4 -13 -20    8.29    4.90   1
  -4 -13 -19    5.20    4.88   1
  -4 -13 -18   -0.71    3.51   1
  -4 -13 -17   -5.02    4.93   1
  -4 -13 -16    5.71    5.40   1
  -4 -13 -15    6.92    5.00   1
  -4 -13 -14   10.30    4.69   1
  -4 -13 -13    4.49    5.00   1
  -4 -13 -12   10.89    4.88   1
  -4 -13 -11    6.00    4.41   1
  -4 -13 -10    2.50    4.39   1
  -4 -13  -9   13.69    4.81   1
  -4 -13  -8    4.41    2.90   1
  -4 -13  -7   13.69    5.03   1
  -4 -13  -6   -2.69    4.49   1
  -4 -13  -5    2.89    4.79   1
  -4 -13  -4   -2.40    4.00   1
  -4 -13  -3    1.30    4.10   1
  -4 -13  -2   -2.31    4.20   1
  -4 -13  -1    0.30    3.82   1
  -4 -13   0   14.67    5.21   1
  -4 -13   1    3.61    4.22   1
  -4 -13   2   -0.71    3.81   1
  -4 -13   3   17.64    4.54   1
  -4 -13   4   -4.41    3.82   1
  -4 -13   5    0.00    1.00   1
  -4 -13   6   -1.80    3.99   1
  -4 -13   7    7.08    4.31   1
  -4 -13   8   -1.99    3.89   1
  -4 -13   9   -3.10    4.19   1
  -4 -13  10   -5.11    2.89   1
  -4 -13  11   -0.71    3.51   1
  -4 -13  12   20.52    5.44   1
  -4 -13  13    0.79    4.98   1
  -4 -13  14   -0.59    4.77   1
  -4 -13  15    7.29    5.08   1
  -4 -13  16    8.82    5.11   1
  -4 -13  17   19.71    5.68   1
  -4 -13  18   10.82    5.33   1
  -4 -13  19   -4.00    4.92   1
  -4 -13  20    2.40    3.19   1
  -4 -13  21    2.19    4.00   1
  -4 -13  22    7.40    4.90   1
  -4 -13  23   -0.20    3.73   1
  -4 -12 -27   -5.02    4.79   1
  -4 -12 -26   -1.69    4.89   1
  -4 -12 -25   -4.08    3.39   1
  -4 -12 -24    7.40    4.90   1
  -4 -12 -23    1.59    4.49   1
  -4 -12 -22   -1.80    4.21   1
  -4 -12 -21    2.50    3.29   1
  -4 -12 -20    3.69    4.61   1
  -4 -12 -19    4.00    4.80   1
  -4 -12 -18   -1.21    3.92   1
  -4 -12 -17    3.61    3.91   1
  -4 -12 -16    1.80    4.10   1
  -4 -12 -15    0.90    2.81   1
  -4 -12 -14   14.82    4.62   1
  -4 -12 -13    7.08    3.40   1
  -4 -12 -12   65.61    9.40   1
  -4 -12 -11    6.81    4.28   1
  -4 -12 -10   -1.10    3.70   1
  -4 -12  -9    9.61    3.47   1
  -4 -12  -8   -1.39    3.59   1
  -4 -12  -7    2.99    3.08   1
  -4 -12  -6   58.37    6.88   1
  -4 -12  -5    5.62    3.60   1
  -4 -12  -4   19.36    4.22   1
  -4 -12  -3    5.52    3.99   1
  -4 -12  -2    5.81    3.33   1
  -4 -12  -1    6.30    4.02   1
  -4 -12   0   22.94    3.93   1
  -4 -12   1   15.21    4.29   1
  -4 -12   2    1.21    3.72   1
  -4 -12   3   24.21    4.62   1
  -4 -12   4    1.80    3.59   1
  -4 -12   5   17.47    4.18   1
  -4 -12   6    7.02    4.72   1
  -4 -12   7    4.71    3.91   1
  -4 -12   9   10.50    3.30   1
  -4 -12  10    3.31    3.82   1
  -4 -12  11   -2.10    4.00   1
  -4 -12  12   -2.89    3.98   1
  -4 -12  13    6.30    4.22   1
  -4 -12  14    6.20    4.18   1
  -4 -12  15    4.88    3.89   1
  -4 -12  16    0.59    4.08   1
  -4 -12  17    2.10    4.00   1
  -4 -12  18   16.97    4.20   1
  -4 -12  19   -5.20    4.20   1
  -4 -12  20    5.38    4.41   1
  -4 -12  21   14.06    5.18   1
  -4 -12  22    7.29    5.08   1
  -4 -12  23   54.76    7.84   1
  -4 -12  24   75.34    9.03   1
  -4 -12  25   10.69    4.97   1
  -4 -12  26    1.49    3.78   1
  -4 -12  27    3.31    3.42   1
  -4 -12  28   -1.39    3.89   1
  -4 -11 -31   -1.10    4.70   1
  -4 -11 -30   40.96    6.66   1
  -4 -11 -29    1.59    4.89   1
  -4 -11 -28    3.10    4.89   1
  -4 -11 -27    7.67    4.99   1
  -4 -11 -26   -3.88    4.81   1
  -4 -11 -25    5.90    4.42   1
  -4 -11 -24    2.19    3.70   1
  -4 -11 -23    0.79    3.77   1
  -4 -11 -22    5.38    4.18   1
  -4 -11 -21    7.18    4.02   1
  -4 -11 -20    9.99    4.68   1
  -4 -11 -19    0.20    3.82   1
  -4 -11 -18    9.80    4.07   1
  -4 -11 -17    4.80    3.29   1
  -4 -11 -16   10.11    3.82   1
  -4 -11 -15   43.03    5.51   1
  -4 -11 -14   12.39    3.52   1
  -4 -11 -13   -1.39    3.19   1
  -4 -11 -12   11.63    2.80   1
  -4 -11 -11    1.69    2.18   1
  -4 -11 -10   -1.39    3.28   1
  -4 -11  -9   12.82    3.51   1
  -4 -11  -8   22.00    3.56   1
  -4 -11  -7    0.00    1.00   1
  -4 -11  -6  173.71   10.02   1
  -4 -11  -5   13.10    3.69   1
  -4 -11  -4    6.00    3.58   1
  -4 -11  -3   71.23    8.10   1
  -4 -11  -2   19.36    3.78   1
  -4 -11  -1    1.39    3.00   1
  -4 -11   0   53.58    5.27   1
  -4 -11   1    1.10    2.90   1
  -4 -11   2   -0.59    3.08   1
  -4 -11   3    2.59    2.51   1
  -4 -11   4    1.59    3.00   1
  -4 -11   5   -2.40    3.19   1
  -4 -11   6   61.94    6.61   1
  -4 -11   7    2.89    3.09   1
  -4 -11   8    2.79    2.50   1
  -4 -11   9   -1.69    3.20   1
  -4 -11  10   16.81    3.61   1
  -4 -11  11   -3.50    3.22   1
  -4 -11  12   15.76    4.29   1
  -4 -11  13   11.90    3.31   1
  -4 -11  14    4.58    3.38   1
  -4 -11  15    9.49    3.57   1
  -4 -11  16   -0.20    2.21   1
  -4 -11  17    5.81    3.71   1
  -4 -11  18    6.50    3.62   1
  -4 -11  19   20.79    4.83   1
  -4 -11  20   20.43    4.79   1
  -4 -11  21    3.10    4.19   1
  -4 -11  22   -1.21    3.92   1
  -4 -11  23    3.20    4.12   1
  -4 -11  24   21.62    4.46   1
  -4 -11  25    6.10    4.00   1
  -4 -11  26   -0.30    4.52   1
  -4 -11  27    7.29    4.48   1
  -4 -11  28   -9.18    4.48   1
  -4 -11  29   -0.40    4.49   1
  -4 -11  30   27.98    6.24   1
  -4 -11  31   -0.10    5.57   1
  -4 -11  32    1.10    5.31   1
  -4 -10 -34    2.99    3.08   1
  -4 -10 -33    3.31    4.40   1
  -4 -10 -32    0.71    4.52   1
  -4 -10 -31   -0.90    4.01   1
  -4 -10 -30   -1.39    3.99   1
  -4 -10 -29   -4.80    3.50   1
  -4 -10 -28    4.08    4.20   1
  -4 -10 -27   35.28    5.35   1
  -4 -10 -26   14.90    4.40   1
  -4 -10 -25    5.02    2.28   1
  -4 -10 -24   14.21    4.37   1
  -4 -10 -23    0.90    3.71   1
  -4 -10 -22    2.79    2.30   1
  -4 -10 -21    4.58    3.81   1
  -4 -10 -20    2.19    2.49   1
  -4 -10 -19    2.40    3.01   1
  -4 -10 -18    0.90    3.00   1
  -4 -10 -17   15.76    4.13   1
  -4 -10 -16   -1.49    2.88   1
  -4 -10 -15   55.06    5.19   1
  -4 -10 -14    0.10    3.03   1
  -4 -10 -13   -2.10    2.41   1
  -4 -10 -12   10.69    3.20   1
  -4 -10 -11   -1.39    2.19   1
  -4 -10 -10    3.31    2.00   1
  -4 -10  -9   97.61    7.11   1
  -4 -10  -8    3.39    3.09   1
  -4 -10  -7   -1.39    2.69   1
  -4 -10  -6   31.25    4.92   1
  -4 -10  -5    9.00    2.82   1
  -4 -10  -4    6.81    2.30   1
  -4 -10  -3   42.51    4.30   1
  -4 -10  -2    0.40    2.68   1
  -4 -10  -1    4.41    2.60   1
  -4 -10   0   91.20    6.49   1
  -4 -10   1   27.56    4.09   1
  -4 -10   2   -0.50    2.61   1
  -4 -10   3   19.98    3.93   1
  -4 -10   4   46.65    4.51   1
  -4 -10   5   -1.69    1.90   1
  -4 -10   6   83.17    6.02   1
  -4 -10   7    2.69    2.89   1
  -4 -10   8   27.04    3.54   1
  -4 -10   9   86.86    5.59   1
  -4 -10  10   20.16    3.32   1
  -4 -10  11   -2.59    2.70   1
  -4 -10  12    1.80    1.80   1
  -4 -10  13    1.10    3.00   1
  -4 -10  14   -1.99    1.89   1
  -4 -10  15    4.28    2.98   1
  -4 -10  16   -0.59    2.19   1
  -4 -10  17   27.25    4.28   1
  -4 -10  18   70.90    6.06   1
  -4 -10  19   37.45    4.53   1
  -4 -10  20    9.42    3.62   1
  -4 -10  21   17.81    3.46   1
  -4 -10  22   -1.49    3.78   1
  -4 -10  23    3.20    3.69   1
  -4 -10  24   29.48    5.65   1
  -4 -10  25   27.35    4.39   1
  -4 -10  26    3.80    3.90   1
  -4 -10  27   12.11    4.80   1
  -4 -10  28    5.38    4.32   1
  -4 -10  29    3.80    4.49   1
  -4 -10  30    7.18    4.61   1
  -4 -10  31   -4.41    4.70   1
  -4 -10  32    7.08    5.11   1
  -4 -10  33   -1.49    4.39   1
  -4 -10  34   -1.99    5.08   1
  -4 -10  35    5.29    5.20   1
  -4 -10  36   -4.20    5.29   1
  -4  -9 -37    3.39    4.31   1
  -4  -9 -36    1.49    3.98   1
  -4  -9 -35   -1.21    4.22   1
  -4  -9 -34    8.29    4.72   1
  -4  -9 -33   73.44    8.06   1
  -4  -9 -32   -5.29    4.42   1
  -4  -9 -31    6.40    4.10   1
  -4  -9 -30    1.59    4.08   1
  -4  -9 -29    4.28    3.81   1
  -4  -9 -28    3.61    3.12   1
  -4  -9 -27    6.10    3.80   1
  -4  -9 -26    3.80    3.39   1
  -4  -9 -25    4.88    2.30   1
  -4  -9 -24    0.79    2.99   1
  -4  -9 -23    0.59    2.79   1
  -4  -9 -22   25.00    4.00   1
  -4  -9 -20   30.14    3.73   1
  -4  -9 -19    7.40    2.88   1
  -4  -9 -18   21.34    3.05   1
  -4  -9 -17    3.50    2.92   1
  -4  -9 -16   -0.40    2.39   1
  -4  -9 -15   -1.49    2.49   1
  -4  -9 -14   -0.40    2.39   1
  -4  -9 -13    4.49    1.99   1
  -4  -9 -12   44.76    4.28   1
  -4  -9 -11    9.49    2.77   1
  -4  -9 -10   19.10    2.71   1
  -4  -9  -9   41.22    3.85   1
  -4  -9  -8   28.09    3.92   1
  -4  -9  -7    1.80    2.30   1
  -4  -9  -6   -0.40    1.30   1
  -4  -9  -5   -1.99    2.00   1
  -4  -9  -4    3.69    2.61   1
  -4  -9  -2    4.28    2.48   1
  -4  -9  -1   -3.20    2.40   1
  -4  -9   0    1.59    2.19   1
  -4  -9   1   -0.40    2.19   1
  -4  -9   2    2.59    2.09   1
  -4  -9   3  294.81   17.86   1
  -4  -9   4   -1.39    1.70   1
  -4  -9   5    2.10    2.09   1
  -4  -9   6   35.28    3.80   1
  -4  -9   7   -0.71    2.20   1
  -4  -9   8    0.59    1.59   1
  -4  -9   9    1.90    2.29   1
  -4  -9  10    0.30    2.51   1
  -4  -9  11    6.81    2.61   1
  -4  -9  12    0.79    1.69   1
  -4  -9  13    1.21    2.62   1
  -4  -9  14   91.78    6.32   1
  -4  -9  15  113.64    9.17   1
  -4  -9  16  135.02    8.13   1
  -4  -9  17    4.41    2.60   1
  -4  -9  18   63.84    5.75   1
  -4  -9  19    6.40    3.19   1
  -4  -9  20    3.80    3.12   1
  -4  -9  21   60.06    7.13   1
  -4  -9  22    3.20    3.51   1
  -4  -9  23    2.19    2.90   1
  -4  -9  24    2.79    3.41   1
  -4  -9  25   26.32    4.31   1
  -4  -9  26   22.28    3.96   1
  -4  -9  27    8.82    2.91   1
  -4  -9  28    2.31    3.62   1
  -4  -9  29   -2.59    4.09   1
  -4  -9  30    4.71    3.82   1
  -4  -9  31   12.60    4.47   1
  -4  -9  32    3.69    5.38   1
  -4  -9  33   -4.28    4.31   1
  -4  -9  34    7.40    5.22   1
  -4  -9  35   22.66    5.33   1
  -4  -9  36   -2.10    5.19   1
  -4  -9  37   -4.08    5.49   1
  -4  -9  38    3.80    5.62   1
  -4  -9  39   17.47    5.94   1
  -4  -8 -40    0.20    4.72   1
  -4  -8 -39    9.12    4.83   1
  -4  -8 -38   -2.59    4.51   1
  -4  -8 -37    2.79    4.38   1
  -4  -8 -36   33.18    4.72   1
  -4  -8 -35   37.45    6.12   1
  -4  -8 -34    7.18    3.59   1
  -4  -8 -33   10.18    4.08   1
  -4  -8 -32    1.39    3.28   1
  -4  -8 -31   12.39    3.87   1
  -4  -8 -30    4.58    3.21   1
  -4  -8 -29    4.41    3.40   1
  -4  -8 -28   16.89    4.03   1
  -4  -8 -27  160.02   10.88   1
  -4  -8 -26   41.47    4.64   1
  -4  -8 -25   11.70    3.21   1
  -4  -8 -24   29.70    3.49   1
  -4  -8 -23   41.22    4.75   1
  -4  -8 -22    1.90    2.01   1
  -4  -8 -21   73.96    5.85   1
  -4  -8 -20    0.79    2.39   1
  -4  -8 -19   -3.20    2.11   1
  -4  -8 -18    1.10    2.31   1
  -4  -8 -17    6.92    2.52   1
  -4  -8 -16    3.10    2.18   1
  -4  -8 -15    8.18    2.40   1
  -4  -8 -14   37.95    3.82   1
  -4  -8 -13    0.10    1.92   1
  -4  -8 -12   69.89    4.85   1
  -4  -8 -11    4.41    2.52   1
  -4  -8 -10    7.02    2.12   1
  -4  -8  -9 1155.32   43.51   1
  -4  -8  -8   26.11    3.07   1
  -4  -8  -7    0.50    1.51   1
  -4  -8  -6    2.31    2.01   1
  -4  -8  -5   10.63    2.48   1
  -4  -8  -4   28.09    2.97   1
  -4  -8  -3   62.73    4.44   1
  -4  -8  -2    1.99    1.89   1
  -4  -8  -1    4.00    1.52   1
  -4  -8   0   21.16    3.50   1
  -4  -8   1    7.40    2.39   1
  -4  -8   2    1.90    1.90   1
  -4  -8   3   -0.40    1.89   1
  -4  -8   4   20.34    2.80   1
  -4  -8   5   20.79    3.56   1
  -4  -8   6    0.40    1.89   1
  -4  -8   7    1.59    1.18   1
  -4  -8   8   18.06    2.38   1
  -4  -8   9   37.33    3.91   1
  -4  -8  10   48.16    5.14   1
  -4  -8  11   21.53    2.88   1
  -4  -8  12   25.20    2.91   1
  -4  -8  13   26.11    3.07   1
  -4  -8  14   10.82    3.03   1
  -4  -8  15   61.15    4.85   1
  -4  -8  16    3.80    2.42   1
  -4  -8  17   34.81    3.42   1
  -4  -8  18  138.06    8.46   1
  -4  -8  19   11.09    3.13   1
  -4  -8  20    9.30    3.42   1
  -4  -8  21    1.99    2.79   1
  -4  -8  22   20.07    3.76   1
  -4  -8  23   22.75    3.05   1
  -4  -8  24    0.10    3.24   1
  -4  -8  25   48.02    5.54   1
  -4  -8  26    1.39    2.19   1
  -4  -8  27  198.81   10.72   1
  -4  -8  28    5.20    3.78   1
  -4  -8  29    9.99    3.60   1
  -4  -8  30    7.02    4.19   1
  -4  -8  31   -2.59    2.51   1
  -4  -8  32    1.39    3.00   1
  -4  -8  33   72.08    6.96   1
  -4  -8  34   13.32    3.80   1
  -4  -8  35    1.90    3.39   1
  -4  -8  36    8.41    4.93   1
  -4  -8  37   31.14    6.14   1
  -4  -8  38    3.88    4.81   1
  -4  -8  39    2.59    4.99   1
  -4  -8  40    1.10    4.81   1
  -4  -8  41    5.29    5.89   1
  -4  -7 -42   17.89    5.41   1
  -4  -7 -41   11.70    4.72   1
  -4  -7 -40    9.67    4.66   1
  -4  -7 -39   11.97    4.57   1
  -4  -7 -38   11.09    4.53   1
  -4  -7 -37   10.18    4.59   1
  -4  -7 -36   11.97    4.50   1
  -4  -7 -35   72.42    7.32   1
  -4  -7 -34    5.90    3.50   1
  -4  -7 -33   20.34    3.88   1
  -4  -7 -32    4.28    3.60   1
  -4  -7 -31    1.69    2.78   1
  -4  -7 -30   72.08    6.45   1
  -4  -7 -29   13.69    3.63   1
  -4  -7 -28    1.80    2.49   1
  -4  -7 -27  160.28   10.89   1
  -4  -7 -26    6.30    3.01   1
  -4  -7 -25   -0.79    2.39   1
  -4  -7 -24   42.25    4.68   1
  -4  -7 -23    1.69    2.29   1
  -4  -7 -22    0.71    2.40   1
  -4  -7 -21   43.96    3.85   1
  -4  -7 -20    5.52    2.30   1
  -4  -7 -19    6.81    2.30   1
  -4  -7 -18  220.23   11.58   1
  -4  -7 -17   22.75    3.05   1
  -4  -7 -16   48.58    3.90   1
  -4  -7 -15  412.50   17.87   1
  -4  -7 -14    2.69    2.10   1
  -4  -7 -13   -0.79    1.80   1
  -4  -7 -12    7.51    2.08   1
  -4  -7 -11   31.25    3.02   1
  -4  -7 -10    1.49    1.68   1
  -4  -7  -9   32.04    3.06   1
  -4  -7  -8   10.69    2.22   1
  -4  -7  -7   52.85    4.07   1
  -4  -7  -6  141.61    8.33   1
  -4  -7  -5   50.84    3.85   1
  -4  -7  -4   14.21    2.11   1
  -4  -7  -3  251.54   14.27   1
  -4  -7  -2   36.24    3.25   1
  -4  -7  -1   26.63    2.99   1
  -4  -7   0    1.59    1.79   1
  -4  -7   1   12.60    2.27   1
  -4  -7   2    4.28    1.99   1
  -4  -7   3   12.82    2.51   1
  -4  -7   4   -1.49    1.49   1
  -4  -7   5    6.81    1.88   1
  -4  -7   6   85.38    5.36   1
  -4  -7   7   -0.30    1.80   1
  -4  -7   8   29.38    3.36   1
  -4  -7   9   22.28    3.02   1
  -4  -7  10   26.01    2.96   1
  -4  -7  11   26.63    3.10   1
  -4  -7  12   40.45    4.32   1
  -4  -7  13   22.00    2.81   1
  -4  -7  14    1.10    1.51   1
  -4  -7  15   17.64    2.69   1
  -4  -7  16   15.92    2.71   1
  -4  -7  17   14.82    2.69   1
  -4  -7  18    1.21    2.42   1
  -4  -7  19    1.39    1.79   1
  -4  -7  20   17.14    3.06   1
  -4  -7  21  185.50   10.08   1
  -4  -7  22   35.64    4.54   1
  -4  -7  23   -1.99    2.40   1
  -4  -7  24   54.46    4.87   1
  -4  -7  25    2.50    1.80   1
  -4  -7  26   11.70    3.42   1
  -4  -7  27   27.14    4.48   1
  -4  -7  28   28.30    3.94   1
  -4  -7  29   14.29    3.63   1
  -4  -7  30  182.79   12.71   1
  -4  -7  31    0.90    2.39   1
  -4  -7  32    0.50    2.91   1
  -4  -7  34   19.80    4.36   1
  -4  -7  35    2.99    2.60   1
  -4  -7  36    3.50    2.92   1
  -4  -7  37    9.80    5.01   1
  -4  -7  38   12.60    5.40   1
  -4  -7  39   -1.80    4.69   1
  -4  -7  40   20.07    5.91   1
  -4  -7  41   -4.00    3.08   1
  -4  -7  42   26.21    6.45   1
  -4  -7  43    3.61    6.12   1
  -4  -6 -43    1.90    4.50   1
  -4  -6 -42   72.42    7.32   1
  -4  -6 -41   51.27    6.30   1
  -4  -6 -40   15.13    5.21   1
  -4  -6 -39    4.00    4.20   1
  -4  -6 -38    5.81    4.39   1
  -4  -6 -37   -1.39    3.09   1
  -4  -6 -36   57.91    6.54   1
  -4  -6 -35    0.59    3.37   1
  -4  -6 -34    4.80    3.20   1
  -4  -6 -33    2.59    3.09   1
  -4  -6 -32   11.42    3.38   1
  -4  -6 -31    2.19    2.69   1
  -4  -6 -30   -0.30    2.92   1
  -4  -6 -29    1.00    2.90   1
  -4  -6 -28    3.80    3.00   1
  -4  -6 -27    5.20    2.78   1
  -4  -6 -26   -0.40    2.19   1
  -4  -6 -25    0.50    2.41   1
  -4  -6 -24    8.88    2.62   1
  -4  -6 -23    3.88    2.01   1
  -4  -6 -22    3.10    2.18   1
  -4  -6 -21   27.46    3.25   1
  -4  -6 -20   13.10    2.32   1
  -4  -6 -19   23.43    3.00   1
  -4  -6 -18  248.69   11.67   1
  -4  -6 -17   35.52    3.10   1
  -4  -6 -16   -1.21    1.72   1
  -4  -6 -15   69.22    4.83   1
  -4  -6 -14    3.31    1.89   1
  -4  -6 -14    1.00    0.90   1
  -4  -6 -13   20.70    2.28   1
  -4  -6 -13   25.10    1.90   1
  -4  -6 -12   61.94    4.25   1
  -4  -6 -11    0.90    1.50   1
  -4  -6 -10   20.61    2.27   1
  -4  -6  -9    6.81    1.62   1
  -4  -6  -8   20.43    2.44   1
  -4  -6  -7   17.39    2.59   1
  -4  -6  -5    8.82    1.78   1
  -4  -6  -4   11.09    1.93   1
  -4  -6  -3   -1.10    1.41   1
  -4  -6  -2  114.92    6.00   1
  -4  -6  -1   40.58    3.06   1
  -4  -6   0  289.34   12.59   1
  -4  -6   1   46.65    3.41   1
  -4  -6   2    2.50    1.49   1
  -4  -6   3   12.39    2.11   1
  -4  -6   4    7.67    1.72   1
  -4  -6   5   19.10    2.27   1
  -4  -6   6   27.56    3.04   1
  -4  -6   7   15.76    2.22   1
  -4  -6   8    2.10    1.71   1
  -4  -6   9    2.10    1.51   1
  -4  -6  10   18.06    2.63   1
  -4  -6  11    2.19    1.69   1
  -4  -6  12   32.60    3.43   1
  -4  -6  13    1.30    1.89   1
  -4  -6  14   18.06    2.72   1
  -4  -6  15  162.31    8.41   1
  -4  -6  16    9.80    2.63   1
  -4  -6  17    0.50    1.90   1
  -4  -6  18  187.69    8.49   1
  -4  -6  19   15.29    2.19   1
  -4  -6  20   29.38    3.47   1
  -4  -6  21   19.71    3.20   1
  -4  -6  22   75.17    6.94   1
  -4  -6  23   54.02    4.85   1
  -4  -6  24  392.83   19.03   1
  -4  -6  25   16.32    2.59   1
  -4  -6  26   14.06    3.38   1
  -4  -6  27   22.18    3.67   1
  -4  -6  28   -1.90    3.20   1
  -4  -6  29   13.99    3.59   1
  -4  -6  30   48.58    5.02   1
  -4  -6  31   -0.30    2.01   1
  -4  -6  32   11.97    3.18   1
  -4  -6  33   -0.40    2.19   1
  -4  -6  34   -1.39    3.40   1
  -4  -6  35    4.41    3.19   1
  -4  -6  36  150.06   11.27   1
  -4  -6  37   39.69    5.67   1
  -4  -6  38   20.88    5.21   1
  -4  -6  39    9.12    4.29   1
  -4  -6  40   35.05    6.63   1
  -4  -6  41   11.42    4.60   1
  -4  -6  42   36.36    6.63   1
  -4  -6  44    1.80    5.60   1
  -4  -5 -44   15.52    4.89   1
  -4  -5 -43    4.88    4.38   1
  -4  -5 -42   22.00    4.78   1
  -4  -5 -41    2.31    3.80   1
  -4  -5 -40    8.82    3.50   1
  -4  -5 -39   34.93    4.96   1
  -4  -5 -38   38.56    5.34   1
  -4  -5 -37    6.20    3.69   1
  -4  -5 -36   16.16    3.78   1
  -4  -5 -35    3.80    2.69   1
  -4  -5 -34   18.66    3.63   1
  -4  -5 -33   -0.71    2.10   1
  -4  -5 -32    1.80    2.60   1
  -4  -5 -31    2.69    2.79   1
  -4  -5 -30    1.80    2.60   1
  -4  -5 -29    6.92    2.68   1
  -4  -5 -28    2.50    2.40   1
  -4  -5 -27    2.59    2.29   1
  -4  -5 -26   -1.49    2.10   1
  -4  -5 -25    5.62    2.09   1
  -4  -5 -24    0.20    1.91   1
  -4  -5 -23    4.00    2.00   1
  -4  -5 -22    4.49    1.91   1
  -4  -5 -21  131.10    7.79   1
  -4  -5 -21  165.12    7.71   1
  -4  -5 -20    0.20    1.91   1
  -4  -5 -20   -1.00    1.10   1
  -4  -5 -19    3.80    1.40   1
  -4  -5 -19    1.90    1.90   1
  -4  -5 -18    2.79    1.30   1
  -4  -5 -18    0.30    1.51   1
  -4  -5 -17    4.41    1.30   1
  -4  -5 -17    3.69    1.50   1
  -4  -5 -16    2.89    1.29   1
  -4  -5 -16    1.59    1.49   1
  -4  -5 -15   -0.90    1.01   1
  -4  -5 -15   -1.30    1.39   1
  -4  -5 -14    2.59    1.00   1
  -4  -5 -14    0.50    1.41   1
  -4  -5 -13   44.22    3.86   1
  -4  -5 -12  334.52   15.36   1
  -4  -5 -11    6.10    1.48   1
  -4  -5 -11    4.49    1.02   1
  -4  -5 -10    0.50    1.41   1
  -4  -5 -10    2.19    1.01   1
  -4  -5  -9   38.19    2.35   1
  -4  -5  -9   22.47    2.56   1
  -4  -5  -8    5.90    1.51   1
  -4  -5  -7    0.79    1.19   1
  -4  -5  -4   98.41    5.56   1
  -4  -5  -3  384.55   16.47   1
  -4  -5  -2  448.59   21.18   1
  -4  -5  -1   19.71    2.84   1
  -4  -5   0  234.40    9.80   1
  -4  -5   1   35.64    2.87   1
  -4  -5   2    3.61    1.29   1
  -4  -5   3  125.22    7.61   1
  -4  -5   4  123.88    6.23   1
  -4  -5   5  106.92    6.62   1
  -4  -5   6   17.47    1.92   1
  -4  -5   8    3.39    1.58   1
  -4  -5   9    2.69    1.51   1
  -4  -5  10    1.59    1.49   1
  -4  -5  11   14.36    2.12   1
  -4  -5  12   98.41    5.16   1
  -4  -5  13   13.18    2.03   1
  -4  -5  14    2.10    1.71   1
  -4  -5  15    3.88    2.01   1
  -4  -5  16    4.08    1.90   1
  -4  -5  17   11.49    2.10   1
  -4  -5  18  151.54    9.85   1
  -4  -5  19   48.58    3.48   1
  -4  -5  20   50.55    4.12   1
  -4  -5  21  178.22    9.88   1
  -4  -5  23   19.89    3.30   1
  -4  -5  24  122.54    6.86   1
  -4  -5  25   66.75    5.07   1
  -4  -5  26   13.69    3.11   1
  -4  -5  27   52.85    5.23   1
  -4  -5  28    2.31    2.61   1
  -4  -5  29   10.63    2.93   1
  -4  -5  30   57.46    5.46   1
  -4  -5  31   47.06    4.66   1
  -4  -5  32    1.80    3.11   1
  -4  -5  33   39.56    5.03   1
  -4  -5  34    1.30    3.81   1
  -4  -5  35   11.90    3.80   1
  -4  -5  36   81.72    6.87   1
  -4  -5  37    4.80    3.59   1
  -4  -5  38    2.19    3.70   1
  -4  -5  39   31.92    5.20   1
  -4  -5  40   31.58    5.84   1
  -4  -5  41   -3.31    4.62   1
  -4  -5  42   20.34    4.78   1
  -4  -5  43    1.00    4.30   1
  -4  -5  46   36.24    7.59   1
  -4  -4 -46   15.37    7.06   1
  -4  -4 -45   40.83    6.52   1
  -4  -4 -44   -3.20    4.30   1
  -4  -4 -43   -4.20    4.02   1
  -4  -4 -42    7.51    3.78   1
  -4  -4 -41   13.62    4.43   1
  -4  -4 -40    3.80    4.02   1
  -4  -4 -39    3.88    2.88   1
  -4  -4 -38   11.63    4.43   1
  -4  -4 -37   40.45    4.96   1
  -4  -4 -36    8.82    3.39   1
  -4  -4 -35    3.31    2.91   1
  -4  -4 -34    2.99    3.01   1
  -4  -4 -33   56.25    5.70   1
  -4  -4 -32    0.30    2.21   1
  -4  -4 -31    2.10    2.41   1
  -4  -4 -30    5.11    2.71   1
  -4  -4 -29   11.09    2.80   1
  -4  -4 -28    2.31    2.01   1
  -4  -4 -27  147.62    8.02   1
  -4  -4 -27  195.72   10.63   1
  -4  -4 -26   15.92    2.39   1
  -4  -4 -26   14.82    2.69   1
  -4  -4 -25    1.39    1.60   1
  -4  -4 -25    2.69    1.90   1
  -4  -4 -24  126.79    7.88   1
  -4  -4 -23    3.31    1.82   1
  -4  -4 -23    1.90    1.49   1
  -4  -4 -22   -0.59    1.59   1
  -4  -4 -22    0.40    1.59   1
  -4  -4 -21   13.91    2.31   1
  -4  -4 -21   14.29    2.12   1
  -4  -4 -20   15.92    2.71   1
  -4  -4 -20   27.67    2.10   1
  -4  -4 -19    2.40    1.39   1
  -4  -4 -19    3.69    1.69   1
  -4  -4 -18  102.21    6.07   1
  -4  -4 -18  111.09    5.90   1
  -4  -4 -17   13.76    1.93   1
  -4  -4 -17    9.42    1.60   1
  -4  -4 -16    0.20    1.31   1
  -4  -4 -16    1.10    1.60   1
  -4  -4 -15  348.94   14.20   1
  -4  -4 -15  278.89   15.36   1
  -4  -4 -14    2.40    1.21   1
  -4  -4 -14    5.71    1.29   1
  -4  -4 -13    6.00    1.08   1
  -4  -4 -13    4.49    1.70   1
  -4  -4 -12   23.04    2.78   1
  -4  -4 -12   32.15    2.15   1
  -4  -4 -11    2.89    1.19   1
  -4  -4 -11    3.31    0.91   1
  -4  -4 -10   43.82    2.91   1
  -4  -4 -10   38.94    2.62   1
  -4  -4  -9  484.00   18.48   1
  -4  -4  -7   10.63    1.63   1
  -4  -4  -7   14.90    1.62   1
  -4  -4  -5  222.90   10.45   1
  -4  -4  -3  149.08    7.33   1
  -4  -4   0   -0.20    0.91   1
  -4  -4   1    6.00    1.42   1
  -4  -4   2    0.50    0.91   1
  -4  -4   3   17.22    1.83   1
  -4  -4   4   63.04    3.65   1
  -4  -4   5   44.09    3.19   1
  -4  -4   6 1316.96   53.71   1
  -4  -4   7  167.70    6.99   1
  -4  -4   8    2.79    1.30   1
  -4  -4   9  165.64    7.98   1
  -4  -4  10  113.00    6.38   1
  -4  -4  11    2.69    1.61   1
  -4  -4  12  154.50    7.71   1
  -4  -4  13    1.39    1.30   1
  -4  -4  14    2.31    1.49   1
  -4  -4  15  176.89    8.25   1
  -4  -4  16    2.79    1.40   1
  -4  -4  17   15.13    2.18   1
  -4  -4  18  222.01   10.13   1
  -4  -4  19   71.74    4.74   1
  -4  -4  20    1.00    1.80   1
  -4  -4  21   32.15    3.63   1
  -4  -4  22    2.10    1.80   1
  -4  -4  23    3.80    1.72   1
  -4  -4  24   37.21    3.66   1
  -4  -4  25    9.67    2.80   1
  -4  -4  26    2.19    2.49   1
  -4  -4  27  202.21    9.95   1
  -4  -4  28    8.12    2.68   1
  -4  -4  29   95.26    5.86   1
  -4  -4  30    6.81    2.82   1
  -4  -4  32   29.16    3.67   1
  -4  -4  33  222.90   13.44   1
  -4  -4  34   26.32    3.80   1
  -4  -4  35   -1.59    3.28   1
  -4  -4  36   21.72    2.98   1
  -4  -4  37   27.04    4.99   1
  -4  -4  40    4.80    4.12   1
  -4  -4  41    1.69    3.38   1
  -4  -4  42   12.32    5.34   1
  -4  -4  43    2.59    3.51   1
  -4  -4  44   -2.99    4.98   1
  -4  -4  45   35.52    5.96   1
  -4  -3 -46   -1.69    4.68   1
  -4  -3 -45   28.73    5.47   1
  -4  -3 -44    8.58    4.69   1
  -4  -3 -43    7.90    3.88   1
  -4  -3 -42   12.82    4.01   1
  -4  -3 -41   -1.00    3.20   1
  -4  -3 -40   -1.30    3.19   1
  -4  -3 -39  192.38   13.04   1
  -4  -3 -38    1.90    3.09   1
  -4  -3 -37    4.00    3.28   1
  -4  -3 -36   -1.00    2.80   1
  -4  -3 -35    6.30    2.71   1
  -4  -3 -34    1.59    3.00   1
  -4  -3 -33  132.71    7.83   1
  -4  -3 -33  128.14    8.15   1
  -4  -3 -32   -0.79    2.30   1
  -4  -3 -32   -1.00    2.30   1
  -4  -3 -31   -1.90    2.40   1
  -4  -3 -31   -0.71    2.60   1
  -4  -3 -30   33.76    3.25   1
  -4  -3 -30   37.45    3.55   1
  -4  -3 -29  111.51    6.97   1
  -4  -3 -29   98.01    6.34   1
  -4  -3 -28    3.50    1.91   1
  -4  -3 -28    5.20    2.19   1
  -4  -3 -27    7.78    2.01   1
  -4  -3 -27    7.29    2.00   1
  -4  -3 -26   17.22    2.49   1
  -4  -3 -26   17.72    2.27   1
  -4  -3 -25    5.62    1.90   1
  -4  -3 -25    3.61    1.90   1
  -4  -3 -24   34.57    3.06   1
  -4  -3 -24   41.34    5.27   1
  -4  -3 -23   17.72    2.78   1
  -4  -3 -23   27.77    2.85   1
  -4  -3 -22    5.29    1.98   1
  -4  -3 -22    4.80    1.71   1
  -4  -3 -21   60.84    4.99   1
  -4  -3 -20    1.90    1.41   1
  -4  -3 -19    1.00    1.30   1
  -4  -3 -18   30.25    2.53   1
  -4  -3 -18   33.52    2.55   1
  -4  -3 -17   12.32    1.83   1
  -4  -3 -17   11.90    1.59   1
  -4  -3 -16   -0.50    0.91   1
  -4  -3 -16    0.00    1.00   1
  -4  -3 -15    0.50    1.11   1
  -4  -3 -15    0.20    0.91   1
  -4  -3 -14    3.39    0.99   1
  -4  -3 -14    3.39    1.29   1
  -4  -3 -13    1.59    1.29   1
  -4  -3 -13    4.00    1.12   1
  -4  -3 -12   13.03    1.30   1
  -4  -3 -12   11.42    1.49   1
  -4  -3 -11   12.82    1.50   1
  -4  -3 -11   14.59    1.68   1
  -4  -3 -10    8.82    1.31   1
  -4  -3 -10   15.92    1.44   1
  -4  -3  -9   13.18    1.31   1
  -4  -3  -9   17.31    1.58   1
  -4  -3  -8   46.65    2.46   1
  -4  -3  -8   27.25    1.98   1
  -4  -3  -6  662.03   29.33   1
  -4  -3  -5  386.91   15.74   1
  -4  -3  -4   18.92    1.48   1
  -4  -3  -4   18.84    2.00   1
  -4  -3  -3  167.70    8.03   1
  -4  -3  -2   -0.30    0.90   1
  -4  -3  -2   -0.10    0.91   1
  -4  -3  -1   13.91    1.27   1
  -4  -3  -1   18.40    1.97   1
  -4  -3   0  584.67   22.73   1
  -4  -3   1   64.32    4.17   1
  -4  -3   2    5.52    0.89   1
  -4  -3   3  145.68    7.48   1
  -4  -3   4    7.29    1.08   1
  -4  -3   6  315.77   14.22   1
  -4  -3   7  264.39   12.36   1
  -4  -3   8   39.56    3.02   1
  -4  -3   9   42.64    3.13   1
  -4  -3  10    1.00    1.10   1
  -4  -3  11  100.20    5.41   1
  -4  -3  12   -1.30    1.09   1
  -4  -3  13   92.54    5.19   1
  -4  -3  14    6.60    1.49   1
  -4  -3  15   63.84    3.84   1
  -4  -3  16    4.49    1.70   1
  -4  -3  17   68.72    5.14   1
  -4  -3  18   31.92    3.05   1
  -4  -3  19   97.42    5.53   1
  -4  -3  20   19.27    2.63   1
  -4  -3  21  826.56   36.80   1
  -4  -3  22   50.27    4.25   1
  -4  -3  23   23.81    2.83   1
  -4  -3  24    0.10    1.41   1
  -4  -3  25   32.83    3.09   1
  -4  -3  26    0.40    1.89   1
  -4  -3  27   84.64    6.44   1
  -4  -3  28   22.47    3.13   1
  -4  -3  29   10.63    3.00   1
  -4  -3  30   55.50    5.21   1
  -4  -3  31   22.56    3.23   1
  -4  -3  34   42.64    4.70   1
  -4  -3  35   14.36    2.58   1
  -4  -3  36   14.90    3.47   1
  -4  -3  37    6.20    2.69   1
  -4  -3  38    1.69    3.80   1
  -4  -3  39   56.85    5.73   1
  -4  -3  40   -0.30    3.52   1
  -4  -3  44    2.69    3.71   1
  -4  -2 -47   -0.71    4.22   1
  -4  -2 -46    0.40    4.59   1
  -4  -2 -45    5.62    3.51   1
  -4  -2 -44   -1.00    3.70   1
  -4  -2 -43   -4.58    3.81   1
  -4  -2 -42   19.71    4.26   1
  -4  -2 -41   12.89    3.73   1
  -4  -2 -40   13.32    3.58   1
  -4  -2 -39   16.89    4.11   1
  -4  -2 -38   -1.10    2.79   1
  -4  -2 -38    9.67    3.42   1
  -4  -2 -37    8.58    3.11   1
  -4  -2 -37    9.92    3.72   1
  -4  -2 -36   56.85    4.98   1
  -4  -2 -36   44.22    4.79   1
  -4  -2 -35    6.00    2.70   1
  -4  -2 -35    1.10    2.50   1
  -4  -2 -34   16.81    3.20   1
  -4  -2 -34   15.76    3.41   1
  -4  -2 -33   31.02    3.45   1
  -4  -2 -33   35.64    4.06   1
  -4  -2 -32    4.49    2.29   1
  -4  -2 -32    5.62    2.70   1
  -4  -2 -31   18.06    3.48   1
  -4  -2 -31   16.97    2.64   1
  -4  -2 -30  133.40    7.85   1
  -4  -2 -30  144.96    8.19   1
  -4  -2 -29   -1.39    2.10   1
  -4  -2 -28    9.61    2.42   1
  -4  -2 -28    4.80    2.01   1
  -4  -2 -27  237.78   11.41   1
  -4  -2 -27  240.56   13.34   1
  -4  -2 -26   -2.19    2.19   1
  -4  -2 -26   -0.40    1.79   1
  -4  -2 -25   43.82    3.84   1
  -4  -2 -25   38.07    3.70   1
  -4  -2 -24   14.29    1.89   1
  -4  -2 -24   23.62    2.72   1
  -4  -2 -23    5.71    2.10   1
  -4  -2 -23    4.58    1.71   1
  -4  -2 -22   -0.30    1.41   1
  -4  -2 -22   -1.99    1.30   1
  -4  -2 -21   28.20    2.87   1
  -4  -2 -21   24.40    2.27   1
  -4  -2 -20   36.97    3.04   1
  -4  -2 -20   42.38    3.26   1
  -4  -2 -19    0.00    1.00   1
  -4  -2 -19    0.10    1.11   1
  -4  -2 -18   79.57    5.71   1
  -4  -2 -18   70.73    4.37   1
  -4  -2 -17    6.20    1.39   1
  -4  -2 -17    7.29    1.51   1
  -4  -2 -16    4.08    1.41   1
  -4  -2 -15    6.92    1.10   1
  -4  -2 -15    6.50    1.27   1
  -4  -2 -14    5.71    1.29   1
  -4  -2 -14    5.20    1.32   1
  -4  -2 -13    2.50    1.11   1
  -4  -2 -13    2.50    1.01   1
  -4  -2 -12  176.62    9.04   1
  -4  -2 -12  152.77    7.66   1
  -4  -2 -11   22.09    1.79   1
  -4  -2 -11   19.71    1.42   1
  -4  -2 -10   12.18    1.68   1
  -4  -2 -10    9.00    1.08   1
  -4  -2  -9  157.25    9.03   1
  -4  -2  -9  198.53    8.45   1
  -4  -2  -8    9.12    1.51   1
  -4  -2  -8    7.51    0.88   1
  -4  -2  -7    8.82    1.01   1
  -4  -2  -7   10.11    1.27   1
  -4  -2  -6  372.10   15.43   1
  -4  -2  -6  294.12   14.75   1
  -4  -2  -5    0.20    0.70   1
  -4  -2  -5   -0.50    0.91   1
  -4  -2  -4   33.41    2.20   1
  -4  -2  -4   25.00    1.60   1
  -4  -2  -3   72.76    3.41   1
  -4  -2  -2   36.24    2.17   1
  -4  -2  -2   43.96    2.78   1
  -4  -2  -1   13.18    1.02   1
  -4  -2  -1   18.58    1.47   1
  -4  -2   0  805.42   33.49   1
  -4  -2   0 1087.68   49.47   1
  -4  -2   1    2.59    1.00   1
  -4  -2   1    0.20    0.50   1
  -4  -2   2    8.29    0.92   1
  -4  -2   3  564.06   25.17   1
  -4  -2   4    6.92    1.00   1
  -4  -2   5   43.82    2.38   1
  -4  -2   6  584.67   29.02   1
  -4  -2   7   21.72    1.77   1
  -4  -2   8   12.53    1.42   1
  -4  -2   9  300.33   13.17   1
  -4  -2  10   27.98    2.12   1
  -4  -2  11    1.59    1.08   1
  -4  -2  12   97.81    5.34   1
  -4  -2  13  100.20    5.61   1
  -4  -2  14    1.80    1.21   1
  -4  -2  15  122.77    6.43   1
  -4  -2  16   -0.20    1.31   1
  -4  -2  17    0.90    1.41   1
  -4  -2  18  489.29   24.33   1
  -4  -2  19  114.92    6.22   1
  -4  -2  20    3.80    1.72   1
  -4  -2  21   91.39    5.54   1
  -4  -2  22   30.80    3.11   1
  -4  -2  23   48.16    4.30   1
  -4  -2  24   25.40    2.72   1
  -4  -2  25    5.90    2.09   1
  -4  -2  26   14.90    2.16   1
  -4  -2  27  350.44   16.47   1
  -4  -2  30   61.78    5.66   1
  -4  -2  31    6.40    2.48   1
  -4  -2  32   32.04    3.74   1
  -4  -2  33   11.70    3.28   1
  -4  -2  34    1.21    2.11   1
  -4  -2  34    0.10    2.94   1
  -4  -2  35   32.95    4.25   1
  -4  -2  36    7.18    3.11   1
  -4  -2  37   50.98    5.85   1
  -4  -2  38   -0.90    3.21   1
  -4  -2  39   -0.50    2.00   1
  -4  -2  40    3.80    2.81   1
  -4  -2  40    0.30    2.51   1
  -4  -2  41   11.70    4.10   1
  -4  -2  42    6.30    4.02   1
  -4  -2  43    4.28    4.10   1
  -4  -2  43   -3.50    2.69   1
  -4  -2  44   -1.30    4.10   1
  -4  -2  45  107.95   11.01   1
  -4  -2  46    2.69    3.61   1
  -4  -2  47    7.67    5.10   1
  -4  -2  47    7.40    4.41   1
  -4  -2  48   -5.29    5.61   1
  -4  -2  48   -2.40    5.61   1
  -4  -1 -47    2.69    4.00   1
  -4  -1 -46   -0.59    3.68   1
  -4  -1 -43    6.00    4.02   1
  -4  -1 -42   15.29    4.38   1
  -4  -1 -41    3.80    3.59   1
  -4  -1 -40    2.50    3.19   1
  -4  -1 -39    1.80    3.00   1
  -4  -1 -37    1.99    2.90   1
  -4  -1 -36   -1.80    2.60   1
  -4  -1 -35    8.29    3.11   1
  -4  -1 -34    4.49    2.59   1
  -4  -1 -33   15.92    3.91   1
  -4  -1 -32   12.89    3.30   1
  -4  -1 -31   16.97    2.80   1
  -4  -1 -30   16.00    2.48   1
  -4  -1 -30   11.02    2.92   1
  -4  -1 -29    0.10    1.72   1
  -4  -1 -29    2.69    2.20   1
  -4  -1 -28   25.40    2.82   1
  -4  -1 -28   13.62    3.03   1
  -4  -1 -27  322.20   15.44   1
  -4  -1 -27  319.34   17.16   1
  -4  -1 -26   -2.50    1.80   1
  -4  -1 -26   -0.40    1.79   1
  -4  -1 -25   16.48    2.19   1
  -4  -1 -25   13.99    2.09   1
  -4  -1 -24  133.40    7.62   1
  -4  -1 -23   32.04    2.94   1
  -4  -1 -23   24.70    3.18   1
  -4  -1 -22    5.52    1.69   1
  -4  -1 -22    1.39    1.60   1
  -4  -1 -21    0.90    1.20   1
  -4  -1 -21   -0.20    1.31   1
  -4  -1 -20  106.50    5.16   1
  -4  -1 -20  113.64    7.04   1
  -4  -1 -19    3.39    1.40   1
  -4  -1 -19   -0.79    1.30   1
  -4  -1 -18    3.69    1.38   1
  -4  -1 -18    0.00    1.00   1
  -4  -1 -17    9.30    1.71   1
  -4  -1 -17   10.18    1.28   1
  -4  -1 -16    0.79    0.89   1
  -4  -1 -16   -0.20    1.21   1
  -4  -1 -15  737.12   35.84   1
  -4  -1 -15  674.96   35.85   1
  -4  -1 -14    1.90    1.30   1
  -4  -1 -14    0.20    0.70   1
  -4  -1 -13    2.79    0.70   1
  -4  -1 -13    1.21    1.01   1
  -4  -1 -13    2.69    1.21   1
  -4  -1 -12  952.34   44.44   1
  -4  -1 -12 1099.59   48.41   1
  -4  -1 -11   15.37    3.61   1
  -4  -1 -11   10.18    1.08   1
  -4  -1 -11   14.36    1.29   1
  -4  -1 -10    1.80    0.99   1
  -4  -1 -10    0.50    0.70   1
  -4  -1 -10    0.79    0.61   1
  -4  -1  -9  222.61   10.44   1
  -4  -1  -9  213.74    8.77   1
  -4  -1  -8    0.20    0.60   1
  -4  -1  -8    0.71    0.60   1
  -4  -1  -8   -0.20    0.50   1
  -4  -1  -7   18.84    1.56   1
  -4  -1  -7   17.31    1.16   1
  -4  -1  -6  305.20   13.28   1
  -4  -1  -6  255.36   10.87   1
  -4  -1  -5  106.92    5.38   1
  -4  -1  -5  129.96    5.24   1
  -4  -1  -4   19.01    0.96   1
  -4  -1  -4   17.47    1.59   1
  -4  -1  -3   38.69    2.11   1
  -4  -1  -3   47.75    3.04   1
  -4  -1  -2    2.79    1.10   1
  -4  -1  -2    1.59    0.50   1
  -4  -1  -1    8.18    1.09   1
  -4  -1  -1   12.82    0.93   1
  -4  -1   0  120.78    5.49   1
  -4  -1   0  151.29    8.36   1
  -4  -1   1  101.61    5.24   1
  -4  -1   1  124.32    5.13   1
  -4  -1   2    6.81    0.78   1
  -4  -1   2    9.42    1.60   1
  -4  -1   3    5.52    0.70   1
  -4  -1   3    7.08    1.22   1
  -4  -1   4    0.20    0.50   1
  -4  -1   4   -0.59    0.89   1
  -4  -1   5   26.01    1.63   1
  -4  -1   6  269.94   12.16   1
  -4  -1   7    7.18    1.07   1
  -4  -1   8    0.10    0.71   1
  -4  -1   9    9.00    1.08   1
  -4  -1  11   72.59    3.92   1
  -4  -1  12    4.20    1.11   1
  -4  -1  13   42.38    3.26   1
  -4  -1  14   39.56    2.52   1
  -4  -1  15   75.34    5.21   1
  -4  -1  16   31.47    2.58   1
  -4  -1  19   81.00    5.22   1
  -4  -1  20   65.12    4.20   1
  -4  -1  24  266.02   13.37   1
  -4  -1  25   88.74    5.46   1
  -4  -1  25   65.12    4.68   1
  -4  -1  26   42.77    3.66   1
  -4  -1  27    4.28    2.28   1
  -4  -1  28   51.27    4.87   1
  -4  -1  29   -0.20    2.21   1
  -4  -1  30    6.00    2.60   1
  -4  -1  31   26.52    3.50   1
  -4  -1  32   -1.21    2.51   1
  -4  -1  33  152.03    8.38   1
  -4  -1  33  109.20    9.40   1
  -4  -1  34   -3.61    2.51   1
  -4  -1  35    4.28    2.11   1
  -4  -1  36   52.13    5.63   1
  -4  -1  37    5.62    3.32   1
  -4  -1  38   -2.89    3.20   1
  -4  -1  39   58.98    5.84   1
  -4  -1  39   63.84    6.07   1
  -4  -1  40    1.39    2.69   1
  -4  -1  40    8.41    3.60   1
  -4  -1  41    0.59    2.39   1
  -4  -1  42    6.71    4.61   1
  -4  -1  43   35.76    5.26   1
  -4  -1  44    4.49    4.11   1
  -4  -1  45    9.00    3.72   1
  -4  -1  46    7.90    5.11   1
  -4  -1  47    1.59    5.29   1
  -4  -1  47    0.90    3.80   1
  -4  -1  48   22.09    5.45   1
  -4  -1  48   25.81    4.78   1
  -4  -1  49   -4.28    5.09   1
  -4   0 -46   32.38    5.12   1
  -4   0 -46   23.72    5.84   1
  -4   0 -44    2.40    3.50   1
  -4   0 -42    4.71    3.69   1
  -4   0 -40   11.97    4.43   1
  -4   0 -38   34.34    4.34   1
  -4   0 -38   22.75    4.10   1
  -4   0 -36  160.02    9.61   1
  -4   0 -34   -1.39    2.69   1
  -4   0 -32    3.20    2.29   1
  -4   0 -30   35.76    3.83   1
  -4   0 -28   15.37    3.06   1
  -4   0 -26   74.30    5.52   1
  -4   0 -24   22.94    2.49   1
  -4   0 -22   36.12    2.64   1
  -4   0 -22   41.34    3.21   1
  -4   0 -20   12.53    2.12   1
  -4   0 -20   12.32    1.90   1
  -4   0 -18    2.59    0.90   1
  -4   0 -18    0.00    1.00   1
  -4   0 -16   24.70    2.48   1
  -4   0 -14   16.97    1.57   1
  -4   0 -14   18.92    2.00   1
  -4   0 -12   -0.59    0.69   1
  -4   0 -12    0.50    1.11   1
  -4   0 -12   -0.20    0.70   1
  -4   0 -10    0.79    1.19   1
  -4   0 -10   -0.20    0.50   1
  -4   0 -10    1.30    0.50   1
  -4   0  -8    8.01    1.70   1
  -4   0  -8   49.70    1.97   1
  -4   0  -8   58.98    3.23   1
  -4   0  -6 1434.89   60.61   1
  -4   0  -6 1663.82   77.50   1
  -4   0  -4   65.12    2.26   1
  -4   0  -4   65.77    3.57   1
  -4   0  -4   54.02    2.06   1
  -4   0  -2   50.27    1.84   1
  -4   0  -2   45.70    2.84   1
  -4   0   0 1115.56   40.08   1
  -4   0   0 1044.58   42.02   1
  -4   0   2   22.37    1.80   1
  -4   0   2   21.53    1.11   1
  -4   0   4    6.10    1.19   1
  -4   0   4    7.02    0.80   1
  -4   0   6   21.16    1.84   1
  -4   0   8   11.02    1.00   1
  -4   0  22  207.94   12.40   1
  -4   0  24    5.90    2.09   1
  -4   0  26   34.46    3.64   1
  -4   0  28    5.62    2.18   1
  -4   0  30    2.19    1.89   1
  -4   0  30    2.40    2.20   1
  -4   0  32    7.62    2.59   1
  -4   0  34   31.81    4.17   1
  -4   0  36   27.77    3.79   1
  -4   0  40   45.02    5.64   1
  -4   0  40   34.69    4.95   1
  -4   0  42    3.88    4.37   1
  -4   0  42    7.62    3.92   1
  -4   0  44    0.40    4.38   1
  -4   0  44   -0.20    2.72   1
  -4   0  46    3.20    4.30   1
  -4   0  46   -0.20    5.03   1
  -4   0  48   16.56    5.70   1
  -4   0  48    7.67    5.26   1
  -4   1 -47   -1.10    3.91   1
  -4   1 -47    5.52    4.23   1
  -4   1 -46    9.92    4.60   1
  -4   1 -46    0.20    4.02   1
  -4   1 -45    7.02    4.19   1
  -4   1 -45    7.67    4.38   1
  -4   1 -44    1.39    4.70   1
  -4   1 -43   11.09    4.40   1
  -4   1 -42   13.32    4.60   1
  -4   1 -41    5.71    3.68   1
  -4   1 -40    2.50    3.51   1
  -4   1 -39   -1.90    2.70   1
  -4   1 -38   11.49    3.53   1
  -4   1 -37    2.50    3.00   1
  -4   1 -36    2.59    3.19   1
  -4   1 -35   13.10    3.40   1
  -4   1 -34   11.70    3.21   1
  -4   1 -33   13.40    2.78   1
  -4   1 -32    6.60    3.08   1
  -4   1 -31   10.11    2.67   1
  -4   1 -30    7.62    3.09   1
  -4   1 -29    2.79    2.20   1
  -4   1 -28   20.88    3.38   1
  -4   1 -27  308.00   15.44   1
  -4   1 -26    2.79    2.20   1
  -4   1 -25    6.10    2.12   1
  -4   1 -24  124.55    6.92   1
  -4   1 -23   28.62    2.89   1
  -4   1 -22    4.28    1.99   1
  -4   1 -21    1.30    1.80   1
  -4   1 -20  100.20    5.41   1
  -4   1 -19    0.00    1.00   1
  -4   1 -18    1.10    1.81   1
  -4   1 -17    8.82    1.90   1
  -4   1 -16    0.59    1.39   1
  -4   1 -16    0.79    4.68   1
  -4   1 -15  740.38   33.20   1
  -4   1 -15  703.31   27.58   1
  -4   1 -14    0.00    1.00   1
  -4   1 -14    0.30    1.00   1
  -4   1 -13    1.39    0.99   1
  -4   1 -13    4.58    1.50   1
  -4   1 -12 1026.56   44.22   1
  -4   1 -12 1071.91   44.53   1
  -4   1 -11    5.62    0.81   1
  -4   1 -11   15.60    2.13   1
  -4   1 -10    0.00    1.00   1
  -4   1  -9  220.82    6.54   1
  -4   1  -9    0.79    0.69   1
  -4   1  -8    0.79    1.00   1
  -4   1  -8    0.79    0.39   1
  -4   1  -7   23.04    2.02   1
  -4   1  -7   19.10    0.87   1
  -4   1  -6  291.04   14.67   1
  -4   1  -5  129.28    6.82   1
  -4   1  -4   24.90    2.20   1
  -4   1  -3   47.06    3.02   1
  -4   1  -2    1.10    1.01   1
  -4   1  -1    8.88    1.07   1
  -4   1   0  149.82    7.34   1
  -4   1   1  113.42    4.69   1
  -4   1   2    9.49    1.60   1
  -4   1   3    6.60    1.18   1
  -4   1   4   -0.20    0.70   1
  -4   1   4    0.00    1.00   1
  -4   1   5   27.77    2.11   1
  -4   1   5   25.10    1.70   1
  -4   1   6  298.25   11.74   1
  -4   1   6  316.84   15.31   1
  -4   1   7    7.02    1.22   1
  -4   1   7    8.12    0.91   1
  -4   1   8    0.10    0.71   1
  -4   1   8   -1.00    0.60   1
  -4   1   9   12.39    1.27   1
  -4   1  10   17.31    1.83   1
  -4   1  11   65.12    3.71   1
  -4   1  12    4.41    1.09   1
  -4   1  13   43.69    3.04   1
  -4   1  14   34.81    2.48   1
  -4   1  15   77.62    4.58   1
  -4   1  16   34.69    2.71   1
  -4   1  18   12.18    1.68   1
  -4   1  20   79.92    4.65   1
  -4   1  21  149.33    7.82   1
  -4   1  22   13.03    2.24   1
  -4   1  23    0.10    1.62   1
  -4   1  24  258.24   13.50   1
  -4   1  25   74.48    5.52   1
  -4   1  26   34.11    3.85   1
  -4   1  27    7.29    2.11   1
  -4   1  28   44.89    4.15   1
  -4   1  29    0.30    2.01   1
  -4   1  30    5.02    2.20   1
  -4   1  31   21.62    2.79   1
  -4   1  32   -1.39    2.29   1
  -4   1  33  132.25    7.13   1
  -4   1  34   -0.30    2.61   1
  -4   1  35    2.99    2.49   1
  -4   1  36   59.91    5.73   1
  -4   1  37   12.32    3.37   1
  -4   1  38   -2.99    2.91   1
  -4   1  39   74.13    5.51   1
  -4   1  39   55.20    6.69   1
  -4   1  40    0.71    3.61   1
  -4   1  41   -2.19    3.58   1
  -4   1  42    2.31    4.20   1
  -4   1  43   31.14    5.69   1
  -4   1  43   24.21    5.41   1
  -4   1  44    7.18    4.61   1
  -4   1  44    2.69    4.69   1
  -4   1  45    8.29    3.57   1
  -4   1  46   16.97    5.36   1
  -4   1  47    3.10    3.41   1
  -4   1  47    7.51    3.40   1
  -4   1  48   35.28    6.30   1
  -4   1  48   14.67    6.28   1
  -4   1  49    1.39    5.38   1
  -4   1  49   -8.88    5.72   1
  -4   2 -47    8.01    5.21   1
  -4   2 -46   -3.50    5.50   1
  -4   2 -45   10.18    5.17   1
  -4   2 -44   -5.29    4.19   1
  -4   2 -43    1.80    4.21   1
  -4   2 -42   12.39    4.29   1
  -4   2 -41   13.76    4.60   1
  -4   2 -40   16.73    4.74   1
  -4   2 -39   17.47    4.26   1
  -4   2 -38    5.02    3.72   1
  -4   2 -37   15.60    4.11   1
  -4   2 -36   53.00    5.97   1
  -4   2 -35    2.50    3.51   1
  -4   2 -34    8.12    3.19   1
  -4   2 -33   32.38    4.21   1
  -4   2 -32    5.81    3.08   1
  -4   2 -31   20.98    2.93   1
  -4   2 -30  149.08    8.30   1
  -4   2 -29   -0.30    2.61   1
  -4   2 -28   10.30    2.31   1
  -4   2 -27  231.04   12.46   1
  -4   2 -26    1.10    1.41   1
  -4   2 -25   47.06    4.39   1
  -4   2 -24   18.06    2.72   1
  -4   2 -23    4.80    2.19   1
  -4   2 -22    1.69    1.79   1
  -4   2 -21   30.80    3.33   1
  -4   2 -20   48.44    4.04   1
  -4   2 -18   78.68    4.79   1
  -4   2 -17    7.90    2.08   1
  -4   2 -16    5.20    1.92   1
  -4   2 -15    3.69    1.69   1
  -4   2 -14    4.80    1.01   1
  -4   2 -14    4.08    1.41   1
  -4   2 -13    4.28    1.41   1
  -4   2 -13    1.00    0.90   1
  -4   2 -12  156.50    7.51   1
  -4   2 -12  154.75    8.21   1
  -4   2 -11   20.98    2.29   1
  -4   2 -11   17.89    1.44   1
  -4   2 -10    5.81    1.01   1
  -4   2 -10   11.97    1.80   1
  -4   2  -9  201.07    5.96   1
  -4   2  -9    0.79    0.80   1
  -4   2  -8    0.00    1.00   1
  -4   2  -8    7.29    1.19   1
  -4   2  -7    0.59    0.40   1
  -4   2  -7    9.30    1.28   1
  -4   2  -6  330.88   15.28   1
  -4   2  -5    0.20    0.40   1
  -4   2  -5   -0.20    1.21   1
  -4   2  -4   24.80    2.39   1
  -4   2  -4   22.75    1.14   1
  -4   2  -3   93.70    5.81   1
  -4   2  -2   27.04    1.77   1
  -4   2  -2   39.19    2.75   1
  -4   2  -1   14.82    1.46   1
  -4   2   0  969.70   32.39   1
  -4   2   0    0.10    0.40   1
  -4   2   1    0.30    0.70   1
  -4   2   2    9.80    1.31   1
  -4   2   3  669.77   24.84   1
  -4   2   4    7.62    1.38   1
  -4   2   5   55.65    3.43   1
  -4   2   6  709.69   24.51   1
  -4   2   7   28.52    2.46   1
  -4   2   8   13.18    1.60   1
  -4   2   9  354.95   14.32   1
  -4   2  13  124.10    5.35   1
  -4   2  14    1.80    1.21   1
  -4   2  15  117.51    5.85   1
  -4   2  16   -0.10    1.11   1
  -4   2  16    1.30    1.30   1
  -4   2  17    1.39    1.49   1
  -4   2  17    3.20    1.22   1
  -4   2  18  607.13   25.63   1
  -4   2  18  539.17   24.61   1
  -4   2  19  118.59    6.97   1
  -4   2  19  128.60    6.12   1
  -4   2  20   -0.30    1.41   1
  -4   2  20    2.40    1.21   1
  -4   2  21  102.41    5.26   1
  -4   2  21   96.83    6.89   1
  -4   2  22   29.59    2.39   1
  -4   2  22   32.83    2.98   1
  -4   2  23   51.41    4.02   1
  -4   2  23   45.56    3.91   1
  -4   2  24   23.33    2.70   1
  -4   2  24   21.07    2.57   1
  -4   2  25    3.20    1.79   1
  -4   2  25    2.19    1.51   1
  -4   2  26   14.82    2.39   1
  -4   2  26   20.52    2.54   1
  -4   2  27  402.80   19.27   1
  -4   2  28  144.96    8.43   1
  -4   2  29   11.97    2.70   1
  -4   2  30   63.20    4.77   1
  -4   2  31    2.50    2.09   1
  -4   2  32   29.48    4.67   1
  -4   2  33   17.39    3.17   1
  -4   2  34   -0.10    2.53   1
  -4   2  35   31.58    3.82   1
  -4   2  36    5.71    3.01   1
  -4   2  37   60.53    5.76   1
  -4   2  38   -0.90    3.00   1
  -4   2  39    0.90    3.10   1
  -4   2  39    0.30    3.11   1
  -4   2  40    7.51    3.29   1
  -4   2  40    2.79    2.20   1
  -4   2  41    7.62    3.92   1
  -4   2  41   12.82    3.94   1
  -4   2  42    8.41    4.58   1
  -4   2  43   -0.10    3.85   1
  -4   2  44   -4.08    3.88   1
  -4   2  45   89.87    8.72   1
  -4   2  46    7.18    4.40   1
  -4   2  47    7.62    4.80   1
  -4   2  48   -4.00    5.40   1
  -4   3 -45   12.32    6.18   1
  -4   3 -43    4.80    4.99   1
  -4   3 -42    9.30    3.29   1
  -4   3 -41    5.90    3.60   1
  -4   3 -40    0.59    3.68   1
  -4   3 -39  213.74   12.28   1
  -4   3 -38    7.67    4.21   1
  -4   3 -37   -0.30    2.21   1
  -4   3 -36    1.69    3.09   1
  -4   3 -35    2.50    3.19   1
  -4   3 -34    4.58    2.91   1
  -4   3 -33  111.72    7.61   1
  -4   3 -32   -1.39    2.01   1
  -4   3 -31   -0.71    2.60   1
  -4   3 -30   38.44    4.46   1
  -4   3 -29   98.21    7.53   1
  -4   3 -28    1.80    2.09   1
  -4   3 -27    5.90    2.62   1
  -4   3 -26   20.79    2.74   1
  -4   3 -25    3.10    2.11   1
  -4   3 -24   34.93    4.02   1
  -4   3 -23   20.34    2.35   1
  -4   3 -22    3.88    2.09   1
  -4   3 -21   60.84    5.46   1
  -4   3 -20    0.40    1.30   1
  -4   3 -19    0.71    1.21   1
  -4   3 -18   29.59    3.26   1
  -4   3 -17   15.21    2.18   1
  -4   3 -16    0.90    1.41   1
  -4   3 -15   -0.10    1.62   1
  -4   3 -14    1.59    1.29   1
  -4   3 -13    2.31    1.61   1
  -4   3 -13   -1.69    1.20   1
  -4   3 -12   12.82    1.50   1
  -4   3 -12   13.10    1.81   1
  -4   3 -11   13.40    1.68   1
  -4   3 -11    9.67    1.37   1
  -4   3 -10    9.80    1.19   1
  -4   3 -10   13.91    1.87   1
  -4   3  -9   15.68    1.50   1
  -4   3  -9   14.82    1.92   1
  -4   3  -8   27.25    1.88   1
  -4   3  -8   36.97    2.92   1
  -4   3  -7   25.00    2.20   1
  -4   3  -7   20.98    1.56   1
  -4   3  -6  511.21   29.39   1
  -4   3  -6  567.39   20.96   1
  -4   3  -5  318.98   14.65   1
  -4   3  -5  263.74   13.64   1
  -4   3  -4   11.22    1.00   1
  -4   3  -4   17.47    1.67   1
  -4   3  -3  115.13    5.79   1
  -4   3  -3  135.02    5.81   1
  -4   3  -2    0.79    1.09   1
  -4   3  -2    0.20    0.60   1
  -4   3  -1   14.90    1.39   1
  -4   3  -1   16.08    1.92   1
  -4   3   0  589.52   29.14   1
  -4   3   0  685.39   29.32   1
  -4   3   1   89.11    4.34   1
  -4   3   1   69.72    4.84   1
  -4   3   2   10.30    1.48   1
  -4   3   2    6.40    1.21   1
  -4   3   3  148.11    9.01   1
  -4   3   3  187.69    7.67   1
  -4   3   4    7.51    0.88   1
  -4   3   4    2.19    1.10   1
  -4   3   5   33.29    2.65   1
  -4   3   6  394.02   17.86   1
  -4   3   7  327.25   14.83   1
  -4   3   8   53.73    3.37   1
  -4   3   9   58.83    3.53   1
  -4   3  10    1.21    1.21   1
  -4   3  15   72.93    4.10   1
  -4   3  16    4.41    1.30   1
  -4   3  17   95.65    4.69   1
  -4   3  18   33.76    2.56   1
  -4   3  19  114.06    6.62   1
  -4   3  20   18.92    1.91   1
  -4   3  21 1058.85   46.21   1
  -4   3  22   55.80    3.73   1
  -4   3  23   30.25    2.31   1
  -4   3  24    1.80    1.39   1
  -4   3  25   40.32    3.56   1
  -4   3  26    2.79    1.60   1
  -4   3  27  108.16    5.62   1
  -4   3  28   29.27    3.14   1
  -4   3  29    9.42    2.58   1
  -4   3  30   82.08    6.34   1
  -4   3  31   29.48    3.48   1
  -4   3  32   19.98    3.13   1
  -4   3  33    9.61    2.42   1
  -4   3  34   41.86    4.27   1
  -4   3  35   13.32    3.21   1
  -4   3  36    4.71    2.99   1
  -4   3  37    1.10    2.90   1
  -4   3  38   -6.00    2.79   1
  -4   3  39   63.36    6.37   1
  -4   3  40   -1.21    3.72   1
  -4   3  41    4.28    3.81   1
  -4   3  42   -4.20    3.40   1
  -4   3  43   24.11    4.52   1
  -4   4 -45    9.00    5.88   1
  -4   4 -44    4.58    5.01   1
  -4   4 -43   -4.00    5.40   1
  -4   4 -42    8.18    4.80   1
  -4   4 -41    8.70    4.31   1
  -4   4 -40   -0.30    4.32   1
  -4   4 -39    2.40    3.10   1
  -4   4 -38   15.52    2.99   1
  -4   4 -37   36.60    5.45   1
  -4   4 -36   11.83    3.78   1
  -4   4 -35    2.79    3.51   1
  -4   4 -34    2.69    3.51   1
  -4   4 -33   49.14    4.91   1
  -4   4 -32    0.00    1.00   1
  -4   4 -31    1.39    2.10   1
  -4   4 -30    6.71    3.32   1
  -4   4 -29    7.90    3.20   1
  -4   4 -28    2.59    2.38   1
  -4   4 -27  161.04    9.90   1
  -4   4 -26   14.29    3.48   1
  -4   4 -25   -0.20    2.41   1
  -4   4 -24  113.00    8.93   1
  -4   4 -23    0.40    2.49   1
  -4   4 -22   -1.69    2.00   1
  -4   4 -21   12.32    2.39   1
  -4   4 -20   20.43    3.34   1
  -4   4 -19   -1.21    1.91   1
  -4   4 -18  108.78    6.88   1
  -4   4 -17   14.59    2.22   1
  -4   4 -16   -1.49    1.90   1
  -4   4 -15  301.37   13.19   1
  -4   4 -14    1.99    1.69   1
  -4   4 -13    3.50    1.68   1
  -4   4 -12   26.42    2.78   1
  -4   4 -11    1.80    1.61   1
  -4   4 -10   37.95    3.08   1
  -4   4  -9  384.55   18.04   1
  -4   4  -9  331.60   21.12   1
  -4   4  -8  206.50   12.36   1
  -4   4  -8  247.75   10.70   1
  -4   4  -7   12.67    1.99   1
  -4   4  -6   93.90    6.01   1
  -4   4  -6  118.16    5.65   1
  -4   4  -5  252.49   10.49   1
  -4   4  -5  205.64   11.47   1
  -4   4  -4   16.16    2.01   1
  -4   4  -4   28.62    2.57   1
  -4   4  -3  133.17    8.77   1
  -4   4  -2  126.34    6.52   1
  -4   4  -2  161.29    7.37   1
  -4   4  -1   67.57    3.95   1
  -4   4   0    0.79    0.89   1
  -4   4   1    8.88    1.49   1
  -4   4   2    1.49    0.81   1
  -4   4   3   21.34    2.22   1
  -4   4   4   81.00    4.86   1
  -4   4   5   61.62    3.45   1
  -4   4   6 1728.90   68.19   1
  -4   4   7  209.67   10.14   1
  -4   4   8    1.39    1.20   1
  -4   4   9  185.23    8.44   1
  -4   4  10  132.48    6.91   1
  -4   4  11    2.19    1.18   1
  -4   4  14    2.69    0.69   1
  -4   4  15  233.78   10.09   1
  -4   4  16    6.50    1.12   1
  -4   4  17   15.37    1.49   1
  -4   4  18  295.15   12.03   1
  -4   4  19   86.49    4.28   1
  -4   4  20   -1.49    1.20   1
  -4   4  21   34.46    2.82   1
  -4   4  22    3.20    1.61   1
  -4   4  23    4.20    1.80   1
  -4   4  24   31.81    2.59   1
  -4   4  25    9.12    2.11   1
  -4   4  26    3.10    2.01   1
  -4   4  27  247.75   11.65   1
  -4   4  28   14.82    2.46   1
  -4   4  29  114.06    7.26   1
  -4   4  30    3.50    2.51   1
  -4   4  31   84.64    5.89   1
  -4   4  32   41.60    4.26   1
  -4   4  33  277.56   12.66   1
  -4   4  34   33.41    3.81   1
  -4   4  35    2.40    2.51   1
  -4   4  36   22.28    3.78   1
  -4   5 -43   -0.30    5.82   1
  -4   5 -42   20.43    5.79   1
  -4   5 -41   -0.40    4.69   1
  -4   5 -40   17.81    4.98   1
  -4   5 -39   52.27    6.36   1
  -4   5 -38   39.94    6.45   1
  -4   5 -37   -2.40    2.60   1
  -4   5 -36   25.81    4.47   1
  -4   5 -35    2.69    2.69   1
  -4   5 -34   14.98    3.17   1
  -4   5 -33   -0.79    2.30   1
  -4   5 -32    2.69    2.79   1
  -4   5 -31    5.02    3.00   1
  -4   5 -30    5.52    3.38   1
  -4   5 -29    0.79    3.08   1
  -4   5 -28    1.39    1.79   1
  -4   5 -27   -1.59    2.70   1
  -4   5 -26    0.10    1.82   1
  -4   5 -25    0.90    2.39   1
  -4   5 -24   -1.90    1.71   1
  -4   5 -23    2.99    2.28   1
  -4   5 -22   -0.79    2.19   1
  -4   5 -21  142.09    7.63   1
  -4   5 -20    1.59    2.19   1
  -4   5 -19    2.31    2.22   1
  -4   5 -18    1.90    2.10   1
  -4   5 -17   -0.59    1.79   1
  -4   5 -16    2.31    2.01   1
  -4   5 -15    1.59    1.89   1
  -4   5 -14    1.99    1.69   1
  -4   5 -13   46.51    3.68   1
  -4   5 -12  359.10   14.78   1
  -4   5 -11    4.71    1.82   1
  -4   5 -10    1.39    1.49   1
  -4   5  -9   27.25    2.71   1
  -4   5  -8    9.61    2.23   1
  -4   5  -7   -0.20    1.61   1
  -4   5  -6  909.02   36.78   1
  -4   5  -5   59.75    3.71   1
  -4   5  -4  121.44    5.73   1
  -4   5  -3  425.60   18.57   1
  -4   5  -2  503.55   19.30   1
  -4   5  -1   19.10    2.27   1
  -4   5   0  289.00   12.92   1
  -4   5   1   43.69    3.57   1
  -4   5   2    4.88    1.41   1
  -4   5   3  163.58    6.65   1
  -4   5   4  145.44    7.48   1
  -4   5   5  135.49    6.98   1
  -4   5   6   28.73    2.25   1
  -4   5   7   34.11    2.69   1
  -4   5   8    6.40    1.52   1
  -4   5   9    0.40    1.20   1
  -4   5  10    0.79    1.19   1
  -4   5  12  118.59    5.88   1
  -4   5  13   15.92    1.12   1
  -4   5  14    1.99    0.59   1
  -4   5  15    2.79    0.90   1
  -4   5  16    1.90    0.99   1
  -4   5  17   22.00    1.69   1
  -4   5  18  175.83    6.90   1
  -4   5  20   64.00    4.00   1
  -4   5  21  192.65   11.10   1
  -4   5  22   33.18    2.42   1
  -4   5  24  120.34    6.58   1
  -4   5  25   67.90    3.96   1
  -4   5  26   17.64    2.27   1
  -4   6 -41   55.65    7.76   1
  -4   6 -40   -0.20    4.23   1
  -4   6 -39    3.50    3.59   1
  -4   6 -38   -0.20    2.92   1
  -4   6 -37    1.39    3.99   1
  -4   6 -36   64.32    6.58   1
  -4   6 -35    7.51    4.22   1
  -4   6 -34    6.30    4.22   1
  -4   6 -33    2.89    3.81   1
  -4   6 -32    8.29    3.00   1
  -4   6 -31    0.90    2.11   1
  -4   6 -30   -0.20    3.32   1
  -4   6 -29    1.00    3.20   1
  -4   6 -28    0.20    2.11   1
  -4   6 -27    6.81    3.29   1
  -4   6 -26   -1.21    2.82   1
  -4   6 -25    6.71    2.80   1
  -4   6 -24    1.49    2.59   1
  -4   6 -23   -1.49    2.49   1
  -4   6 -22    2.59    2.61   1
  -4   6 -21   20.07    3.23   1
  -4   6 -20   11.22    2.08   1
  -4   6 -19   29.48    3.37   1
  -4   6 -18  274.23   13.58   1
  -4   6 -17   33.99    3.85   1
  -4   6 -16    0.10    2.12   1
  -4   6 -15   72.42    5.28   1
  -4   6 -14    5.02    2.02   1
  -4   6 -13   15.13    2.80   1
  -4   6 -12   85.93    5.19   1
  -4   6 -11    0.20    1.71   1
  -4   6 -10   22.56    2.66   1
  -4   6  -9    6.30    2.11   1
  -4   6  -8   26.21    2.97   1
  -4   6  -7   22.56    2.75   1
  -4   6  -6  446.90   18.18   1
  -4   6  -5    8.82    2.08   1
  -4   6  -4   13.91    2.24   1
  -4   6  -3    1.30    1.71   1
  -4   6  -2  128.37    7.02   1
  -4   6  -2  137.36    5.39   1
  -4   6  -1   40.45    2.04   1
  -4   6  -1   43.16    2.89   1
  -4   6   0  347.08   13.04   1
  -4   6   0  337.46   14.70   1
  -4   6   1   57.15    3.48   1
  -4   6   2    2.79    1.40   1
  -4   6   3   17.98    2.63   1
  -4   6   4   15.92    2.00   1
  -4   6   5   28.09    2.33   1
  -4   6   6   29.92    2.63   1
  -4   6   7   30.03    2.41   1
  -4   6   8   -0.30    1.10   1
  -4   6   9    6.81    1.51   1
  -4   6  10   23.52    2.42   1
  -4   6  11    1.39    1.60   1
  -4   6  12   42.12    3.24   1
  -4   7 -40   -1.99    5.78   1
  -4   7 -39   15.29    5.71   1
  -4   7 -38    8.70    3.89   1
  -4   7 -37   -2.69    3.38   1
  -4   7 -36   11.42    4.39   1
  -4   7 -35   81.72    7.41   1
  -4   7 -34    4.88    3.49   1
  -4   7 -33   23.33    3.96   1
  -4   7 -32   10.11    4.83   1
  -4   7 -31    5.38    3.90   1
  -4   7 -30   73.27    6.85   1
  -4   7 -29   10.63    3.78   1
  -4   7 -28    2.79    2.91   1
  -4   7 -26    3.88    2.01   1
  -4   7 -25    0.90    2.70   1
  -4   7 -24   50.41    5.40   1
  -4   7 -23    3.31    3.09   1
  -4   7 -22    1.69    2.50   1
  -4   7 -21   53.58    4.25   1
  -4   7 -20    3.20    2.29   1
  -4   7 -19    4.20    2.50   1
  -4   7 -18  235.93   11.67   1
  -4   7 -17   29.92    3.39   1
  -4   7 -16   38.44    4.09   1
  -4   7 -15  455.40   19.63   1
  -4   7 -14    7.78    2.40   1
  -4   7 -13    1.59    1.99   1
  -4   7 -12    7.67    2.27   1
  -4   7 -11   33.76    3.25   1
  -4   7 -10   -1.59    1.59   1
  -4   7  -9   32.38    3.07   1
  -4   7  -8    7.67    2.27   1
  -4   7  -7   61.31    4.38   1
  -4   7  -6  156.75    7.76   1
  -4   7  -5   70.90    4.04   1
  -4   7  -4   17.64    2.27   1
  -4   7  -3  320.05   15.74   1
  -4   7  -2   37.21    3.17   1
  -4   7  -1   32.15    2.72   1
  -4   7   0    5.11    1.90   1
  -4   7   1   16.40    2.19   1
  -4   7   2    4.80    1.62   1
  -4   7   3   17.31    2.00   1
  -4   7   4    1.10    1.41   1
  -4   7   5    3.20    1.40   1
  -4   7   6  102.62    6.48   1
  -4   7   7    2.89    1.39   1
  -4   7   8   45.56    3.51   1
  -4   7   9   28.30    2.66   1
  -4   7  10   35.05    2.49   1
  -4   7  12   50.69    4.13   1
  -4   7  13   33.29    2.65   1
  -4   8 -38  -11.29    5.71   1
  -4   8 -36   28.30    5.53   1
  -4   8 -35   46.24    6.53   1
  -4   8 -34    7.18    4.88   1
  -4   8 -33   17.22    4.73   1
  -4   8 -32    3.61    4.22   1
  -4   8 -31   16.16    3.70   1
  -4   8 -30    3.39    3.61   1
  -4   8 -29   -0.79    4.08   1
  -4   8 -28   32.95    4.71   1
  -4   8 -27  173.98   12.40   1
  -4   8 -26   39.44    5.02   1
  -4   8 -25   12.60    3.19   1
  -4   8 -24   27.25    4.07   1
  -4   8 -23   39.31    4.64   1
  -4   8 -22    7.78    3.18   1
  -4   8 -21   81.18    5.77   1
  -4   8 -20    0.59    1.79   1
  -4   8 -19    1.99    2.00   1
  -4   8 -18    0.90    2.39   1
  -4   8 -17    5.11    2.98   1
  -4   8 -16    4.20    2.42   1
  -4   8 -15    7.51    2.08   1
  -4   8 -14   45.56    4.32   1
  -4   8 -13   -2.59    2.09   1
  -4   8 -12   73.79    5.67   1
  -4   8 -11   12.60    2.70   1
  -4   8 -10   14.06    2.70   1
  -4   8  -9 1341.76   63.00   1
  -4   8  -8   28.73    3.32   1
  -4   8  -7    0.79    1.80   1
  -4   8  -6    7.18    1.82   1
  -4   8  -5   15.37    2.43   1
  -4   8  -4   35.64    2.87   1
  -4   8  -3   77.26    4.57   1
  -4   8  -2    0.59    1.69   1
  -4   8  -1    5.90    2.19   1
  -4   8   0   28.09    2.54   1
  -4   8   1    9.42    2.09   1
  -4   8   2    3.61    1.60   1
  -4   8   3    0.20    1.31   1
  -4   8   4   27.88    2.53   1
  -4   8   5   38.56    3.35   1
  -4   8   6    0.30    1.41   1
  -4   8   7    0.90    1.80   1
  -4   8   8   20.61    2.18   1
  -4   8   9   60.53    4.82   1
  -4   8  10   67.57    4.27   1
  -4   8  11   39.06    3.00   1
  -4   8  12   40.96    3.07   1
  -4   9 -35    3.50    4.19   1
  -4   9 -34    8.29    5.18   1
  -4   9 -33   56.70    7.83   1
  -4   9 -32    6.81    4.59   1
  -4   9 -31    5.02    2.91   1
  -4   9 -30    1.69    3.80   1
  -4   9 -29    7.02    3.92   1
  -4   9 -28    0.90    2.70   1
  -4   9 -27    5.29    3.40   1
  -4   9 -26    1.99    3.30   1
  -4   9 -25    0.71    3.91   1
  -4   9 -24    5.38    2.88   1
  -4   9 -23    2.79    3.31   1
  -4   9 -22   27.35    3.97   1
  -4   9 -21  175.83   10.34   1
  -4   9 -20   51.55    4.88   1
  -4   9 -19    2.10    2.81   1
  -4   9 -18   24.90    3.99   1
  -4   9 -17    2.69    2.59   1
  -4   9 -16   -1.21    2.62   1
  -4   9 -15   -0.71    2.60   1
  -4   9 -14    1.00    2.30   1
  -4   9 -13    8.12    2.68   1
  -4   9 -12   37.82    3.81   1
  -4   9 -11   12.89    2.73   1
  -4   9 -10   17.64    3.02   1
  -4   9  -9   50.84    5.42   1
  -4   9  -8   47.61    4.42   1
  -4   9  -7    0.71    2.02   1
  -4   9  -6    3.50    2.09   1
  -4   9  -5    6.30    2.21   1
  -4   9  -4    2.40    2.01   1
  -4   9  -3  226.50    9.93   1
  -4   9  -2   11.83    2.41   1
  -4   9  -1    2.79    2.00   1
  -4   9   0    0.79    2.30   1
  -4   9   1    4.80    2.19   1
  -4   9   2    3.31    1.82   1
  -4   9   3  393.23   19.83   1
  -4   9   4    0.00    1.00   1
  -4   9   5    0.40    1.99   1
  -4  10 -33    3.88    5.48   1
  -4  10 -32    5.02    4.12   1
  -4  10 -31    0.79    4.49   1
  -4  10 -30    7.40    4.52   1
  -4  10 -29   -0.90    2.70   1
  -4  10 -28    4.71    4.30   1
  -4  10 -27   34.81    5.31   1
  -4  10 -26   15.37    3.92   1
  -4  10 -25    1.39    3.49   1
  -4  10 -24   13.03    4.62   1
  -4  10 -23    6.50    3.88   1
  -4  10 -22    8.12    2.79   1
  -4  10 -21    8.12    3.82   1
  -4  10 -20    4.71    3.39   1
  -4  10 -19    2.10    3.19   1
  -4  10 -18   -1.00    3.30   1
  -4  10 -17   22.66    4.09   1
  -4  10 -16    1.49    2.68   1
  -4  10 -15   53.58    5.27   1
  -4  10 -13    8.70    2.77   1
  -4  10 -12   22.66    4.00   1
  -4  10 -11   -0.59    2.48   1
  -4  10 -10    7.62    2.48   1
  -4  10  -9  106.92    6.62   1
  -4  10  -8    8.58    2.81   1
  -4  10  -7   -2.69    2.30   1
  -4  10  -6   30.69    3.77   1
  -4  10  -5    6.71    2.18   1
  -4  10  -4   14.52    2.97   1
  -4  10  -3   52.56    4.35   1
  -4  10  -2   -0.50    2.00   1
  -4  10  -1    7.90    2.02   1
  -4  11 -31   -1.49    3.59   1
  -4  11 -30   34.46    6.22   1
  -4  11 -29   -3.31    4.40   1
  -4  11 -28   -2.31    4.80   1
  -4  11 -27    4.71    4.69   1
  -4  11 -26   -4.28    4.68   1
  -4  11 -25    7.29    4.32   1
  -4  11 -24    3.80    4.21   1
  -4  11 -23   -0.71    4.02   1
  -4  11 -22    2.19    3.70   1
  -4  11 -21   16.16    4.50   1
  -4  11 -20   12.67    3.92   1
  -4  11 -19    4.71    3.52   1
  -4  11 -18   10.63    3.52   1
  -4  11 -17    2.19    3.49   1
  -4  11 -16   13.03    3.68   1
  -4  11 -15   37.21    4.51   1
  -4  11 -14   11.63    3.48   1
  -4  11 -13    2.59    3.09   1
  -4  11 -12    2.50    3.29   1
  -4  11 -11    5.62    3.22   1
  -4  11 -10    5.02    3.32   1
  -4  11  -9   25.40    3.53   1
  -4  11  -8   26.83    3.94   1
  -4  11  -7   -0.59    2.39   1
  -4  12 -27   -1.90    5.60   1
  -4  12 -26   -5.02    5.33   1
  -4  12 -25    4.41    4.79   1
  -4  12 -23   -2.19    4.29   1
  -4  12 -22    0.00    1.00   1
  -4  12 -21    1.80    3.48   1
  -4  12 -20   -1.39    3.99   1
  -4  12 -19    9.30    4.57   1
  -4  12 -18   -0.30    4.02   1
  -4  12 -17    3.61    3.61   1
  -4  12 -16   -1.90    3.70   1
  -4  12 -15    1.39    3.59   1
  -3 -14 -17   -2.89    5.41   1
  -3 -14 -16   -1.10    5.21   1
  -3 -14 -15   23.23    6.07   1
  -3 -14 -14   13.18    5.52   1
  -3 -14 -13    0.71    4.92   1
  -3 -14 -12   -5.11    4.70   1
  -3 -14 -11    5.20    4.88   1
  -3 -14 -10    2.59    3.90   1
  -3 -14  -9   42.90    6.68   1
  -3 -14  -8    9.99    5.31   1
  -3 -14  -7    2.31    2.80   1
  -3 -14  -6    2.10    4.90   1
  -3 -14  -5    2.50    4.71   1
  -3 -14  -4   12.18    5.72   1
  -3 -14  -3    0.59    4.28   1
  -3 -14  -2    6.81    3.60   1
  -3 -14  -1   -1.59    3.28   1
  -3 -14   0    1.59    4.69   1
  -3 -14   1    2.50    4.99   1
  -3 -14   2   -3.31    4.62   1
  -3 -14   3   12.60    5.47   1
  -3 -14   4    8.58    4.92   1
  -3 -14   5    2.89    4.69   1
  -3 -14   6    1.21    5.32   1
  -3 -14   7   -5.62    4.69   1
  -3 -14   8   -6.60    4.88   1
  -3 -14   9    5.52    5.22   1
  -3 -14  10    3.61    5.09   1
  -3 -14  11   11.70    5.61   1
  -3 -14  12   37.33    7.58   1
  -3 -14  13    1.99    3.78   1
  -3 -14  14    0.40    3.49   1
  -3 -14  15    4.80    4.60   1
  -3 -14  16    6.92    4.10   1
  -3 -14  17    2.31    6.81   1
  -3 -14  18   -5.71    5.78   1
  -3 -13 -24   30.69    5.98   1
  -3 -13 -23    2.59    4.99   1
  -3 -13 -22    0.90    3.31   1
  -3 -13 -21   11.42    5.00   1
  -3 -13 -20    2.40    5.11   1
  -3 -13 -19    2.59    5.18   1
  -3 -13 -18   27.46    5.34   1
  -3 -13 -17   13.62    4.80   1
  -3 -13 -16    3.10    4.89   1
  -3 -13 -15    4.71    4.69   1
  -3 -13 -14    5.20    4.38   1
  -3 -13 -13    0.90    2.91   1
  -3 -13 -12    5.38    4.69   1
  -3 -13 -11   -1.49    4.07   1
  -3 -13 -10    3.80    3.00   1
  -3 -13  -9   19.54    4.60   1
  -3 -13  -8    3.31    4.22   1
  -3 -13  -7   11.22    4.49   1
  -3 -13  -6    2.79    4.11   1
  -3 -13  -5   14.90    4.63   1
  -3 -13  -4   -3.80    3.78   1
  -3 -13  -3    3.20    3.90   1
  -3 -13  -2    9.00    4.98   1
  -3 -13  -1    2.89    4.18   1
  -3 -13   0    2.19    3.79   1
  -3 -13   1    0.71    4.12   1
  -3 -13   2    2.10    3.92   1
  -3 -13   3    9.92    4.28   1
  -3 -13   4    2.50    3.98   1
  -3 -13   5   -4.08    3.88   1
  -3 -13   6   52.85    6.83   1
  -3 -13   7   -2.50    3.00   1
  -3 -13   8   -0.40    3.59   1
  -3 -13   9    6.81    4.59   1
  -3 -13  10    4.88    4.51   1
  -3 -13  11    3.10    5.10   1
  -3 -13  12    4.20    4.51   1
  -3 -13  13    3.10    2.99   1
  -3 -13  14    3.69    4.61   1
  -3 -13  15   -1.90    4.91   1
  -3 -13  16    7.40    5.49   1
  -3 -13  17    1.39    4.98   1
  -3 -13  18   17.14    5.80   1
  -3 -13  19    1.30    3.19   1
  -3 -13  20    6.20    3.69   1
  -3 -13  21   -2.10    5.10   1
  -3 -13  22    8.53    5.78   1
  -3 -13  23   82.63    9.64   1
  -3 -13  24   23.33    6.47   1
  -3 -13  25    7.02    5.99   1
  -3 -12 -29    1.59    3.10   1
  -3 -12 -28    1.99    5.39   1
  -3 -12 -27    1.90    4.00   1
  -3 -12 -26   -0.59    3.28   1
  -3 -12 -24   16.73    6.14   1
  -3 -12 -23   -1.90    4.50   1
  -3 -12 -22    2.99    4.81   1
  -3 -12 -21   -0.30    2.82   1
  -3 -12 -20   -1.21    3.92   1
  -3 -12 -19    0.50    4.91   1
  -3 -12 -18   16.89    4.69   1
  -3 -12 -17    1.30    4.40   1
  -3 -12 -16    1.99    4.40   1
  -3 -12 -14    2.50    3.79   1
  -3 -12 -13    5.62    3.89   1
  -3 -12 -12   36.36    5.55   1
  -3 -12 -11    7.08    3.09   1
  -3 -12 -10   -0.59    2.68   1
  -3 -12  -9   10.18    3.51   1
  -3 -12  -8    6.92    3.42   1
  -3 -12  -7    3.80    3.59   1
  -3 -12  -6    5.52    3.52   1
  -3 -12  -5   -5.20    3.10   1
  -3 -12  -4    3.50    2.69   1
  -3 -12  -3   -1.49    3.29   1
  -3 -12  -2    1.69    3.09   1
  -3 -12  -1    4.49    3.31   1
  -3 -12   0   47.33    5.64   1
  -3 -12   1    4.08    3.47   1
  -3 -12   2   -1.80    3.40   1
  -3 -12   3    1.49    3.29   1
  -3 -12   4    2.69    3.38   1
  -3 -12   5   -1.49    2.88   1
  -3 -12   6   22.37    3.97   1
  -3 -12   7   17.72    4.21   1
  -3 -12   8    6.40    3.90   1
  -3 -12   9    0.40    3.49   1
  -3 -12  10   23.81    4.88   1
  -3 -12  11   -0.30    3.41   1
  -3 -12  12   34.81    6.14   1
  -3 -12  13    2.69    3.61   1
  -3 -12  14    1.80    3.81   1
  -3 -12  15    9.49    3.82   1
  -3 -12  16    4.41    3.99   1
  -3 -12  17    0.30    3.72   1
  -3 -12  18   11.49    4.41   1
  -3 -12  19    1.39    2.60   1
  -3 -12  20    0.20    4.12   1
  -3 -12  21   11.42    4.60   1
  -3 -12  22   28.30    5.96   1
  -3 -12  23   -1.21    2.90   1
  -3 -12  24   68.06    8.41   1
  -3 -12  25   14.98    5.26   1
  -3 -12  26   -4.49    4.71   1
  -3 -12  27    7.29    5.62   1
  -3 -12  28   14.52    6.02   1
  -3 -12  29   11.83    6.60   1
  -3 -12  30   10.63    6.39   1
  -3 -11 -33    4.80    5.30   1
  -3 -11 -32   10.89    5.68   1
  -3 -11 -31   -2.99    5.19   1
  -3 -11 -30    2.19    4.50   1
  -3 -11 -29    0.59    4.57   1
  -3 -11 -28    3.61    4.52   1
  -3 -11 -27   24.90    4.89   1
  -3 -11 -26    0.30    3.82   1
  -3 -11 -25    4.88    4.38   1
  -3 -11 -24   29.05    4.96   1
  -3 -11 -23    0.90    2.91   1
  -3 -11 -22    4.49    3.60   1
  -3 -11 -21   16.97    4.70   1
  -3 -11 -20   -1.80    3.70   1
  -3 -11 -19   11.83    3.99   1
  -3 -11 -18   -3.69    3.61   1
  -3 -11 -17    2.40    3.50   1
  -3 -11 -16   12.32    3.72   1
  -3 -11 -15   -1.90    3.01   1
  -3 -11 -14    8.01    3.11   1
  -3 -11 -13   -3.61    1.79   1
  -3 -11 -12   75.17    6.94   1
  -3 -11 -11    4.49    3.18   1
  -3 -11 -10   11.09    3.60   1
  -3 -11  -9   25.60    4.25   1
  -3 -11  -8   20.52    3.08   1
  -3 -11  -7   -0.79    3.08   1
  -3 -11  -6   50.13    5.38   1
  -3 -11  -5   -1.80    2.71   1
  -3 -11  -4    6.60    2.88   1
  -3 -11  -3   -0.79    2.88   1
  -3 -11  -2   -2.99    2.91   1
  -3 -11  -1    3.20    3.11   1
  -3 -11   0  101.61    7.46   1
  -3 -11   1    5.02    2.91   1
  -3 -11   2    2.99    1.80   1
  -3 -11   3   71.06    6.24   1
  -3 -11   4   -2.89    2.11   1
  -3 -11   5   -2.31    3.10   1
  -3 -11   6   -0.30    1.90   1
  -3 -11   7    5.11    3.30   1
  -3 -11   8   -0.79    1.89   1
  -3 -11   9   22.00    4.13   1
  -3 -11  10    2.69    2.30   1
  -3 -11  11   -0.59    3.08   1
  -3 -11  12    1.30    3.40   1
  -3 -11  13   -4.80    3.29   1
  -3 -11  14    0.30    3.31   1
  -3 -11  15    4.71    3.30   1
  -3 -11  16   26.32    4.51   1
  -3 -11  17   55.65    5.67   1
  -3 -11  18  161.54   10.42   1
  -3 -11  19   38.94    7.49   1
  -3 -11  20    6.30    4.02   1
  -3 -11  21   11.02    4.98   1
  -3 -11  22    3.61    4.10   1
  -3 -11  23   -2.10    2.90   1
  -3 -11  24   13.99    4.86   1
  -3 -11  25   -2.40    4.00   1
  -3 -11  26    6.40    4.60   1
  -3 -11  27   -0.20    4.12   1
  -3 -11  28   -0.20    3.62   1
  -3 -11  29    5.52    4.79   1
  -3 -11  30    4.58    4.88   1
  -3 -11  31    4.58    5.18   1
  -3 -11  32   -1.49    5.27   1
  -3 -11  33    0.50    6.53   1
  -3 -11  34   15.29    6.88   1
  -3 -10 -36   -1.90    4.69   1
  -3 -10 -35   -1.39    4.48   1
  -3 -10 -34    6.20    4.48   1
  -3 -10 -33   41.47    6.57   1
  -3 -10 -32    0.59    4.17   1
  -3 -10 -31    9.49    4.99   1
  -3 -10 -30   31.02    5.24   1
  -3 -10 -29    2.31    2.49   1
  -3 -10 -28    5.81    2.99   1
  -3 -10 -27    1.49    3.78   1
  -3 -10 -26    9.42    3.93   1
  -3 -10 -25   21.44    4.26   1
  -3 -10 -24    9.42    3.68   1
  -3 -10 -23   20.70    4.46   1
  -3 -10 -22    1.00    3.10   1
  -3 -10 -21   61.15    5.16   1
  -3 -10 -20    1.49    2.98   1
  -3 -10 -19    6.40    2.58   1
  -3 -10 -18   11.90    3.59   1
  -3 -10 -15    5.29    2.81   1
  -3 -10 -14    7.08    3.19   1
  -3 -10 -13    4.80    2.80   1
  -3 -10 -12   25.40    3.73   1
  -3 -10 -11   -0.10    2.53   1
  -3 -10 -10    9.99    3.22   1
  -3 -10  -9   30.47    3.64   1
  -3 -10  -8    1.59    1.99   1
  -3 -10  -7   15.37    3.21   1
  -3 -10  -6   12.53    3.19   1
  -3 -10  -5    0.30    2.51   1
  -3 -10  -4    1.21    2.42   1
  -3 -10  -3   39.19    4.76   1
  -3 -10  -2   10.82    2.90   1
  -3 -10  -1    8.82    2.79   1
  -3 -10   0   45.16    3.36   1
  -3 -10   1    3.69    2.61   1
  -3 -10   2   36.72    4.36   1
  -3 -10   3   54.02    4.70   1
  -3 -10   4    9.80    2.88   1
  -3 -10   5    2.19    2.40   1
  -3 -10   6    0.59    1.89   1
  -3 -10   7    6.20    2.39   1
  -3 -10   8    1.59    2.39   1
  -3 -10   9   17.22    3.40   1
  -3 -10  10   17.39    3.92   1
  -3 -10  11    6.50    3.21   1
  -3 -10  12    1.00    2.90   1
  -3 -10  13    1.10    3.11   1
  -3 -10  14    2.40    2.91   1
  -3 -10  15   80.82    5.39   1
  -3 -10  16    4.08    3.27   1
  -3 -10  17   12.53    3.19   1
  -3 -10  18   28.20    4.35   1
  -3 -10  19    0.20    2.31   1
  -3 -10  20    4.88    3.40   1
  -3 -10  21   18.40    3.43   1
  -3 -10  22    7.02    3.92   1
  -3 -10  23    1.80    3.70   1
  -3 -10  24   29.92    4.05   1
  -3 -10  25   29.38    4.99   1
  -3 -10  26    4.80    4.20   1
  -3 -10  27    4.41    4.20   1
  -3 -10  28   19.36    3.78   1
  -3 -10  29    0.71    3.91   1
  -3 -10  30   34.46    6.34   1
  -3 -10  31   -7.08    4.89   1
  -3 -10  32    6.81    4.70   1
  -3 -10  33    0.10    5.36   1
  -3 -10  34    6.81    5.48   1
  -3 -10  35   -3.31    5.31   1
  -3 -10  36    4.71    5.12   1
  -3 -10  37    3.39    5.30   1
  -3  -9 -39    9.67    5.47   1
  -3  -9 -38   -5.29    4.42   1
  -3  -9 -37   -1.39    4.79   1
  -3  -9 -36    1.00    4.30   1
  -3  -9 -35    1.10    4.51   1
  -3  -9 -34    4.41    3.91   1
  -3  -9 -33   81.18    9.01   1
  -3  -9 -32   16.32    4.93   1
  -3  -9 -31    3.10    3.48   1
  -3  -9 -30    6.10    4.69   1
  -3  -9 -29    4.28    3.39   1
  -3  -9 -28   14.52    3.73   1
  -3  -9 -27   59.75    6.34   1
  -3  -9 -26   11.02    4.12   1
  -3  -9 -25    1.21    3.72   1
  -3  -9 -24    4.71    2.99   1
  -3  -9 -23    9.18    3.21   1
  -3  -9 -22   23.52    3.88   1
  -3  -9 -21   30.25    4.40   1
  -3  -9 -20   20.70    3.73   1
  -3  -9 -19   18.58    3.53   1
  -3  -9 -18    6.20    2.09   1
  -3  -9 -17   12.89    2.87   1
  -3  -9 -16   37.33    4.64   1
  -3  -9 -15    3.20    2.61   1
  -3  -9 -14   37.09    4.02   1
  -3  -9 -13    0.10    1.72   1
  -3  -9 -12   49.14    4.77   1
  -3  -9 -11    2.31    2.49   1
  -3  -9 -10   29.05    3.45   1
  -3  -9  -9  358.34   18.17   1
  -3  -9  -8   60.06    6.04   1
  -3  -9  -7    5.71    2.20   1
  -3  -9  -6   27.88    3.38   1
  -3  -9  -5    6.71    2.18   1
  -3  -9  -4   31.25    3.47   1
  -3  -9  -3   68.89    4.81   1
  -3  -9  -2   54.02    4.26   1
  -3  -9  -1    0.20    1.61   1
  -3  -9   0   90.44    5.90   1
  -3  -9   1    1.49    2.20   1
  -3  -9   2    1.80    2.20   1
  -3  -9   3  115.78    7.96   1
  -3  -9   4    6.20    2.39   1
  -3  -9   5   -1.21    1.80   1
  -3  -9   6    6.40    2.28   1
  -3  -9   7    5.62    2.42   1
  -3  -9   8    1.21    2.20   1
  -3  -9   9   80.82    5.03   1
  -3  -9  10   14.06    3.23   1
  -3  -9  11   -1.30    2.39   1
  -3  -9  12   14.36    2.50   1
  -3  -9  13    3.69    2.69   1
  -3  -9  14   33.64    4.06   1
  -3  -9  15   11.63    3.14   1
  -3  -9  16   -1.80    1.90   1
  -3  -9  17    2.10    2.70   1
  -3  -9  18   13.91    3.43   1
  -3  -9  19   -0.20    1.81   1
  -3  -9  20    2.59    2.90   1
  -3  -9  21   31.14    3.91   1
  -3  -9  22    1.21    3.10   1
  -3  -9  23    3.50    2.09   1
  -3  -9  24   56.85    6.03   1
  -3  -9  25    9.00    3.42   1
  -3  -9  26    8.70    3.60   1
  -3  -9  27   93.32    7.15   1
  -3  -9  28    7.29    3.78   1
  -3  -9  29   11.29    4.17   1
  -3  -9  30    6.71    3.21   1
  -3  -9  31    5.29    4.69   1
  -3  -9  32    7.51    4.00   1
  -3  -9  33   62.73    7.44   1
  -3  -9  34    6.40    5.21   1
  -3  -9  35   -6.20    4.48   1
  -3  -9  36   -3.10    4.40   1
  -3  -9  37   14.52    6.10   1
  -3  -9  38    1.21    5.63   1
  -3  -9  39   -1.21    5.32   1
  -3  -9  40   12.18    6.28   1
  -3  -8 -41   10.89    4.88   1
  -3  -8 -40    6.40    4.91   1
  -3  -8 -39   68.56    7.12   1
  -3  -8 -38   11.49    4.88   1
  -3  -8 -37    1.90    4.00   1
  -3  -8 -36   -2.79    3.61   1
  -3  -8 -35    0.00    1.00   1
  -3  -8 -34   33.64    5.68   1
  -3  -8 -33   85.01    6.64   1
  -3  -8 -32   13.99    3.07   1
  -3  -8 -31   -4.28    3.68   1
  -3  -8 -30   55.80    6.42   1
  -3  -8 -29    5.90    2.92   1
  -3  -8 -28   -0.10    3.44   1
  -3  -8 -27   16.56    3.83   1
  -3  -8 -26    2.89    2.99   1
  -3  -8 -25   -2.50    2.81   1
  -3  -8 -24   38.56    4.72   1
  -3  -8 -23    8.53    2.92   1
  -3  -8 -22    2.69    2.59   1
  -3  -8 -21    2.19    2.69   1
  -3  -8 -20    5.62    2.09   1
  -3  -8 -19   11.29    2.89   1
  -3  -8 -18   50.84    4.85   1
  -3  -8 -17   58.22    4.58   1
  -3  -8 -16   14.36    3.11   1
  -3  -8 -15  466.56   22.90   1
  -3  -8 -14   30.47    4.31   1
  -3  -8 -13   43.16    4.07   1
  -3  -8 -12    6.81    1.88   1
  -3  -8 -11    9.61    2.23   1
  -3  -8 -10    1.30    2.10   1
  -3  -8  -9   60.68    4.83   1
  -3  -8  -8   11.83    2.41   1
  -3  -8  -7    6.50    2.29   1
  -3  -8  -6   10.50    2.53   1
  -3  -8  -5   20.16    3.32   1
  -3  -8  -4   40.58    3.82   1
  -3  -8  -3  414.94   18.33   1
  -3  -8  -2   73.96    4.30   1
  -3  -8  -1    1.21    1.50   1
  -3  -8   0    5.38    2.41   1
  -3  -8   1   42.25    3.90   1
  -3  -8   2   10.18    2.49   1
  -3  -8   3  302.41   17.04   1
  -3  -8   4    9.61    2.48   1
  -3  -8   5    0.40    1.69   1
  -3  -8   6   64.32    4.33   1
  -3  -8   7    3.88    1.62   1
  -3  -8   8   22.75    2.86   1
  -3  -8   9   19.10    2.62   1
  -3  -8  10   11.70    2.39   1
  -3  -8  11    4.88    2.30   1
  -3  -8  12   24.50    2.47   1
  -3  -8  13   14.52    3.12   1
  -3  -8  14    9.49    3.88   1
  -3  -8  15   21.07    3.21   1
  -3  -8  16    3.69    2.61   1
  -3  -8  17   12.39    2.82   1
  -3  -8  18   14.98    2.63   1
  -3  -8  19    3.39    2.69   1
  -3  -8  20   49.14    4.49   1
  -3  -8  21  340.40   16.60   1
  -3  -8  22    6.92    2.89   1
  -3  -8  23    1.80    2.79   1
  -3  -8  24   11.90    3.73   1
  -3  -8  25   25.50    3.43   1
  -3  -8  26    1.99    3.10   1
  -3  -8  27   -0.20    3.22   1
  -3  -8  28    0.90    2.11   1
  -3  -8  29    4.80    3.68   1
  -3  -8  30   12.89    4.09   1
  -3  -8  31   10.89    4.69   1
  -3  -8  32   -1.90    3.62   1
  -3  -8  33    0.71    2.81   1
  -3  -8  34    8.88    3.81   1
  -3  -8  35    0.50    2.71   1
  -3  -8  36    1.21    3.32   1
  -3  -8  37    8.41    4.00   1
  -3  -8  38   -1.00    3.30   1
  -3  -8  39   -1.39    4.70   1
  -3  -8  40    4.71    4.60   1
  -3  -8  41    5.20    5.52   1
  -3  -8  42    3.20    6.30   1
  -3  -7 -43    0.50    4.42   1
  -3  -7 -42   51.84    7.34   1
  -3  -7 -41    0.20    4.63   1
  -3  -7 -40    3.61    4.22   1
  -3  -7 -39    7.90    5.00   1
  -3  -7 -38    2.31    4.01   1
  -3  -7 -37    0.59    3.97   1
  -3  -7 -36  117.07    8.66   1
  -3  -7 -35   63.52    6.54   1
  -3  -7 -34    1.49    3.20   1
  -3  -7 -33    9.30    4.33   1
  -3  -7 -32   -1.99    3.30   1
  -3  -7 -31   -1.59    3.10   1
  -3  -7 -30    4.41    3.02   1
  -3  -7 -29   10.63    3.39   1
  -3  -7 -28   -1.69    2.70   1
  -3  -7 -27   71.06    5.06   1
  -3  -7 -26    2.89    2.58   1
  -3  -7 -25    5.38    2.18   1
  -3  -7 -24    3.31    2.80   1
  -3  -7 -23    4.49    2.59   1
  -3  -7 -22    1.99    2.20   1
  -3  -7 -21    2.69    1.61   1
  -3  -7 -20   -2.19    2.31   1
  -3  -7 -19   18.92    2.61   1
  -3  -7 -16    0.10    1.32   1
  -3  -7 -15    8.41    2.32   1
  -3  -7 -14    0.90    1.90   1
  -3  -7 -13    1.80    1.90   1
  -3  -7 -12    2.31    2.10   1
  -3  -7 -11   33.64    3.25   1
  -3  -7 -10   50.69    3.99   1
  -3  -7  -9  333.06   17.89   1
  -3  -7  -8   12.39    1.97   1
  -3  -7  -7    2.89    2.01   1
  -3  -7  -6   79.92    4.29   1
  -3  -7  -4   46.38    3.40   1
  -3  -7  -2   86.49    5.02   1
  -3  -7  -1   -2.19    1.51   1
  -3  -7   0  309.41   14.78   1
  -3  -7   1   10.69    2.09   1
  -3  -7   2   10.37    2.38   1
  -3  -7   3   35.64    3.34   1
  -3  -7   4    8.29    2.02   1
  -3  -7   5    2.40    1.89   1
  -3  -7   6  140.42    9.95   1
  -3  -7   7   12.67    2.42   1
  -3  -7   8   13.10    2.53   1
  -3  -7   9  242.42   11.21   1
  -3  -7  10    2.31    1.92   1
  -3  -7  11   -1.10    1.09   1
  -3  -7  12   35.16    3.56   1
  -3  -7  13    4.41    2.31   1
  -3  -7  14    5.81    2.60   1
  -3  -7  15   33.06    3.45   1
  -3  -7  16   38.19    3.96   1
  -3  -7  17   10.82    2.70   1
  -3  -7  18    6.20    2.29   1
  -3  -7  19   10.63    2.80   1
  -3  -7  20   21.44    3.52   1
  -3  -7  21   32.83    3.44   1
  -3  -7  22   10.50    2.92   1
  -3  -7  23   41.22    3.85   1
  -3  -7  24  187.69   11.78   1
  -3  -7  25   13.03    3.32   1
  -3  -7  26    1.99    2.59   1
  -3  -7  27    1.49    2.00   1
  -3  -7  28   -1.80    3.19   1
  -3  -7  29   20.70    3.91   1
  -3  -7  30    1.30    3.10   1
  -3  -7  31    1.10    3.51   1
  -3  -7  32    1.80    2.79   1
  -3  -7  33   12.53    3.40   1
  -3  -7  34    4.71    2.39   1
  -3  -7  36  107.33   10.15   1
  -3  -7  37    2.31    3.10   1
  -3  -7  38   -3.61    2.89   1
  -3  -7  39    7.18    4.50   1
  -3  -7  40    3.39    5.00   1
  -3  -7  41   -0.79    4.68   1
  -3  -7  42   -4.49    5.09   1
  -3  -7  43   11.09    4.53   1
  -3  -7  44   12.18    5.30   1
  -3  -6 -44   17.47    5.18   1
  -3  -6 -43    5.52    4.70   1
  -3  -6 -42   36.24    5.90   1
  -3  -6 -41   18.40    5.32   1
  -3  -6 -40    3.88    4.49   1
  -3  -6 -39    1.90    2.59   1
  -3  -6 -38    0.10    3.74   1
  -3  -6 -37    0.59    3.57   1
  -3  -6 -36   63.04    6.03   1
  -3  -6 -35   46.65    5.60   1
  -3  -6 -34   -2.59    3.19   1
  -3  -6 -33   11.70    3.49   1
  -3  -6 -32    2.69    3.08   1
  -3  -6 -31   21.72    3.91   1
  -3  -6 -30   97.22    6.90   1
  -3  -6 -29   28.20    3.82   1
  -3  -6 -28   29.05    4.10   1
  -3  -6 -27   -1.80    2.30   1
  -3  -6 -26    0.40    2.19   1
  -3  -6 -25    7.18    1.98   1
  -3  -6 -24   92.35    6.34   1
  -3  -6 -23    1.69    1.90   1
  -3  -6 -22    0.20    1.91   1
  -3  -6 -21    6.81    2.19   1
  -3  -6 -20   27.04    3.64   1
  -3  -6 -19    3.39    2.28   1
  -3  -6 -18  145.20    8.92   1
  -3  -6 -17    2.69    1.80   1
  -3  -6 -16    1.90    1.79   1
  -3  -6 -15  100.20    6.21   1
  -3  -6 -14   20.07    2.78   1
  -3  -6 -13    0.59    1.69   1
  -3  -6 -11   15.92    2.23   1
  -3  -6 -10    5.52    1.50   1
  -3  -6  -9   31.36    2.69   1
  -3  -6  -8   36.84    2.79   1
  -3  -6  -7   40.96    2.94   1
  -3  -6  -6  483.12   22.86   1
  -3  -6  -5    0.30    1.41   1
  -3  -6  -4   78.50    4.43   1
  -3  -6  -3   72.59    4.60   1
  -3  -6  -2  214.62    9.96   1
  -3  -6  -1   31.36    2.69   1
  -3  -6   0   45.97    3.66   1
  -3  -6   1    0.30    1.00   1
  -3  -6   2    1.59    1.29   1
  -3  -6   3  229.22   11.20   1
  -3  -6   4    0.10    1.41   1
  -3  -6   5    2.50    1.49   1
  -3  -6   6   89.30    6.05   1
  -3  -6   7    1.49    1.68   1
  -3  -6   8   20.61    2.63   1
  -3  -6   9  107.95    6.23   1
  -3  -6  10   13.47    2.13   1
  -3  -6  11   30.69    3.10   1
  -3  -6  12   61.15    4.54   1
  -3  -6  13   92.93    5.21   1
  -3  -6  14    6.92    2.00   1
  -3  -6  15   31.14    3.35   1
  -3  -6  16    7.90    2.08   1
  -3  -6  17    1.99    1.69   1
  -3  -6  18  255.04   14.05   1
  -3  -6  19   12.18    2.51   1
  -3  -6  20    4.00    2.08   1
  -3  -6  21   79.21    4.98   1
  -3  -6  22   41.73    3.62   1
  -3  -6  23    1.59    2.29   1
  -3  -6  24  242.74   12.46   1
  -3  -6  25  131.10    7.33   1
  -3  -6  26   13.18    2.61   1
  -3  -6  27    7.40    1.90   1
  -3  -6  28    3.20    2.68   1
  -3  -6  29    8.41    3.07   1
  -3  -6  30  124.55    8.70   1
  -3  -6  31   13.32    3.72   1
  -3  -6  32   16.97    2.64   1
  -3  -6  33   39.44    4.14   1
  -3  -6  34   47.33    4.95   1
  -3  -6  35   15.52    3.47   1
  -3  -6  36   46.92    6.44   1
  -3  -6  37   11.90    4.21   1
  -3  -6  38    1.80    3.89   1
  -3  -6  39    2.99    4.19   1
  -3  -6  40   11.09    4.53   1
  -3  -6  41    2.89    3.60   1
  -3  -6  42    6.00    5.10   1
  -3  -6  43   -1.99    5.08   1
  -3  -5 -46    9.42    4.61   1
  -3  -5 -45   46.92    7.26   1
  -3  -5 -44    5.81    4.39   1
  -3  -5 -43    6.60    4.32   1
  -3  -5 -42  149.33   10.75   1
  -3  -5 -41   15.92    4.23   1
  -3  -5 -40    6.50    3.62   1
  -3  -5 -39    3.50    3.29   1
  -3  -5 -38    1.00    3.50   1
  -3  -5 -37    8.82    3.92   1
  -3  -5 -36   94.28    6.99   1
  -3  -5 -35    3.20    2.68   1
  -3  -5 -34    2.69    2.89   1
  -3  -5 -33   63.36    5.41   1
  -3  -5 -32   13.69    3.18   1
  -3  -5 -31    5.38    2.51   1
  -3  -5 -30  152.77    7.91   1
  -3  -5 -29   11.83    2.13   1
  -3  -5 -28    5.11    2.62   1
  -3  -5 -27   78.85    6.93   1
  -3  -5 -26   22.28    2.74   1
  -3  -5 -25    5.81    2.31   1
  -3  -5 -24   30.91    2.78   1
  -3  -5 -23   -1.30    1.89   1
  -3  -5 -22   -1.59    1.08   1
  -3  -5 -22   -1.21    1.61   1
  -3  -5 -21   22.94    1.82   1
  -3  -5 -21   23.52    3.01   1
  -3  -5 -20   -1.30    1.21   1
  -3  -5 -20   -0.40    0.89   1
  -3  -5 -19    0.30    0.90   1
  -3  -5 -19   -0.40    1.20   1
  -3  -5 -18   40.45    2.54   1
  -3  -5 -18   30.69    2.77   1
  -3  -5 -17    9.99    2.09   1
  -3  -5 -17    7.78    1.12   1
  -3  -5 -16   20.88    1.74   1
  -3  -5 -16   23.04    2.30   1
  -3  -5 -15    5.11    1.72   1
  -3  -5 -15    4.00    0.88   1
  -3  -5 -14    2.31    0.70   1
  -3  -5 -14    0.20    1.31   1
  -3  -5 -13    8.53    0.99   1
  -3  -5 -13    3.80    1.60   1
  -3  -5 -12  209.96    8.11   1
  -3  -5 -12  157.50    9.54   1
  -3  -5 -11   27.56    1.78   1
  -3  -5 -11   24.01    2.55   1
  -3  -5 -10   35.64    3.10   1
  -3  -5 -10   54.91    2.67   1
  -3  -5  -9  194.60   11.72   1
  -3  -5  -8  131.56    7.11   1
  -3  -5  -7    7.40    1.52   1
  -3  -5  -6  137.59    8.21   1
  -3  -5  -3  577.44   24.03   1
  -3  -5  -2  251.86   11.11   1
  -3  -5  -1   22.28    2.17   1
  -3  -5   0  231.34   10.65   1
  -3  -5   1   32.95    2.76   1
  -3  -5   2    2.69    1.41   1
  -3  -5   3  188.79   10.17   1
  -3  -5   4   26.21    2.46   1
  -3  -5   5   41.34    2.83   1
  -3  -5   6  137.59    6.80   1
  -3  -5   7   83.72    4.76   1
  -3  -5   8   12.89    1.87   1
  -3  -5   9    0.50    1.11   1
  -3  -5  10   54.91    3.85   1
  -3  -5  11   30.36    2.53   1
  -3  -5  12    5.02    1.79   1
  -3  -5  13   17.14    2.32   1
  -3  -5  14   10.63    2.09   1
  -3  -5  15  208.51   10.40   1
  -3  -5  16    7.78    2.12   1
  -3  -5  17   13.47    1.91   1
  -3  -5  18  109.83    6.71   1
  -3  -5  19   23.04    2.30   1
  -3  -5  20   11.63    2.32   1
  -3  -5  21    2.99    2.01   1
  -3  -5  22   19.27    2.81   1
  -3  -5  23    2.50    2.21   1
  -3  -5  24   77.44    4.75   1
  -3  -5  25   10.82    2.83   1
  -3  -5  26    9.00    2.70   1
  -3  -5  27   80.82    4.67   1
  -3  -5  28   92.35    5.96   1
  -3  -5  29    4.00    2.48   1
  -3  -5  30    8.88    2.50   1
  -3  -5  31   -0.30    2.71   1
  -3  -5  32    7.67    3.21   1
  -3  -5  33  124.10    8.69   1
  -3  -5  34   76.21    5.94   1
  -3  -5  35    2.40    3.41   1
  -3  -5  36   39.69    5.29   1
  -3  -5  37    9.12    3.62   1
  -3  -5  38    8.88    4.29   1
  -3  -5  39   12.39    3.80   1
  -3  -5  40   43.56    5.94   1
  -3  -5  41    4.49    3.10   1
  -3  -5  42   13.99    5.09   1
  -3  -5  43    0.40    4.59   1
  -3  -5  44   -0.50    3.21   1
  -3  -5  45   -0.59    4.47   1
  -3  -4 -47   -3.61    4.71   1
  -3  -4 -46   -2.79    4.58   1
  -3  -4 -45    6.71    4.71   1
  -3  -4 -44    2.99    4.60   1
  -3  -4 -43   11.83    4.61   1
  -3  -4 -42   -1.00    3.70   1
  -3  -4 -41    2.99    3.39   1
  -3  -4 -40   -2.19    3.58   1
  -3  -4 -39  289.34   16.67   1
  -3  -4 -38   13.99    3.96   1
  -3  -4 -37    3.50    3.22   1
  -3  -4 -36    0.40    2.09   1
  -3  -4 -35   34.46    4.58   1
  -3  -4 -34    1.21    2.42   1
  -3  -4 -33   24.80    3.59   1
  -3  -4 -32   -0.79    2.39   1
  -3  -4 -31   14.67    2.91   1
  -3  -4 -30  126.79    9.01   1
  -3  -4 -29   10.63    1.83   1
  -3  -4 -29   10.11    2.99   1
  -3  -4 -28   -1.21    2.20   1
  -3  -4 -28   -2.10    1.51   1
  -3  -4 -27    2.99    1.38   1
  -3  -4 -27    5.52    2.02   1
  -3  -4 -26   12.60    2.63   1
  -3  -4 -26   14.82    2.39   1
  -3  -4 -25    8.58    1.99   1
  -3  -4 -25    6.20    1.99   1
  -3  -4 -24   89.11    4.72   1
  -3  -4 -24   67.57    4.60   1
  -3  -4 -23   11.90    1.93   1
  -3  -4 -23    6.00    1.81   1
  -3  -4 -22    2.10    1.71   1
  -3  -4 -22    1.21    1.10   1
  -3  -4 -21    4.80    1.40   1
  -3  -4 -21    2.89    1.19   1
  -3  -4 -20    0.90    1.41   1
  -3  -4 -20    1.49    1.10   1
  -3  -4 -19   19.01    1.74   1
  -3  -4 -19   17.22    2.08   1
  -3  -4 -18   -0.30    0.80   1
  -3  -4 -18   -0.20    1.31   1
  -3  -4 -17    5.38    1.11   1
  -3  -4 -17    4.20    1.52   1
  -3  -4 -16   12.82    1.29   1
  -3  -4 -16   11.22    1.81   1
  -3  -4 -15    7.90    1.18   1
  -3  -4 -15    7.40    1.58   1
  -3  -4 -14    1.99    1.38   1
  -3  -4 -14    0.10    0.91   1
  -3  -4 -13    7.51    1.10   1
  -3  -4 -13    6.71    1.50   1
  -3  -4 -12   45.43    3.37   1
  -3  -4 -11   14.06    1.57   1
  -3  -4 -11   23.91    1.66   1
  -3  -4 -10   80.64    4.49   1
  -3  -4 -10  113.00    5.10   1
  -3  -4  -9  131.10    7.10   1
  -3  -4  -9  168.48    7.53   1
  -3  -4  -8   39.44    2.51   1
  -3  -4  -7    5.62    0.90   1
  -3  -4  -7    3.20    1.11   1
  -3  -4  -6   17.14    1.41   1
  -3  -4  -6   13.40    1.39   1
  -3  -4  -5   39.31    2.51   1
  -3  -4  -4   29.59    2.39   1
  -3  -4  -3  310.82   13.75   1
  -3  -4  -2  103.84    5.71   1
  -3  -4  -1    1.39    0.99   1
  -3  -4   0  405.62   18.13   1
  -3  -4   1   12.18    1.47   1
  -3  -4   2    0.30    1.00   1
  -3  -4   3  787.92   30.88   1
  -3  -4   4    4.28    1.28   1
  -3  -4   5    5.11    1.22   1
  -3  -4   6  245.55   10.97   1
  -3  -4   7   32.15    2.49   1
  -3  -4   8    1.59    1.08   1
  -3  -4   9  123.43    6.22   1
  -3  -4  10   80.28    4.12   1
  -3  -4  11    7.67    1.38   1
  -3  -4  12  273.90   12.25   1
  -3  -4  13    0.59    1.29   1
  -3  -4  14   -0.30    1.21   1
  -3  -4  15   58.68    3.37   1
  -3  -4  16   -0.30    0.90   1
  -3  -4  17    0.00    1.00   1
  -3  -4  18   25.60    2.93   1
  -3  -4  19    5.62    1.42   1
  -3  -4  20   13.99    2.09   1
  -3  -4  21  522.58   23.32   1
  -3  -4  22    0.30    1.80   1
  -3  -4  23    2.99    2.11   1
  -3  -4  24    2.31    2.22   1
  -3  -4  25    0.40    1.50   1
  -3  -4  26   14.90    2.70   1
  -3  -4  27   87.42    5.05   1
  -3  -4  28   30.91    4.11   1
  -3  -4  29   11.09    3.33   1
  -3  -4  30  373.65   16.24   1
  -3  -4  31   41.73    4.01   1
  -3  -4  32   47.61    5.24   1
  -3  -4  32   49.70    6.06   1
  -3  -4  33    0.71    1.92   1
  -3  -4  33   -0.50    2.91   1
  -3  -4  34    0.20    2.72   1
  -3  -4  34   -1.30    2.69   1
  -3  -4  35    9.92    3.09   1
  -3  -4  35    6.00    2.40   1
  -3  -4  36   36.36    4.94   1
  -3  -4  36   31.02    4.79   1
  -3  -4  37    2.10    2.20   1
  -3  -4  37   -2.79    3.11   1
  -3  -4  38    2.89    3.50   1
  -3  -4  38    4.08    3.47   1
  -3  -4  39  118.37    8.70   1
  -3  -4  40   45.97    5.42   1
  -3  -4  40   42.12    5.71   1
  -3  -4  41    5.11    3.89   1
  -3  -4  41    2.40    3.69   1
  -3  -4  42   20.52    4.62   1
  -3  -4  42   19.18    4.29   1
  -3  -4  43   -5.20    3.78   1
  -3  -4  43    6.92    4.31   1
  -3  -4  44   10.89    5.02   1
  -3  -4  45    5.20    4.01   1
  -3  -4  46   44.36    6.53   1
  -3  -4  47  -13.62    6.13   1
  -3  -4  48   35.05    6.51   1
  -3  -3 -48   15.68    5.07   1
  -3  -3 -47    1.59    4.49   1
  -3  -3 -46    1.90    4.61   1
  -3  -3 -45   60.68    6.86   1
  -3  -3 -44    7.78    2.79   1
  -3  -3 -41   20.98    4.21   1
  -3  -3 -40   -5.11    3.12   1
  -3  -3 -39   -0.20    2.72   1
  -3  -3 -38    7.02    3.29   1
  -3  -3 -37   30.36    4.30   1
  -3  -3 -36   15.13    3.50   1
  -3  -3 -35    0.00    1.00   1
  -3  -3 -34    1.30    2.69   1
  -3  -3 -34   -0.59    2.19   1
  -3  -3 -33  128.82    7.04   1
  -3  -3 -33  135.49    7.92   1
  -3  -3 -32    2.59    2.09   1
  -3  -3 -31   12.11    2.78   1
  -3  -3 -30    8.12    2.39   1
  -3  -3 -30   12.39    2.39   1
  -3  -3 -29   -1.10    1.60   1
  -3  -3 -29    1.00    1.70   1
  -3  -3 -28    3.50    1.80   1
  -3  -3 -28    1.30    2.19   1
  -3  -3 -27   19.18    3.07   1
  -3  -3 -27   25.81    3.15   1
  -3  -3 -26    6.40    2.28   1
  -3  -3 -26    6.92    2.21   1
  -3  -3 -25    5.02    1.79   1
  -3  -3 -25    2.59    1.61   1
  -3  -3 -24    1.00    1.50   1
  -3  -3 -24   -0.59    1.29   1
  -3  -3 -23    0.71    1.61   1
  -3  -3 -23    3.10    1.30   1
  -3  -3 -22    3.50    1.50   1
  -3  -3 -22    2.50    1.80   1
  -3  -3 -21   38.44    3.47   1
  -3  -3 -21   34.46    3.52   1
  -3  -3 -20   14.36    1.67   1
  -3  -3 -20   12.18    1.81   1
  -3  -3 -19    0.00    1.00   1
  -3  -3 -19    2.19    1.30   1
  -3  -3 -18  271.59   12.20   1
  -3  -3 -18  269.29   18.05   1
  -3  -3 -18  236.24   13.83   1
  -3  -3 -17    2.99    0.90   1
  -3  -3 -17    4.08    0.89   1
  -3  -3 -17    3.61    1.10   1
  -3  -3 -16    6.10    1.19   1
  -3  -3 -16    5.11    1.49   1
  -3  -3 -15   49.42    3.94   1
  -3  -3 -15   52.85    3.78   1
  -3  -3 -14    4.08    1.21   1
  -3  -3 -14    4.28    0.91   1
  -3  -3 -13    3.10    1.09   1
  -3  -3 -13    0.00    1.00   1
  -3  -3 -12  690.11   32.05   1
  -3  -3 -12  790.73   37.68   1
  -3  -3 -11    9.12    1.21   1
  -3  -3 -11   15.13    1.32   1
  -3  -3 -10   43.56    2.51   1
  -3  -3 -10   38.07    2.47   1
  -3  -3  -9  962.86   33.51   1
  -3  -3  -9  746.38   34.97   1
  -3  -3  -8    0.71    0.71   1
  -3  -3  -8    0.40    0.89   1
  -3  -3  -7    0.00    1.00   1
  -3  -3  -7    1.10    0.90   1
  -3  -3  -6   12.67    1.28   1
  -3  -3  -6   13.18    1.23   1
  -3  -3  -5   16.00    1.28   1
  -3  -3  -5   14.06    1.42   1
  -3  -3  -4   20.34    1.80   1
  -3  -3  -4   27.25    1.57   1
  -3  -3  -3   22.75    2.00   1
  -3  -3  -2    7.51    0.99   1
  -3  -3  -1    6.71    0.88   1
  -3  -3   0 2573.53   88.27   1
  -3  -3   1   64.16    3.36   1
  -3  -3   2   39.94    2.53   1
  -3  -3   3 1106.89   54.56   1
  -3  -3   4   15.13    1.48   1
  -3  -3   5    2.59    1.09   1
  -3  -3   6  187.96    7.95   1
  -3  -3   7   -0.71    1.01   1
  -3  -3   8   41.34    2.96   1
  -3  -3   9  140.42    7.11   1
  -3  -3  10   62.73    3.33   1
  -3  -3  11   17.47    1.92   1
  -3  -3  12    3.61    0.91   1
  -3  -3  13   51.70    2.88   1
  -3  -3  14    0.71    1.31   1
  -3  -3  15   17.31    1.91   1
  -3  -3  16    4.49    1.61   1
  -3  -3  17   16.97    2.06   1
  -3  -3  18   32.60    3.08   1
  -3  -3  19   38.07    2.84   1
  -3  -3  20    4.58    1.71   1
  -3  -3  21   13.03    2.24   1
  -3  -3  22   -0.30    1.61   1
  -3  -3  23    7.51    2.03   1
  -3  -3  24    8.82    2.20   1
  -3  -3  24   12.67    2.06   1
  -3  -3  25   10.37    2.77   1
  -3  -3  25    8.41    2.49   1
  -3  -3  26    7.18    2.79   1
  -3  -3  26   18.32    2.23   1
  -3  -3  27  107.74    6.44   1
  -3  -3  27  110.67    5.89   1
  -3  -3  28   59.14    4.92   1
  -3  -3  28   58.37    4.13   1
  -3  -3  29   18.92    3.22   1
  -3  -3  29   25.20    3.71   1
  -3  -3  30   75.17    5.55   1
  -3  -3  31   35.16    3.44   1
  -3  -3  31   57.46    4.55   1
  -3  -3  32   13.10    2.97   1
  -3  -3  32   23.43    3.48   1
  -3  -3  33  257.60   12.20   1
  -3  -3  33  262.44   13.93   1
  -3  -3  34    4.41    2.10   1
  -3  -3  35   -1.21    2.71   1
  -3  -3  35   -2.99    3.01   1
  -3  -3  36    0.10    3.03   1
  -3  -3  36    1.49    2.29   1
  -3  -3  37   -0.59    2.68   1
  -3  -3  37    3.39    2.91   1
  -3  -3  38    4.08    3.27   1
  -3  -3  39    8.41    3.42   1
  -3  -3  40    6.40    3.80   1
  -3  -3  41   25.30    4.83   1
  -3  -3  42   -1.10    2.71   1
  -3  -3  42    4.20    4.02   1
  -3  -3  43    4.49    3.39   1
  -3  -3  43    6.00    4.80   1
  -3  -3  44   12.53    4.89   1
  -3  -3  44    4.88    3.09   1
  -3  -3  45  114.06    9.61   1
  -3  -3  46    2.59    5.28   1
  -3  -3  47    7.78    4.07   1
  -3  -3  47   15.13    5.84   1
  -3  -2 -42   82.45    7.26   1
  -3  -2 -41    1.69    3.48   1
  -3  -2 -40    6.40    3.39   1
  -3  -2 -40   12.18    3.07   1
  -3  -2 -39   35.05    4.74   1
  -3  -2 -38    8.82    3.21   1
  -3  -2 -37    2.10    2.70   1
  -3  -2 -36   19.89    3.39   1
  -3  -2 -35    9.80    2.63   1
  -3  -2 -34   25.81    3.76   1
  -3  -2 -33   79.21    5.16   1
  -3  -2 -33   73.79    5.84   1
  -3  -2 -32    1.59    1.89   1
  -3  -2 -31    1.80    2.01   1
  -3  -2 -30  110.25    6.93   1
  -3  -2 -30   96.43    7.27   1
  -3  -2 -29   12.67    2.28   1
  -3  -2 -29   14.67    2.53   1
  -3  -2 -28   -0.20    1.71   1
  -3  -2 -28   -0.10    2.02   1
  -3  -2 -27   -0.30    1.61   1
  -3  -2 -27    0.40    1.50   1
  -3  -2 -26   -1.59    1.69   1
  -3  -2 -26    2.79    1.80   1
  -3  -2 -25    3.20    1.72   1
  -3  -2 -25    3.10    1.69   1
  -3  -2 -24  320.05   15.03   1
  -3  -2 -24  340.77   15.88   1
  -3  -2 -23    5.02    1.52   1
  -3  -2 -23    4.08    1.78   1
  -3  -2 -22    1.80    1.39   1
  -3  -2 -22    3.50    1.50   1
  -3  -2 -21   17.64    2.02   1
  -3  -2 -21   16.48    1.79   1
  -3  -2 -20   48.16    3.47   1
  -3  -2 -20   39.82    3.15   1
  -3  -2 -19    2.10    1.31   1
  -3  -2 -19    3.69    1.19   1
  -3  -2 -18   62.73    3.96   1
  -3  -2 -18   72.76    4.44   1
  -3  -2 -17    5.38    1.21   1
  -3  -2 -17    4.00    1.20   1
  -3  -2 -16    2.19    1.10   1
  -3  -2 -16    0.20    0.91   1
  -3  -2 -15   81.36    4.15   1
  -3  -2 -15   84.64    4.78   1
  -3  -2 -14   13.91    1.79   1
  -3  -2 -14   12.53    1.27   1
  -3  -2 -13    3.50    1.01   1
  -3  -2 -13    4.71    0.91   1
  -3  -2 -13    3.80    1.01   1
  -3  -2 -12 1432.62   69.64   1
  -3  -2 -12 1260.25   53.96   1
  -3  -2 -11   21.44    1.67   1
  -3  -2 -11   25.20    1.91   1
  -3  -2 -10    3.88    0.91   1
  -3  -2  -9  639.58   26.81   1
  -3  -2  -8    0.10    0.51   1
  -3  -2  -8   -0.50    0.60   1
  -3  -2  -7    2.31    0.70   1
  -3  -2  -7    0.90    0.61   1
  -3  -2  -6  766.74   34.34   1
  -3  -2  -6 1009.97   46.40   1
  -3  -2  -5    4.41    0.71   1
  -3  -2  -5    5.02    1.12   1
  -3  -2  -4   41.86    2.33   1
  -3  -2  -4   55.65    3.13   1
  -3  -2  -3  205.06    8.31   1
  -3  -2  -3  152.03    6.66   1
  -3  -2  -2  160.78    6.34   1
  -3  -2  -2  202.78    8.54   1
  -3  -2  -1  213.16   10.80   1
  -3  -2  -1  292.07   12.65   1
  -3  -2   1 1069.94   42.52   1
  -3  -2   2   25.50    1.72   1
  -3  -2   3 2259.10   99.81   1
  -3  -2   4  295.50   11.35   1
  -3  -2   5   27.67    2.10   1
  -3  -2   6 1635.39   63.09   1
  -3  -2   7   12.11    1.18   1
  -3  -2   8    0.40    0.89   1
  -3  -2   9   10.50    1.30   1
  -3  -2  10    5.11    1.08   1
  -3  -2  11    6.20    1.00   1
  -3  -2  12   56.70    3.31   1
  -3  -2  13   -0.59    1.00   1
  -3  -2  14    9.99    1.52   1
  -3  -2  15  295.50   13.06   1
  -3  -2  16   24.90    2.20   1
  -3  -2  17    0.71    0.91   1
  -3  -2  18    2.69    1.41   1
  -3  -2  19   37.45    2.94   1
  -3  -2  20   20.79    2.28   1
  -3  -2  20   40.45    2.80   1
  -3  -2  21  123.21    6.44   1
  -3  -2  21  109.62    5.44   1
  -3  -2  22   13.18    2.11   1
  -3  -2  22   20.16    2.51   1
  -3  -2  23   25.81    2.64   1
  -3  -2  23   17.98    2.20   1
  -3  -2  24    1.69    1.69   1
  -3  -2  24   -0.79    1.58   1
  -3  -2  25   -0.40    1.59   1
  -3  -2  25    0.40    1.79   1
  -3  -2  26   12.53    2.62   1
  -3  -2  27  100.00    6.60   1
  -3  -2  28    9.30    2.50   1
  -3  -2  28    5.29    2.21   1
  -3  -2  29   27.46    2.93   1
  -3  -2  29   27.04    3.22   1
  -3  -2  30   95.06    6.44   1
  -3  -2  30   71.57    5.08   1
  -3  -2  31    8.53    2.98   1
  -3  -2  32    6.40    2.68   1
  -3  -2  33   21.81    3.27   1
  -3  -2  34    9.61    3.22   1
  -3  -2  35   -1.59    1.79   1
  -3  -2  35   -0.90    2.91   1
  -3  -2  36   14.29    3.63   1
  -3  -2  37    5.29    3.17   1
  -3  -2  38    0.50    2.71   1
  -3  -2  39   78.15    6.36   1
  -3  -2  40   36.36    5.55   1
  -3  -2  41   -2.40    3.81   1
  -3  -2  42    0.50    3.82   1
  -3  -2  43   12.82    5.30   1
  -3  -2  44    0.59    2.68   1
  -3  -2  44    2.40    2.70   1
  -3  -2  46   10.69    5.69   1
  -3  -2  47    9.00    3.90   1
  -3  -2  47    7.08    3.62   1
  -3  -2  48   33.99    7.46   1
  -3  -2  49   -5.29    4.28   1
  -3  -1 -48   -0.30    2.71   1
  -3  -1 -47    5.11    4.11   1
  -3  -1 -46   -2.19    3.70   1
  -3  -1 -45   -4.41    4.20   1
  -3  -1 -44    1.99    3.78   1
  -3  -1 -43    7.18    3.91   1
  -3  -1 -43    3.39    3.28   1
  -3  -1 -42   11.22    3.62   1
  -3  -1 -41    0.50    3.21   1
  -3  -1 -40    8.12    3.48   1
  -3  -1 -38    4.00    3.00   1
  -3  -1 -38    4.00    2.80   1
  -3  -1 -37   17.31    3.83   1
  -3  -1 -36   25.00    3.60   1
  -3  -1 -35    2.40    2.91   1
  -3  -1 -34   -0.59    2.59   1
  -3  -1 -33  107.74    6.23   1
  -3  -1 -32    1.59    2.49   1
  -3  -1 -31    7.08    2.39   1
  -3  -1 -30  423.95   21.83   1
  -3  -1 -29   16.08    2.57   1
  -3  -1 -28    3.69    1.88   1
  -3  -1 -27  321.84   16.50   1
  -3  -1 -26    1.30    1.71   1
  -3  -1 -25    6.10    2.12   1
  -3  -1 -25    2.40    1.61   1
  -3  -1 -24   81.72    5.42   1
  -3  -1 -24   88.17    5.07   1
  -3  -1 -23   13.10    2.17   1
  -3  -1 -23   13.18    2.03   1
  -3  -1 -22    1.21    1.30   1
  -3  -1 -22    1.99    1.69   1
  -3  -1 -21  351.19   16.87   1
  -3  -1 -21  360.24   18.22   1
  -3  -1 -20    1.99    1.38   1
  -3  -1 -20   -0.59    1.09   1
  -3  -1 -19   32.83    2.41   1
  -3  -1 -19   37.95    2.96   1
  -3  -1 -18  221.12   10.11   1
  -3  -1 -18  236.54   10.46   1
  -3  -1 -17    9.99    1.58   1
  -3  -1 -17    7.18    1.18   1
  -3  -1 -16   -0.79    0.80   1
  -3  -1 -16    0.59    1.00   1
  -3  -1 -15   33.06    2.64   1
  -3  -1 -15   30.47    2.10   1
  -3  -1 -14   22.09    1.97   1
  -3  -1 -14   24.50    1.78   1
  -3  -1 -13    2.50    0.88   1
  -3  -1 -13    2.79    0.90   1
  -3  -1 -12   39.69    2.65   1
  -3  -1 -12   38.81    2.24   1
  -3  -1 -11   41.73    2.97   1
  -3  -1 -11   35.64    2.15   1
  -3  -1 -11   43.56    2.38   1
  -3  -1 -10    1.69    0.60   1
  -3  -1 -10    0.30    0.80   1
  -3  -1 -10    1.21    0.81   1
  -3  -1  -9   14.52    1.37   1
  -3  -1  -9   19.27    1.40   1
  -3  -1  -9   14.36    1.06   1
  -3  -1  -8   78.85    4.08   1
  -3  -1  -8   85.01    5.35   1
  -3  -1  -8  100.60    6.02   1
  -3  -1  -7    0.59    0.69   1
  -3  -1  -7    0.00    1.00   1
  -3  -1  -6  438.06   19.67   1
  -3  -1  -6  510.76   20.34   1
  -3  -1  -5   88.74    3.96   1
  -3  -1  -5  101.81    6.05   1
  -3  -1  -4   21.34    1.20   1
  -3  -1  -4   24.30    1.68   1
  -3  -1  -3   66.10    3.25   1
  -3  -1  -3   79.39    4.63   1
  -3  -1  -2   76.74    3.68   1
  -3  -1  -2   88.92    3.77   1
  -3  -1  -1   58.06    3.66   1
  -3  -1  -1   37.82    2.21   1
  -3  -1   0  717.70   27.86   1
  -3  -1   0  564.06   24.23   1
  -3  -1   1   36.12    2.04   1
  -3  -1   1   50.98    2.57   1
  -3  -1   2  256.96   10.26   1
  -3  -1   2  186.87    9.84   1
  -3  -1   3   40.07    2.15   1
  -3  -1   3   40.45    2.54   1
  -3  -1   4   95.06    4.49   1
  -3  -1   5  135.26    5.35   1
  -3  -1   6  355.32   16.97   1
  -3  -1   7  326.16   12.28   1
  -3  -1   8    0.59    0.69   1
  -3  -1   9  121.88    6.62   1
  -3  -1  10   28.41    2.24   1
  -3  -1  11    1.30    0.89   1
  -3  -1  12  759.00   31.96   1
  -3  -1  13   -0.30    1.00   1
  -3  -1  14    2.40    1.12   1
  -3  -1  15   29.48    2.06   1
  -3  -1  16    2.59    1.29   1
  -3  -1  16    5.62    1.42   1
  -3  -1  17   10.30    1.61   1
  -3  -1  17   10.37    1.61   1
  -3  -1  18  405.62   15.31   1
  -3  -1  18  336.72   16.51   1
  -3  -1  19   27.46    2.62   1
  -3  -1  20    0.50    1.51   1
  -3  -1  21  593.41   24.36   1
  -3  -1  21  529.92   27.16   1
  -3  -1  22   13.03    2.31   1
  -3  -1  22   16.32    2.67   1
  -3  -1  23   11.70    2.12   1
  -3  -1  25   86.49    4.84   1
  -3  -1  26   -0.59    1.99   1
  -3  -1  27   99.60    5.99   1
  -3  -1  27  123.21    6.44   1
  -3  -1  28   14.29    2.57   1
  -3  -1  29    2.19    1.60   1
  -3  -1  30   30.36    3.75   1
  -3  -1  30   20.98    3.57   1
  -3  -1  31   -1.49    2.29   1
  -3  -1  32    9.18    2.79   1
  -3  -1  33  181.98   11.60   1
  -3  -1  34    0.59    1.69   1
  -3  -1  34    1.90    2.40   1
  -3  -1  35    2.10    2.81   1
  -3  -1  35    1.69    1.90   1
  -3  -1  36    9.12    3.20   1
  -3  -1  37   31.02    4.23   1
  -3  -1  38    1.39    3.19   1
  -3  -1  39    8.82    3.33   1
  -3  -1  40   12.18    4.12   1
  -3  -1  40    4.41    2.60   1
  -3  -1  41    3.31    3.71   1
  -3  -1  42   -0.59    2.79   1
  -3  -1  43    3.80    3.90   1
  -3  -1  44    3.80    4.41   1
  -3  -1  45   -0.20    4.72   1
  -3  -1  46    1.90    3.31   1
  -3  -1  46    5.29    4.60   1
  -3  -1  47    4.41    5.12   1
  -3  -1  47   -3.61    3.00   1
  -3  -1  48    4.00    5.68   1
  -3  -1  49   -0.10    5.47   1
  -3   0 -48   53.73    6.45   1
  -3   0 -46    6.20    3.78   1
  -3   0 -46   -2.50    3.98   1
  -3   0 -44    7.18    4.29   1
  -3   0 -42   -0.59    3.57   1
  -3   0 -40    1.80    3.40   1
  -3   0 -38   34.57    5.17   1
  -3   0 -36   -1.59    2.39   1
  -3   0 -34    2.31    2.80   1
  -3   0 -32    5.29    2.58   1
  -3   0 -30   25.70    3.75   1
  -3   0 -28   59.29    4.47   1
  -3   0 -26   20.16    2.96   1
  -3   0 -24  670.29   34.17   1
  -3   0 -22   22.66    2.00   1
  -3   0 -20   24.90    2.79   1
  -3   0 -18    0.20    1.31   1
  -3   0 -16   16.48    2.11   1
  -3   0 -14  101.81    5.45   1
  -3   0 -12  629.01   38.62   1
  -3   0 -12  575.52   27.83   1
  -3   0 -10   13.62    1.62   1
  -3   0 -10   16.73    1.23   1
  -3   0 -10   18.49    1.29   1
  -3   0  -8   42.77    3.01   1
  -3   0  -8   57.00    4.08   1
  -3   0  -8   51.12    2.43   1
  -3   0  -6  211.70    8.15   1
  -3   0  -6  204.78    5.72   1
  -3   0  -6   -0.10    0.30   1
  -3   0  -4    1.39    0.59   1
  -3   0  -4    2.10    0.20   1
  -3   0  -2   82.08    3.44   1
  -3   0  -2   74.82    3.11   1
  -3   0   0  874.38   33.12   1
  -3   0   2   31.58    1.91   1
  -3   0   2   30.03    1.42   1
  -3   0   4   20.43    1.27   1
  -3   0   4   21.16    1.66   1
  -3   0  14   17.89    1.61   1
  -3   0  16   27.04    3.85   1
  -3   0  18  452.41   20.42   1
  -3   0  18  540.10   19.06   1
  -3   0  20   96.43    6.09   1
  -3   0  20   98.21    5.55   1
  -3   0  22   49.56    4.22   1
  -3   0  22   49.28    3.79   1
  -3   0  24 1099.59   49.08   1
  -3   0  26    1.99    1.38   1
  -3   0  28    5.90    1.90   1
  -3   0  30   17.39    3.00   1
  -3   0  32   14.06    2.62   1
  -3   0  34    5.81    2.60   1
  -3   0  36   29.05    3.77   1
  -3   0  38    2.40    3.10   1
  -3   0  40   -1.99    2.99   1
  -3   0  42   17.22    4.23   1
  -3   0  44    5.02    4.30   1
  -3   0  44    4.58    3.81   1
  -3   0  46   -1.90    4.80   1
  -3   0  46    0.90    4.10   1
  -3   0  48   46.38    7.76   1
  -3   0  48   40.83    7.54   1
  -3   0  50    2.40    5.30   1
  -3   1 -48    0.10    4.04   1
  -3   1 -48   -4.71    4.38   1
  -3   1 -47   -3.20    5.41   1
  -3   1 -46    5.20    4.70   1
  -3   1 -45    2.31    3.10   1
  -3   1 -44   -0.90    4.31   1
  -3   1 -43    3.88    2.99   1
  -3   1 -42   15.60    4.19   1
  -3   1 -41    1.49    2.29   1
  -3   1 -40    4.49    3.18   1
  -3   1 -39   19.27    4.30   1
  -3   1 -38    3.50    3.40   1
  -3   1 -37   16.16    3.70   1
  -3   1 -36   24.70    3.88   1
  -3   1 -35    2.89    2.79   1
  -3   1 -34   -2.89    1.80   1
  -3   1 -33  112.57    8.28   1
  -3   1 -32    4.88    2.61   1
  -3   1 -31    8.18    2.97   1
  -3   1 -30  399.20   18.78   1
  -3   1 -28   11.63    2.73   1
  -3   1 -27  359.10   17.81   1
  -3   1 -26    1.00    1.90   1
  -3   1 -25    2.89    2.01   1
  -3   1 -24   70.06    4.52   1
  -3   1 -23    8.70    2.18   1
  -3   1 -22    0.00    1.00   1
  -3   1 -21  317.91   15.33   1
  -3   1 -20    1.00    1.50   1
  -3   1 -19   39.94    3.29   1
  -3   1 -18  226.80    9.94   1
  -3   1 -17   12.60    1.99   1
  -3   1 -16    0.90    1.10   1
  -3   1 -15   35.40    2.86   1
  -3   1 -14   22.28    2.08   1
  -3   1 -13   -1.99    0.99   1
  -3   1 -13    3.20    1.40   1
  -3   1 -12   40.45    2.42   1
  -3   1 -12   31.25    2.80   1
  -3   1 -11   39.94    2.91   1
  -3   1 -11   40.96    2.56   1
  -3   1 -10    2.31    1.00   1
  -3   1 -10    0.71    0.71   1
  -3   1  -9   16.81    1.48   1
  -3   1  -9   16.81    1.31   1
  -3   1  -8   87.80    3.37   1
  -3   1  -8   21.53    3.53   1
  -3   1  -7   -1.39    0.80   1
  -3   1  -7   -0.20    0.31   1
  -3   1  -6    1.49    1.00   1
  -3   1  -6  509.86   18.06   1
  -3   1  -5  102.21    5.66   1
  -3   1  -5   82.26    4.17   1
  -3   1  -4   20.61    0.91   1
  -3   1  -4   24.40    1.98   1
  -3   1  -3   82.63    4.73   1
  -3   1  -3   67.90    2.97   1
  -3   1  -2   90.82    5.15   1
  -3   1  -1   52.71    2.47   1
  -3   1   0  660.49   26.73   1
  -3   1   1   38.69    2.99   1
  -3   1   2  228.01   10.57   1
  -3   1   3   45.70    2.70   1
  -3   1   4  109.83    5.03   1
  -3   1   4  115.35    5.16   1
  -3   1   5  150.80    7.61   1
  -3   1   5  162.05    8.15   1
  -3   1   6  384.16   14.90   1
  -3   1   6  424.77   20.20   1
  -3   1   7  373.65   20.10   1
  -3   1   8    1.00    0.70   1
  -3   1  10   30.91    1.67   1
  -3   1  11    0.10    0.61   1
  -3   1  11    0.90    0.80   1
  -3   1  12  933.30   37.88   1
  -3   1  12  793.55   41.13   1
  -3   1  13   -0.79    0.89   1
  -3   1  13    1.49    0.71   1
  -3   1  14    1.49    0.71   1
  -3   1  14    2.19    0.89   1
  -3   1  15   38.07    2.47   1
  -3   1  15   27.46    2.52   1
  -3   1  16    2.59    1.38   1
  -3   1  16    3.80    1.09   1
  -3   1  17    7.78    1.51   1
  -3   1  17   10.89    1.32   1
  -3   1  18  396.41   17.12   1
  -3   1  19   33.76    3.14   1
  -3   1  20    1.10    1.09   1
  -3   1  21  591.46   26.75   1
  -3   1  22   15.68    1.98   1
  -3   1  23   13.32    1.90   1
  -3   1  24    0.50    1.51   1
  -3   1  25   78.15    5.48   1
  -3   1  26    4.08    1.90   1
  -3   1  27  141.37    7.61   1
  -3   1  28    9.92    2.33   1
  -3   1  29   -0.50    2.10   1
  -3   1  30   32.60    3.54   1
  -3   1  31   -0.79    2.08   1
  -3   1  32   14.29    3.18   1
  -3   1  33  203.92   14.28   1
  -3   1  35    0.50    2.61   1
  -3   1  36    7.51    3.18   1
  -3   1  37   30.91    4.11   1
  -3   1  38    1.49    3.10   1
  -3   1  39    8.82    3.39   1
  -3   1  40    8.41    3.48   1
  -3   1  41    1.10    3.40   1
  -3   1  42    2.99    3.98   1
  -3   1  43   17.31    4.66   1
  -3   1  43    7.18    4.40   1
  -3   1  44    2.99    4.19   1
  -3   1  44   -0.50    2.71   1
  -3   1  45    0.50    3.92   1
  -3   1  45   -3.69    4.19   1
  -3   1  46    0.79    4.57   1
  -3   1  46    1.59    4.08   1
  -3   1  47    3.31    5.02   1
  -3   1  48    4.00    5.40   1
  -3   1  49    7.29    5.67   1
  -3   2 -48   -0.10    2.43   1
  -3   2 -48   -1.99    5.27   1
  -3   2 -47   -2.59    5.38   1
  -3   2 -46   -3.80    4.91   1
  -3   2 -45   10.89    4.29   1
  -3   2 -44   -4.20    4.59   1
  -3   2 -43    3.61    2.89   1
  -3   2 -42   81.36    6.49   1
  -3   2 -40    6.20    4.38   1
  -3   2 -39   33.76    4.76   1
  -3   2 -38    4.80    2.50   1
  -3   2 -37    0.59    3.68   1
  -3   2 -36   28.20    5.10   1
  -3   2 -35    7.67    3.10   1
  -3   2 -34   16.48    3.49   1
  -3   2 -33   88.17    7.70   1
  -3   2 -32    1.49    2.39   1
  -3   2 -31    4.08    2.59   1
  -3   2 -30  114.92    7.50   1
  -3   2 -29   11.22    2.28   1
  -3   2 -28    2.89    2.21   1
  -3   2 -27    1.21    2.31   1
  -3   2 -26   -0.90    2.11   1
  -3   2 -25    2.99    1.38   1
  -3   2 -24  314.71   15.26   1
  -3   2 -22    4.28    1.90   1
  -3   2 -21   16.08    2.17   1
  -3   2 -20   37.09    3.65   1
  -3   2 -19    2.40    1.80   1
  -3   2 -18   67.73    4.44   1
  -3   2 -17    6.00    1.42   1
  -3   2 -16    0.79    1.30   1
  -3   2 -15   85.38    4.99   1
  -3   2 -14   10.89    1.78   1
  -3   2 -13    1.00    1.40   1
  -3   2 -12 1326.42   52.44   1
  -3   2 -11   27.14    2.19   1
  -3   2 -11   17.47    1.50   1
  -3   2 -10    3.39    0.81   1
  -3   2 -10    1.30    1.21   1
  -3   2  -9  720.92   31.15   1
  -3   2  -9  672.36   29.04   1
  -3   2  -8    0.30    0.70   1
  -3   2  -8   -0.40    0.59   1
  -3   2  -7    0.30    0.51   1
  -3   2  -7    0.79    0.69   1
  -3   2  -6  885.06   38.67   1
  -3   2  -5    0.71    0.40   1
  -3   2  -5    4.08    1.09   1
  -3   2  -4   45.16    2.82   1
  -3   2  -3  175.30    9.00   1
  -3   2  -2  177.96    9.60   1
  -3   2  -1  247.75    9.76   1
  -3   2   0  584.67   28.05   1
  -3   2   0  464.40   19.83   1
  -3   2   1 1185.42   60.60   1
  -3   2   1 1355.71   57.44   1
  -3   2   2   29.59    1.74   1
  -3   2   2   30.80    2.22   1
  -3   2   3 2817.49   96.61   1
  -3   2   4  382.98   15.66   1
  -3   2   4  350.81   16.48   1
  -3   2   5   40.45    2.54   1
  -3   2   6 2122.44   76.48   1
  -3   2   7   11.83    1.31   1
  -3   2   8   -0.79    0.80   1
  -3   2  10    5.62    0.81   1
  -3   2  11    9.49    0.99   1
  -3   2  12   79.74    4.29   1
  -3   2  13    0.59    0.69   1
  -3   2  13    0.90    1.10   1
  -3   2  14   11.02    1.73   1
  -3   2  14   11.83    1.31   1
  -3   2  15  318.62   14.64   1
  -3   2  15  367.87   17.26   1
  -3   2  16   23.91    1.76   1
  -3   2  16   22.00    2.35   1
  -3   2  17   -0.90    1.20   1
  -3   2  17    1.30    0.89   1
  -3   2  18    2.79    1.30   1
  -3   2  18    1.90    1.10   1
  -3   2  19   38.44    3.10   1
  -3   2  19   42.64    3.13   1
  -3   2  20   38.69    2.61   1
  -3   2  20   37.95    2.96   1
  -3   2  21   94.67    5.06   1
  -3   2  21  122.10    6.41   1
  -3   2  22   23.33    2.03   1
  -3   2  22   18.06    2.30   1
  -3   2  23   16.08    2.09   1
  -3   2  23   18.84    1.91   1
  -3   2  24    1.90    1.49   1
  -3   2  24   -2.59    1.38   1
  -3   2  25   -0.90    1.31   1
  -3   2  25    2.10    1.80   1
  -3   2  26   17.14    2.48   1
  -3   2  26   14.98    2.71   1
  -3   2  27  124.32    6.91   1
  -3   2  28   11.09    2.33   1
  -3   2  29   26.32    2.77   1
  -3   2  29   29.16    3.56   1
  -3   2  31   10.69    2.49   1
  -3   2  32   16.56    2.93   1
  -3   2  32   11.09    2.60   1
  -3   2  33   20.79    2.92   1
  -3   2  35   -1.69    1.59   1
  -3   2  36    5.81    2.89   1
  -3   2  37   -0.20    3.01   1
  -3   2  37    3.69    2.11   1
  -3   2  38   -0.40    3.39   1
  -3   2  38   -2.10    2.00   1
  -3   2  39   72.76    6.31   1
  -3   2  41   -0.71    3.31   1
  -3   2  43   15.13    4.90   1
  -3   2  44    5.81    4.19   1
  -3   2  45   -1.69    4.39   1
  -3   2  46   -4.00    4.08   1
  -3   2  47    2.50    4.80   1
  -3   2  48   19.80    5.52   1
  -3   2  49   18.66    5.62   1
  -3   3 -47    5.90    4.91   1
  -3   3 -46    2.79    4.98   1
  -3   3 -44   -0.30    3.21   1
  -3   3 -43   -6.10    4.00   1
  -3   3 -42    3.20    3.90   1
  -3   3 -41   19.10    4.20   1
  -3   3 -40    0.40    3.98   1
  -3   3 -39    1.30    2.39   1
  -3   3 -38    6.60    4.01   1
  -3   3 -37   22.00    4.22   1
  -3   3 -36   20.34    3.34   1
  -3   3 -35    8.53    3.39   1
  -3   3 -34    3.20    3.11   1
  -3   3 -33  125.22    7.61   1
  -3   3 -32    3.61    2.89   1
  -3   3 -31   11.70    2.60   1
  -3   3 -30    7.78    2.68   1
  -3   3 -29    5.38    2.41   1
  -3   3 -28    1.59    2.29   1
  -3   3 -27   22.66    2.48   1
  -3   3 -26    6.50    2.29   1
  -3   3 -25    3.31    2.22   1
  -3   3 -24   -0.20    1.51   1
  -3   3 -23   -0.40    1.79   1
  -3   3 -21   36.12    3.49   1
  -3   3 -20   20.16    2.69   1
  -3   3 -19    2.31    1.70   1
  -3   3 -18  266.67   12.41   1
  -3   3 -17    1.10    1.20   1
  -3   3 -16    7.40    1.52   1
  -3   3 -15   44.36    3.73   1
  -3   3 -14    2.79    1.50   1
  -3   3 -13    0.00    1.00   1
  -3   3 -12  723.61   30.13   1
  -3   3 -11   14.29    1.51   1
  -3   3 -10   41.86    2.72   1
  -3   3  -9  821.40   34.97   1
  -3   3  -9  724.15   34.44   1
  -3   3  -8   -0.10    1.01   1
  -3   3  -8   -0.30    0.80   1
  -3   3  -7    0.50    0.70   1
  -3   3  -7    1.00    1.00   1
  -3   3  -6   10.30    1.48   1
  -3   3  -6    9.80    1.13   1
  -3   3  -5   14.82    1.77   1
  -3   3  -5   11.29    1.28   1
  -3   3  -4   21.72    1.68   1
  -3   3  -4   17.22    1.41   1
  -3   3  -4   27.46    1.99   1
  -3   3  -3   20.07    1.52   1
  -3   3  -2   11.22    0.87   1
  -3   3  -2    6.60    0.98   1
  -3   3  -2   11.90    1.52   1
  -3   3  -1    6.50    0.82   1
  -3   3  -1    7.18    1.07   1
  -3   3   0 3137.12  123.22   1
  -3   3   1   60.37    3.42   1
  -3   3   1   80.10    4.30   1
  -3   3   2   51.12    2.72   1
  -3   3   2   39.06    3.25   1
  -3   3   3 1377.89   55.68   1
  -3   3   4   15.76    1.51   1
  -3   3   5    3.88    0.91   1
  -3   3   6  231.95    9.75   1
  -3   3   7   -0.40    0.79   1
  -3   3   8   51.55    2.44   1
  -3   3   9  180.90    7.53   1
  -3   3   9  171.09    7.59   1
  -3   3  10   98.01    4.75   1
  -3   3  11   23.23    1.54   1
  -3   3  12    3.10    0.81   1
  -3   3  13   62.57    3.32   1
  -3   3  15   17.22    2.08   1
  -3   3  16    2.19    0.89   1
  -3   3  17   14.67    1.69   1
  -3   3  18   49.00    3.22   1
  -3   3  19   49.00    2.80   1
  -3   3  21   16.97    1.98   1
  -3   3  22    1.30    1.30   1
  -3   3  23    5.02    1.70   1
  -3   3  24    9.49    1.91   1
  -3   3  33  291.04   13.65   1
  -3   3  34    4.08    1.98   1
  -3   3  35    0.30    2.61   1
  -3   3  38   -2.79    2.61   1
  -3   3  39   -1.69    3.09   1
  -3   3  42    0.79    4.08   1
  -3   3  43    4.28    3.89   1
  -3   3  44    0.90    4.20   1
  -3   3  45   91.01    9.35   1
  -3   3  46    4.08    4.40   1
  -3   3  47   12.39    6.48   1
  -3   3  48    2.59    4.80   1
  -3   3  49   19.54    7.25   1
  -3   4 -46  -17.14    5.71   1
  -3   4 -45    3.10    5.21   1
  -3   4 -44    2.50    5.50   1
  -3   4 -43   12.32    4.98   1
  -3   4 -42    3.80    4.72   1
  -3   4 -41    0.79    3.49   1
  -3   4 -40   -2.99    3.81   1
  -3   4 -39  265.04   19.54   1
  -3   4 -38   16.73    4.17   1
  -3   4 -37    2.19    3.40   1
  -3   4 -36    8.12    3.42   1
  -3   4 -35   26.73    3.41   1
  -3   4 -34    4.41    3.11   1
  -3   4 -33   15.13    3.50   1
  -3   4 -32    2.79    2.81   1
  -3   4 -31   10.69    3.27   1
  -3   4 -30  123.88    8.01   1
  -3   4 -29    5.62    2.51   1
  -3   4 -28   -2.69    1.51   1
  -3   4 -27    3.61    2.32   1
  -3   4 -26   14.98    2.86   1
  -3   4 -25    8.53    2.63   1
  -3   4 -24   74.65    5.01   1
  -3   4 -23   11.09    2.53   1
  -3   4 -22    1.99    2.48   1
  -3   4 -21    1.39    1.39   1
  -3   4 -20    2.50    1.90   1
  -3   4 -19   19.27    2.81   1
  -3   4 -18   -1.39    1.60   1
  -3   4 -17    5.29    1.98   1
  -3   4 -16    8.82    2.02   1
  -3   4 -15    5.11    1.72   1
  -3   4 -14   -1.39    1.49   1
  -3   4 -13    7.62    1.71   1
  -3   4 -12   36.60    3.39   1
  -3   4 -11   22.18    1.88   1
  -3   4 -10  100.20    5.61   1
  -3   4  -9  136.42    7.48   1
  -3   4  -8   48.72    2.93   1
  -3   4  -7    2.40    1.30   1
  -3   4  -6   16.16    1.77   1
  -3   4  -5   52.56    3.34   1
  -3   4  -4   35.64    2.75   1
  -3   4  -3  348.20   14.18   1
  -3   4  -2  112.15    5.93   1
  -3   4  -1    2.19    0.59   1
  -3   4  -1    0.71    1.01   1
  -3   4   0  550.84   21.59   1
  -3   4   0  502.21   25.10   1
  -3   4   2    1.39    0.90   1
  -3   4   3  946.79   36.92   1
  -3   4   4    8.88    1.19   1
  -3   4   5    8.12    1.08   1
  -3   4   6  327.97   14.49   1
  -3   4   7   44.36    2.40   1
  -3   4   8    1.30    0.30   1
  -3   4   8    1.99    0.99   1
  -3   4   9  177.96    7.47   1
  -3   4  10  100.80    5.02   1
  -3   4  11    8.58    0.88   1
  -3   4  12  344.84   15.97   1
  -3   4  13    0.00    1.00   1
  -3   4  14   -1.10    0.69   1
  -3   4  15   73.96    3.61   1
  -3   4  16    2.50    0.88   1
  -3   4  17   -0.20    0.80   1
  -3   4  18   26.73    1.96   1
  -3   4  19    8.18    1.20   1
  -3   4  35   12.39    3.31   1
  -3   4  36   37.33    4.64   1
  -3   4  40   50.13    5.52   1
  -3   4  41   -4.28    3.48   1
  -3   4  42   25.40    4.74   1
  -3   4  43    0.79    3.49   1
  -3   5 -45   34.11    6.77   1
  -3   5 -44    0.59    5.17   1
  -3   5 -43    9.00    5.10   1
  -3   5 -42  126.79   12.84   1
  -3   5 -41   30.80    5.77   1
  -3   5 -40    9.61    3.47   1
  -3   5 -39    3.20    4.01   1
  -3   5 -38    5.11    3.89   1
  -3   5 -37   13.47    4.33   1
  -3   5 -36   89.87    8.91   1
  -3   5 -35    2.10    3.39   1
  -3   5 -34   -5.62    2.89   1
  -3   5 -33   52.42    5.50   1
  -3   5 -32   12.89    3.59   1
  -3   5 -31    4.49    3.18   1
  -3   5 -30  144.00   10.08   1
  -3   5 -29   11.70    2.87   1
  -3   5 -28    8.41    3.48   1
  -3   5 -27   79.92    6.08   1
  -3   5 -26   24.11    3.93   1
  -3   5 -25    7.62    2.82   1
  -3   5 -24   30.25    3.08   1
  -3   5 -23    2.50    2.31   1
  -3   5 -22   -0.30    1.41   1
  -3   5 -21   24.50    3.07   1
  -3   5 -20    0.50    2.22   1
  -3   5 -19    2.59    2.09   1
  -3   5 -18   31.58    3.15   1
  -3   5 -17    6.10    1.98   1
  -3   5 -16   14.90    2.32   1
  -3   5 -15    1.39    0.90   1
  -3   5 -14    4.88    1.81   1
  -3   5 -13    8.12    1.88   1
  -3   5 -12  159.01   11.10   1
  -3   5 -11   20.34    2.44   1
  -3   5 -10   40.96    3.20   1
  -3   5  -7   12.89    2.01   1
  -3   5  -6  182.25    9.72   1
  -3   5  -5   99.60    5.39   1
  -3   5  -4  126.34    6.29   1
  -3   5  -3  661.52   26.75   1
  -3   5  -2  347.08   13.41   1
  -3   5  -2  310.11   12.68   1
  -3   5  -1   30.03    1.75   1
  -3   5  -1   23.23    2.02   1
  -3   5   0  269.29   11.16   1
  -3   5   0  281.23   11.40   1
  -3   5   1   51.12    2.15   1
  -3   5   1   44.36    3.06   1
  -3   5   2    7.51    0.60   1
  -3   5   2    7.78    1.39   1
  -3   5   3  237.47   10.79   1
  -3   5   4   27.56    1.89   1
  -3   5   5   51.70    3.31   1
  -3   5   6  179.02    7.23   1
  -3   5   7  105.06    5.74   1
  -3   5   8   23.52    1.94   1
  -3   5   8   21.90    1.03   1
  -3   5   9    1.59    1.01   1
  -3   5   9    0.20    0.40   1
  -3   5  10   64.64    3.06   1
  -3   5  10   69.06    3.49   1
  -3   5  11   43.16    2.50   1
  -3   5  11   48.44    2.64   1
  -3   5  12    8.29    0.81   1
  -3   5  14   11.97    1.18   1
  -3   5  15  241.80   11.82   1
  -3   5  16    8.82    1.31   1
  -3   6 -43    3.88    3.51   1
  -3   6 -42   38.94    6.36   1
  -3   6 -41    9.42    4.61   1
  -3   6 -40    8.82    3.50   1
  -3   6 -39    0.10    3.95   1
  -3   6 -38   -1.80    4.10   1
  -3   6 -37    0.79    3.58   1
  -3   6 -36   61.62    7.38   1
  -3   6 -35   39.69    5.17   1
  -3   6 -34   -0.50    3.31   1
  -3   6 -33   15.13    3.50   1
  -3   6 -32   -0.20    3.12   1
  -3   6 -31   18.40    3.69   1
  -3   6 -30  111.51    8.03   1
  -3   6 -29   38.94    4.62   1
  -3   6 -28   29.27    3.25   1
  -3   6 -27    1.90    2.70   1
  -3   6 -26    5.38    2.88   1
  -3   6 -25    4.08    2.50   1
  -3   6 -24  100.00    6.60   1
  -3   6 -23    4.80    2.50   1
  -3   6 -22   -2.40    2.11   1
  -3   6 -21    5.71    1.72   1
  -3   6 -20   23.72    3.02   1
  -3   6 -19    8.12    2.68   1
  -3   6 -18  151.29    7.87   1
  -3   6 -17    3.88    2.21   1
  -3   6 -16    3.88    1.38   1
  -3   6 -15  116.86    7.35   1
  -3   6 -14   19.62    2.92   1
  -3   6 -13    0.00    1.00   1
  -3   6 -12  205.64    9.18   1
  -3   6 -11   14.21    2.11   1
  -3   6 -10    6.10    1.98   1
  -3   6  -9   29.70    3.05   1
  -3   6  -8   56.85    4.07   1
  -3   6  -7   51.27    3.29   1
  -3   6  -6  543.36   24.24   1
  -3   6  -5   -0.10    1.22   1
  -3   6  -4   93.12    5.21   1
  -3   6  -3   92.93    5.01   1
  -3   6  -2  224.40   10.79   1
  -3   6  -1   35.16    2.25   1
  -3   6  -1   35.64    2.75   1
  -3   6   0   48.44    3.06   1
  -3   6   0   47.33    2.34   1
  -3   6   1    3.10    1.41   1
  -3   6   1    0.59    0.60   1
  -3   6   2    2.40    0.59   1
  -3   6   2    0.90    1.41   1
  -3   6   3  303.11   11.49   1
  -3   6   4    2.19    1.30   1
  -3   6   5    2.10    0.49   1
  -3   6   5    2.40    0.50   1
  -3   6   5    2.10    1.01   1
  -3   6   6  120.78    4.40   1
  -3   6   6  111.51    4.44   1
  -3   6   6  110.04    5.45   1
  -3   6   7    2.59    0.52   1
  -3   6   7    0.50    0.91   1
  -3   6   8   24.50    1.39   1
  -3   6   8   23.81    1.76   1
  -3   6   9  124.77    6.70   1
  -3   6  10   17.31    1.16   1
  -3   6  10   15.76    1.83   1
  -3   6  11   42.90    2.62   1
  -3   6  11   38.19    2.35   1
  -3   6  12   71.06    3.37   1
  -3   6  14    6.50    1.02   1
  -3   6  15   31.02    2.23   1
  -3   6  16    8.53    1.40   1
  -3   6  17    4.00    1.40   1
  -3   6  19   12.18    1.88   1
  -3   7 -41   -9.12    5.32   1
  -3   7 -40    7.51    5.32   1
  -3   7 -39    0.00    1.00   1
  -3   7 -38   -1.99    4.29   1
  -3   7 -37    6.60    5.19   1
  -3   7 -36  107.95    9.14   1
  -3   7 -35   52.42    5.94   1
  -3   7 -34    6.00    4.02   1
  -3   7 -33   14.36    4.17   1
  -3   7 -32    3.39    3.90   1
  -3   7 -31   -2.69    3.28   1
  -3   7 -30   -0.50    3.11   1
  -3   7 -29    7.02    3.39   1
  -3   7 -28   -1.69    2.78   1
  -3   7 -27   63.52    5.58   1
  -3   7 -26    3.31    2.91   1
  -3   7 -25    2.19    2.78   1
  -3   7 -24    3.61    2.89   1
  -3   7 -23    4.20    2.79   1
  -3   7 -22    1.30    2.19   1
  -3   7 -21    4.71    2.39   1
  -3   7 -20   -1.69    2.29   1
  -3   7 -19   23.23    3.28   1
  -3   7 -18  181.17    9.42   1
  -3   7 -17   54.46    3.99   1
  -3   7 -16    4.08    2.18   1
  -3   7 -15    9.30    1.89   1
  -3   7 -14    1.80    2.09   1
  -3   7 -13    1.69    1.51   1
  -3   7 -12    3.31    2.00   1
  -3   7 -11   33.76    2.56   1
  -3   7 -10   49.84    4.38   1
  -3   7  -9  367.11   17.63   1
  -3   7  -8   14.29    2.19   1
  -3   7  -7   -0.10    1.72   1
  -3   7  -6   78.68    6.39   1
  -3   7  -5   36.72    2.55   1
  -3   7  -4   56.55    3.61   1
  -3   7  -3  249.32   10.11   1
  -3   7  -2  100.00    5.60   1
  -3   7  -1   -1.30    1.39   1
  -3   7   0  399.60   21.59   1
  -3   7   1   16.81    2.21   1
  -3   7   2   14.06    1.73   1
  -3   7   3   42.12    2.86   1
  -3   7   4   14.21    1.88   1
  -3   7   5    6.10    1.48   1
  -3   7   6  176.62    8.77   1
  -3   7   7   15.52    1.10   1
  -3   7   7   12.67    1.57   1
  -3   7   8   19.18    1.93   1
  -3   7   8   17.47    1.34   1
  -3   7   9  345.59   13.01   1
  -3   7  10    2.69    0.69   1
  -3   7  10    3.10    1.20   1
  -3   7  11    0.50    1.21   1
  -3   7  11    0.40    0.79   1
  -3   8 -40    7.90   15.17   1
  -3   8 -39   80.64    8.98   1
  -3   8 -38    8.82    5.29   1
  -3   8 -37   -1.21    4.22   1
  -3   8 -36   -2.59    4.51   1
  -3   8 -35   -1.69    4.50   1
  -3   8 -34   32.49    6.16   1
  -3   8 -33   97.02    8.86   1
  -3   8 -32   12.11    4.73   1
  -3   8 -31   -1.21    3.61   1
  -3   8 -30   48.44    5.01   1
  -3   8 -29    8.58    3.87   1
  -3   8 -28    0.59    3.08   1
  -3   8 -27   11.97    2.70   1
  -3   8 -26    1.90    3.20   1
  -3   8 -25    1.90    3.39   1
  -3   8 -24   40.07    4.30   1
  -3   8 -23   12.89    3.73   1
  -3   8 -22    3.50    2.51   1
  -3   8 -21    6.40    2.58   1
  -3   8 -20    3.80    2.11   1
  -3   8 -19   15.76    3.18   1
  -3   8 -18   52.27    4.34   1
  -3   8 -17   56.70    4.97   1
  -3   8 -16   11.83    2.20   1
  -3   8 -15  504.45   20.21   1
  -3   8 -14   41.86    5.05   1
  -3   8 -13   51.55    3.73   1
  -3   8 -12    9.61    1.98   1
  -3   8 -11   12.53    2.19   1
  -3   8 -10    6.50    1.99   1
  -3   8  -9   71.06    5.23   1
  -3   8  -8    9.80    2.00   1
  -3   8  -7    7.62    2.43   1
  -3   8  -6   11.70    2.53   1
  -3   8  -5   19.89    2.50   1
  -3   8  -4   45.97    3.53   1
  -3   8  -3  471.76   19.11   1
  -3   8  -2   93.90    5.23   1
  -3   8  -1   -0.71    1.21   1
  -3   8   0    7.62    1.71   1
  -3   8   1   45.56    3.11   1
  -3   8   2    7.90    1.80   1
  -3   8   3  410.47   20.26   1
  -3   8   4   11.09    1.93   1
  -3   8   5    0.30    1.10   1
  -3   8   6   72.25    4.25   1
  -3   8   7    3.69    1.19   1
  -3   8   8   31.47    2.58   1
  -3   8   9   20.34    1.98   1
  -3   8  10   17.22    1.99   1
  -3   9 -37    5.71    5.31   1
  -3   9 -36    3.10    4.79   1
  -3   9 -35   -1.99    4.48   1
  -3   9 -34    1.39    4.79   1
  -3   9 -33   59.75    7.58   1
  -3   9 -32   31.02    5.24   1
  -3   9 -31   12.32    4.28   1
  -3   9 -30   21.53    5.10   1
  -3   9 -29    8.70    2.77   1
  -3   9 -28   15.60    3.79   1
  -3   9 -27   56.10    5.84   1
  -3   9 -26   10.63    2.93   1
  -3   9 -25    5.20    3.19   1
  -3   9 -24   -0.20    3.42   1
  -3   9 -23   14.52    3.58   1
  -3   9 -22   15.29    3.83   1
  -3   9 -21   25.40    4.13   1
  -3   9 -20   14.21    3.09   1
  -3   9 -19   30.25    4.07   1
  -3   9 -18   11.02    3.39   1
  -3   9 -17   14.29    3.18   1
  -3   9 -16   36.48    4.47   1
  -3   9 -15    4.20    2.50   1
  -3   9 -14   41.22    3.98   1
  -3   9 -13    0.10    2.23   1
  -3   9 -12   59.29    4.62   1
  -3   9 -11    4.00    2.28   1
  -3   9 -10   30.25    3.96   1
  -3   9  -9  390.85   17.79   1
  -3   9  -8   72.25    5.95   1
  -3   9  -7    6.60    2.00   1
  -3   9  -6   26.01    2.55   1
  -3   9  -5    9.49    1.72   1
  -3   9  -4   40.32    3.43   1
  -3   9  -3   92.35    5.77   1
  -3   9  -2   61.31    4.07   1
  -3   9  -1    0.50    1.41   1
  -3   9   0  108.58    6.04   1
  -3   9   1    1.21    1.80   1
  -3   9   2    1.10    1.81   1
  -3   9   3  150.55    7.61   1
  -3   9   4   10.18    1.79   1
  -3  10 -34    1.00    3.10   1
  -3  10 -33   22.47    4.83   1
  -3  10 -32   -2.69    4.49   1
  -3  10 -31    6.30    4.32   1
  -3  10 -30   35.64    5.61   1
  -3  10 -29   -0.40    3.78   1
  -3  10 -28    2.10    2.70   1
  -3  10 -27    2.79    3.61   1
  -3  10 -26    2.40    3.60   1
  -3  10 -25   11.90    3.80   1
  -3  10 -24   17.14    3.81   1
  -3  10 -23   33.87    4.77   1
  -3  10 -22   -1.69    3.20   1
  -3  10 -21   67.24    6.72   1
  -3  10 -20   -1.00    2.70   1
  -3  10 -19   -1.99    3.30   1
  -3  10 -18    4.80    2.89   1
  -3  10 -17    0.79    2.69   1
  -3  10 -16   11.97    3.39   1
  -3  10 -15   10.37    3.09   1
  -3  10 -14    6.30    3.01   1
  -3  10 -13    0.50    2.41   1
  -3  10 -12   19.80    3.20   1
  -3  10 -11   -2.31    2.10   1
  -3  10 -10    8.53    2.51   1
  -3  10  -9   53.29    4.96   1
  -3  10  -8    0.79    2.30   1
  -3  10  -7   13.32    2.63   1
  -3  10  -6   12.89    3.02   1
  -3  10  -5    1.90    2.10   1
  -3  10  -4    2.31    1.79   1
  -3  10  -3   46.65    4.37   1
  -3  10  -2   14.59    2.52   1
  -3  11 -33   -4.88    4.11   1
  -3  11 -32    6.30    4.92   1
  -3  11 -31   -3.61    4.71   1
  -3  11 -30    3.61    4.60   1
  -3  11 -29    5.62    4.31   1
  -3  11 -28    3.39    4.31   1
  -3  11 -27   18.49    5.07   1
  -3  11 -26    0.10    2.94   1
  -3  11 -25   -0.40    3.88   1
  -3  11 -24   24.11    5.20   1
  -3  11 -23   -4.88    3.40   1
  -3  11 -22    1.21    3.81   1
  -3  11 -21   34.22    4.56   1
  -3  11 -20    4.00    3.52   1
  -3  11 -19    3.80    3.39   1
  -3  11 -18   -0.10    3.44   1
  -3  11 -17    0.40    3.59   1
  -3  11 -16    8.41    3.31   1
  -3  11 -15   -2.89    2.99   1
  -3  11 -14    3.80    2.81   1
  -3  11 -13    1.39    2.90   1
  -3  11 -12   87.80    5.81   1
  -3  11 -11    0.00    1.00   1
  -3  11 -10   10.50    3.30   1
  -3  11  -9   26.42    3.70   1
  -3  11  -8   27.35    3.66   1
  -3  12 -29    3.61    4.71   1
  -3  12 -28    2.69    4.59   1
  -3  12 -27    8.18    4.12   1
  -3  12 -26    1.21    3.72   1
  -3  12 -25    2.19    4.20   1
  -3  12 -24   17.14    4.97   1
  -3  12 -23    0.50    3.62   1
  -3  12 -22    2.79    4.28   1
  -3  12 -21    8.18    3.78   1
  -3  12 -20    0.79    3.58   1
  -3  12 -19    3.61    3.42   1
  -3  12 -18   13.18    3.99   1
  -3  12 -17   -4.41    3.19   1
  -3  12 -16    0.90    3.31   1
  -2 -15  -7    7.90    6.29   1
  -2 -15  -6   -8.82    5.82   1
  -2 -15  -5    2.10    6.00   1
  -2 -15  -4    5.90    5.88   1
  -2 -15  -3    9.30    5.49   1
  -2 -15  -2   12.89    6.03   1
  -2 -15  -1   -3.50    5.98   1
  -2 -15   0   -0.71    5.22   1
  -2 -15   1    3.31    6.30   1
  -2 -15   2   15.21    6.63   1
  -2 -15   3   77.26    7.38   1
  -2 -15   4    0.79    4.27   1
  -2 -15   5   -3.88    5.67   1
  -2 -15   6  -11.49    5.70   1
  -2 -15   7    8.01    5.60   1
  -2 -14 -19   -0.10    5.57   1
  -2 -14 -18   -1.21    5.21   1
  -2 -14 -17    2.40    5.61   1
  -2 -14 -16   -4.28    3.39   1
  -2 -14 -15   35.52    5.84   1
  -2 -14 -14   -3.61    3.80   1
  -2 -14 -13    6.00    5.39   1
  -2 -14 -12   -0.59    3.48   1
  -2 -14 -11   -1.49    4.39   1
  -2 -14 -10    2.40    5.39   1
  -2 -14  -9    4.49    3.69   1
  -2 -14  -8    5.02    4.39   1
  -2 -14  -7   -1.69    4.50   1
  -2 -14  -6    3.61    5.02   1
  -2 -14  -5    0.59    3.48   1
  -2 -14  -4    6.71    4.40   1
  -2 -14  -3   12.67    5.41   1
  -2 -14  -2    8.01    4.81   1
  -2 -14  -1    7.90    4.89   1
  -2 -14   0   -0.71    4.22   1
  -2 -14   1    9.92    4.54   1
  -2 -14   2   12.11    4.18   1
  -2 -14   3   -2.31    4.50   1
  -2 -14   4    9.00    4.32   1
  -2 -14   5   12.39    5.07   1
  -2 -14   6    8.29    5.30   1
  -2 -14   7    0.00    1.00   1
  -2 -14   8   10.82    5.40   1
  -2 -14   9    0.30    4.72   1
  -2 -14  10   15.60    4.03   1
  -2 -14  11   -3.50    3.29   1
  -2 -14  12    5.38    5.57   1
  -2 -14  13    6.50    5.10   1
  -2 -14  14    1.39    4.98   1
  -2 -14  15   49.00    8.26   1
  -2 -14  16    1.59    5.09   1
  -2 -14  17    3.20    5.41   1
  -2 -14  18    4.28    5.38   1
  -2 -14  19   11.90    6.62   1
  -2 -13 -25   -2.89    5.58   1
  -2 -13 -24   13.47    5.36   1
  -2 -13 -23   -4.41    5.59   1
  -2 -13 -22   -4.28    4.51   1
  -2 -13 -21   -0.10    5.16   1
  -2 -13 -20    4.58    5.31   1
  -2 -13 -19   -6.30    4.72   1
  -2 -13 -18    3.20    4.90   1
  -2 -13 -17    1.10    4.20   1
  -2 -13 -16    5.02    4.52   1
  -2 -13 -15   13.91    5.07   1
  -2 -13 -14    5.02    5.11   1
  -2 -13 -13    7.29    3.51   1
  -2 -13 -12   -6.40    4.10   1
  -2 -13 -11    3.80    4.29   1
  -2 -13 -10    1.90    2.82   1
  -2 -13  -9   32.83    5.04   1
  -2 -13  -8   -2.31    4.01   1
  -2 -13  -7    4.08    4.08   1
  -2 -13  -6    9.12    3.99   1
  -2 -13  -5   17.39    4.84   1
  -2 -13  -4   -0.40    4.08   1
  -2 -13  -3   -1.30    3.90   1
  -2 -13  -2    3.10    4.19   1
  -2 -13  -1    1.00    3.80   1
  -2 -13   0    6.92    3.79   1
  -2 -13   1    4.28    4.10   1
  -2 -13   2   -0.10    4.25   1
  -2 -13   3    4.71    2.91   1
  -2 -13   4   13.62    4.50   1
  -2 -13   5   14.06    4.58   1
  -2 -13   6   33.76    5.81   1
  -2 -13   7   26.01    5.41   1
  -2 -13   8    3.39    2.91   1
  -2 -13   9   28.62    5.67   1
  -2 -13  10   12.32    4.42   1
  -2 -13  11   17.22    4.90   1
  -2 -13  12    7.02    3.71   1
  -2 -13  13   -0.10    4.65   1
  -2 -13  14   -2.69    4.20   1
  -2 -13  15   14.82    5.47   1
  -2 -13  16    6.81    4.38   1
  -2 -13  17    0.00    1.00   1
  -2 -13  18   11.63    5.59   1
  -2 -13  19   24.30    6.01   1
  -2 -13  20   -0.71    4.62   1
  -2 -13  21   54.91    8.45   1
  -2 -13  22   -1.59    4.49   1
  -2 -13  23    9.42    5.40   1
  -2 -13  24   63.04    7.62   1
  -2 -13  25   -8.41    6.09   1
  -2 -13  26   -6.30    5.62   1
  -2 -12 -30   -1.39    4.79   1
  -2 -12 -29   10.30    5.71   1
  -2 -12 -28   -0.30    4.62   1
  -2 -12 -27   -4.88    4.77   1
  -2 -12 -26    3.80    5.19   1
  -2 -12 -25    6.50    4.69   1
  -2 -12 -24   19.36    3.87   1
  -2 -12 -23    8.58    4.39   1
  -2 -12 -22    5.38    4.87   1
  -2 -12 -21   -2.89    4.18   1
  -2 -12 -19    4.20    4.30   1
  -2 -12 -18    5.20    3.10   1
  -2 -12 -17    5.52    3.71   1
  -2 -12 -16    2.10    3.51   1
  -2 -12 -15   61.94    6.61   1
  -2 -12 -14   -4.20    3.49   1
  -2 -12 -13   -2.79    3.01   1
  -2 -12 -12    2.59    2.70   1
  -2 -12 -11   -0.10    3.44   1
  -2 -12 -10    5.71    3.68   1
  -2 -12  -9    4.00    3.28   1
  -2 -12  -8   23.43    4.36   1
  -2 -12  -7   10.69    3.60   1
  -2 -12  -6    1.21    3.81   1
  -2 -12  -5   20.88    4.20   1
  -2 -12  -4    4.58    2.61   1
  -2 -12  -3    0.30    3.31   1
  -2 -12  -2    3.88    3.70   1
  -2 -12  -1    8.12    3.59   1
  -2 -12   0  115.13   10.94   1
  -2 -12   1   28.30    4.89   1
  -2 -12   2    8.12    3.70   1
  -2 -12   3    4.58    3.89   1
  -2 -12   4    9.18    3.70   1
  -2 -12   5    1.00    3.50   1
  -2 -12   6   11.22    3.48   1
  -2 -12   7    8.88    3.99   1
  -2 -12   8   36.48    5.56   1
  -2 -12   9   47.33    5.50   1
  -2 -12  10   32.49    4.79   1
  -2 -12  11    0.10    3.95   1
  -2 -12  12    4.08    3.68   1
  -2 -12  13    4.08    3.88   1
  -2 -12  14    3.20    4.30   1
  -2 -12  15    5.90    3.79   1
  -2 -12  16   24.21    4.82   1
  -2 -12  17   12.67    3.42   1
  -2 -12  18   88.92    8.30   1
  -2 -12  19   30.14    5.93   1
  -2 -12  20   -1.39    4.89   1
  -2 -12  21   33.18    6.91   1
  -2 -12  22   27.14    5.73   1
  -2 -12  23   13.32    4.82   1
  -2 -12  24   14.67    4.06   1
  -2 -12  25    0.20    5.03   1
  -2 -12  26   -2.59    4.60   1
  -2 -12  27   11.83    5.50   1
  -2 -12  28    2.69    5.48   1
  -2 -12  29    0.71    5.53   1
  -2 -12  30    2.19    3.70   1
  -2 -12  31    2.10    4.49   1
  -2 -11 -34    5.90    5.01   1
  -2 -11 -33   -3.88    5.08   1
  -2 -11 -32   -1.21    3.32   1
  -2 -11 -31    9.12    5.32   1
  -2 -11 -30   32.49    5.93   1
  -2 -11 -29   17.31    5.08   1
  -2 -11 -28    3.10    4.29   1
  -2 -11 -27    3.80    3.90   1
  -2 -11 -26    3.20    4.01   1
  -2 -11 -25   -1.69    3.98   1
  -2 -11 -24    9.00    2.82   1
  -2 -11 -23    7.67    4.38   1
  -2 -11 -22    3.88    4.10   1
  -2 -11 -21   33.41    4.28   1
  -2 -11 -20   26.83    4.77   1
  -2 -11 -19    1.00    2.20   1
  -2 -11 -18   44.36    5.46   1
  -2 -11 -17    5.02    3.40   1
  -2 -11 -16    3.31    3.02   1
  -2 -11 -15   17.81    4.39   1
  -2 -11 -14    2.89    3.60   1
  -2 -11 -13    5.71    3.49   1
  -2 -11 -12  297.91   15.53   1
  -2 -11 -11    7.67    3.49   1
  -2 -11 -10   -1.39    2.78   1
  -2 -11  -9   13.91    3.43   1
  -2 -11  -8    1.80    3.00   1
  -2 -11  -7   27.77    4.32   1
  -2 -11  -6   15.29    2.74   1
  -2 -11  -5    2.50    3.10   1
  -2 -11  -4   12.89    3.37   1
  -2 -11  -3   41.09    4.36   1
  -2 -11  -2   26.94    3.84   1
  -2 -11  -1    2.40    3.10   1
  -2 -11   0    5.20    3.28   1
  -2 -11   1    4.08    2.79   1
  -2 -11   2   11.42    3.52   1
  -2 -11   3   65.77    5.51   1
  -2 -11   4    0.90    2.81   1
  -2 -11   5    3.10    2.89   1
  -2 -11   6    6.20    3.09   1
  -2 -11   7    1.80    1.90   1
  -2 -11   8    3.31    2.91   1
  -2 -11   9    0.00    1.00   1
  -2 -11  10    4.28    2.98   1
  -2 -11  11    5.11    3.21   1
  -2 -11  12    4.41    3.32   1
  -2 -11  13   -0.79    3.19   1
  -2 -11  14   25.81    4.37   1
  -2 -11  15   68.56    7.12   1
  -2 -11  16    4.71    3.91   1
  -2 -11  17   52.85    6.25   1
  -2 -11  18   28.09    4.45   1
  -2 -11  19    5.71    3.68   1
  -2 -11  20    6.20    3.88   1
  -2 -11  21   17.89    3.30   1
  -2 -11  22   -1.30    3.81   1
  -2 -11  23    9.92    4.09   1
  -2 -11  24   48.58    5.58   1
  -2 -11  25    8.01    4.19   1
  -2 -11  26   13.40    4.98   1
  -2 -11  27   15.13    5.13   1
  -2 -11  28    2.89    2.89   1
  -2 -11  29    7.51    4.82   1
  -2 -11  30   97.61    8.50   1
  -2 -11  31   11.83    6.12   1
  -2 -11  32    1.90    5.80   1
  -2 -11  33   19.62    5.85   1
  -2 -11  34   22.00    6.00   1
  -2 -10 -37    5.38    5.48   1
  -2 -10 -36   11.49    5.49   1
  -2 -10 -35   -4.88    4.77   1
  -2 -10 -34   -2.79    4.38   1
  -2 -10 -33    6.20    4.28   1
  -2 -10 -32   28.09    6.04   1
  -2 -10 -31    5.20    4.51   1
  -2 -10 -30   -0.10    3.95   1
  -2 -10 -29    1.80    4.10   1
  -2 -10 -28    2.79    4.01   1
  -2 -10 -27   15.52    4.18   1
  -2 -10 -26   19.62    4.52   1
  -2 -10 -25   18.06    4.59   1
  -2 -10 -24    2.79    4.48   1
  -2 -10 -23   32.15    5.22   1
  -2 -10 -22    9.99    3.79   1
  -2 -10 -21    9.67    2.99   1
  -2 -10 -20    8.88    3.40   1
  -2 -10 -19   -3.31    3.20   1
  -2 -10 -18   10.37    3.61   1
  -2 -10 -17   12.89    3.59   1
  -2 -10 -16   56.85    5.13   1
  -2 -10 -15   14.98    3.33   1
  -2 -10 -14  173.45   11.59   1
  -2 -10 -13   -1.30    2.80   1
  -2 -10 -12   19.71    3.37   1
  -2 -10 -11    4.20    2.79   1
  -2 -10 -10    6.40    2.68   1
  -2 -10  -9  248.69   16.40   1
  -2 -10  -8   19.10    3.67   1
  -2 -10  -7    1.30    2.39   1
  -2 -10  -6   62.73    5.23   1
  -2 -10  -5   -2.31    2.61   1
  -2 -10  -4    6.92    2.21   1
  -2 -10  -3   48.16    4.30   1
  -2 -10  -2   50.84    4.56   1
  -2 -10  -1    0.10    1.92   1
  -2 -10   0  191.82   10.80   1
  -2 -10   1   27.04    3.95   1
  -2 -10   2    1.00    1.90   1
  -2 -10   3   64.64    5.15   1
  -2 -10   4   15.68    3.33   1
  -2 -10   5    2.99    2.39   1
  -2 -10   6    7.90    2.98   1
  -2 -10   7   12.53    2.83   1
  -2 -10   8   28.94    3.87   1
  -2 -10   9  114.06    7.90   1
  -2 -10  10   41.34    3.86   1
  -2 -10  11    6.00    2.30   1
  -2 -10  12   29.27    4.22   1
  -2 -10  13   -1.99    2.99   1
  -2 -10  14   20.07    4.12   1
  -2 -10  15   22.66    3.24   1
  -2 -10  16   22.28    4.34   1
  -2 -10  17   13.03    3.68   1
  -2 -10  18    3.69    3.00   1
  -2 -10  19   10.37    3.86   1
  -2 -10  20    6.92    2.89   1
  -2 -10  21    4.80    3.50   1
  -2 -10  22    5.38    3.02   1
  -2 -10  23    4.00    3.52   1
  -2 -10  24   27.25    5.12   1
  -2 -10  25   18.58    4.22   1
  -2 -10  26   22.28    4.72   1
  -2 -10  27   72.93    8.54   1
  -2 -10  28   11.97    3.39   1
  -2 -10  29   -1.49    4.39   1
  -2 -10  30   19.54    4.86   1
  -2 -10  31    5.29    4.42   1
  -2 -10  32   18.58    3.88   1
  -2 -10  33   28.94    5.06   1
  -2 -10  34   -3.80    5.42   1
  -2 -10  35    4.00    5.80   1
  -2 -10  36   -2.69    5.18   1
  -2 -10  37    6.60    5.60   1
  -2 -10  38    3.10    5.21   1
  -2  -9 -40    1.21    5.21   1
  -2  -9 -39   13.62    5.24   1
  -2  -9 -38    0.59    4.87   1
  -2  -9 -37    1.30    4.99   1
  -2  -9 -36    7.62    4.91   1
  -2  -9 -35    1.90    4.61   1
  -2  -9 -34    8.18    4.52   1
  -2  -9 -33   26.21    5.12   1
  -2  -9 -32    3.61    2.62   1
  -2  -9 -31   -1.10    3.91   1
  -2  -9 -30    6.00    3.58   1
  -2  -9 -29    3.39    3.20   1
  -2  -9 -28   -0.90    3.71   1
  -2  -9 -27   28.09    4.45   1
  -2  -9 -26   -1.90    3.31   1
  -2  -9 -25   11.83    3.03   1
  -2  -9 -24    9.00    3.78   1
  -2  -9 -23    3.50    3.22   1
  -2  -9 -22   -0.10    2.33   1
  -2  -9 -21   13.62    3.47   1
  -2  -9 -20    7.18    2.79   1
  -2  -9 -19   11.90    2.97   1
  -2  -9 -18    0.50    2.31   1
  -2  -9 -17    5.52    2.73   1
  -2  -9 -16   45.16    3.90   1
  -2  -9 -15  647.19   26.97   1
  -2  -9 -14   31.02    4.01   1
  -2  -9 -13   13.76    2.67   1
  -2  -9 -12   24.21    3.44   1
  -2  -9 -11    1.39    2.01   1
  -2  -9 -10    3.80    2.50   1
  -2  -9  -9  102.41    7.29   1
  -2  -9  -8   99.60    7.98   1
  -2  -9  -7   -0.79    2.49   1
  -2  -9  -6   43.03    4.46   1
  -2  -9  -5    2.19    2.19   1
  -2  -9  -4    5.11    2.21   1
  -2  -9  -3  321.84   14.71   1
  -2  -9  -2   32.04    3.17   1
  -2  -9  -1    2.31    2.01   1
  -2  -9   0  132.48    7.14   1
  -2  -9   1    0.30    2.11   1
  -2  -9   2   16.32    2.67   1
  -2  -9   3  146.17    6.29   1
  -2  -9   4   15.68    2.69   1
  -2  -9   5    1.49    2.00   1
  -2  -9   6    1.21    2.20   1
  -2  -9   7   -0.10    2.23   1
  -2  -9   8    3.69    2.11   1
  -2  -9   9    8.41    2.61   1
  -2  -9  10   10.18    2.68   1
  -2  -9  11   -2.19    2.60   1
  -2  -9  12   -1.21    2.31   1
  -2  -9  13    1.99    2.20   1
  -2  -9  14    1.21    2.31   1
  -2  -9  15    2.50    2.69   1
  -2  -9  16   11.29    2.49   1
  -2  -9  17   11.83    3.23   1
  -2  -9  18   22.75    3.63   1
  -2  -9  19    7.78    2.90   1
  -2  -9  20  114.28    8.98   1
  -2  -9  21  358.34   17.42   1
  -2  -9  22   45.02    4.56   1
  -2  -9  23    5.29    2.90   1
  -2  -9  24   11.63    3.61   1
  -2  -9  25    1.30    3.01   1
  -2  -9  26    0.30    2.61   1
  -2  -9  27    2.99    3.49   1
  -2  -9  28   11.09    3.80   1
  -2  -9  29   19.89    3.57   1
  -2  -9  30    2.50    3.70   1
  -2  -9  31    5.11    4.20   1
  -2  -9  32    7.02    5.51   1
  -2  -9  33   14.36    4.93   1
  -2  -9  34   10.63    3.13   1
  -2  -9  36    6.50    5.30   1
  -2  -9  37   -0.59    5.07   1
  -2  -9  38    0.40    4.28   1
  -2  -9  39    4.08    5.58   1
  -2  -9  40    4.80    5.21   1
  -2  -8 -42    3.31    5.10   1
  -2  -8 -41   54.91    6.82   1
  -2  -8 -40    2.10    4.81   1
  -2  -8 -39    1.30    4.40   1
  -2  -8 -38    5.52    4.61   1
  -2  -8 -37    7.62    4.42   1
  -2  -8 -36   15.92    4.71   1
  -2  -8 -35   -3.80    2.81   1
  -2  -8 -34    7.18    3.59   1
  -2  -8 -33   17.98    3.82   1
  -2  -8 -32   -3.61    3.19   1
  -2  -8 -31    5.02    3.23   1
  -2  -8 -30   -1.00    2.90   1
  -2  -8 -29    0.50    3.62   1
  -2  -8 -28   10.50    3.63   1
  -2  -8 -27  244.92   15.02   1
  -2  -8 -26   16.97    4.28   1
  -2  -8 -25   -0.40    3.98   1
  -2  -8 -24    1.99    2.90   1
  -2  -8 -23    1.49    2.49   1
  -2  -8 -22   10.50    2.27   1
  -2  -8 -21  126.34    8.32   1
  -2  -8 -20   25.40    3.33   1
  -2  -8 -19   30.25    4.07   1
  -2  -8 -18  114.92    7.08   1
  -2  -8 -17  182.79    8.65   1
  -2  -8 -16    6.50    2.40   1
  -2  -8 -15   45.29    4.04   1
  -2  -8 -14    3.69    2.30   1
  -2  -8 -13   -0.50    2.31   1
  -2  -8 -12   32.49    3.19   1
  -2  -8 -11    6.60    2.11   1
  -2  -8 -10    6.00    2.40   1
  -2  -8  -9  299.98   15.59   1
  -2  -8  -8    1.90    2.10   1
  -2  -8  -7    5.62    2.42   1
  -2  -8  -6   15.13    2.49   1
  -2  -8  -5   19.10    2.62   1
  -2  -8  -4   22.00    3.00   1
  -2  -8  -3  167.96   10.63   1
  -2  -8  -2    7.02    2.23   1
  -2  -8  -1    4.88    2.21   1
  -2  -8   0   85.38    6.47   1
  -2  -8   1    0.59    1.89   1
  -2  -8   2    0.40    1.89   1
  -2  -8   3   17.72    2.61   1
  -2  -8   4   42.25    3.25   1
  -2  -8   5   19.80    2.40   1
  -2  -8   6  128.37    7.25   1
  -2  -8   7    9.49    2.22   1
  -2  -8   8    0.40    1.50   1
  -2  -8   9    2.19    1.89   1
  -2  -8  10   19.36    2.82   1
  -2  -8  11    1.49    2.00   1
  -2  -8  12   78.15    4.77   1
  -2  -8  13   22.56    2.66   1
  -2  -8  14    0.30    2.11   1
  -2  -8  15   50.84    4.14   1
  -2  -8  16   29.05    3.34   1
  -2  -8  17   -1.00    2.40   1
  -2  -8  18   62.88    4.92   1
  -2  -8  19   38.07    3.95   1
  -2  -8  20   13.69    3.03   1
  -2  -8  21  181.17    9.69   1
  -2  -8  22   35.52    4.05   1
  -2  -8  23   39.56    4.65   1
  -2  -8  24   34.22    4.68   1
  -2  -8  25   43.16    4.20   1
  -2  -8  26    2.59    2.80   1
  -2  -8  27   28.52    4.70   1
  -2  -8  28    1.30    3.01   1
  -2  -8  29    2.99    3.29   1
  -2  -8  30    3.10    3.10   1
  -2  -8  31    1.90    2.59   1
  -2  -8  32   -4.80    3.20   1
  -2  -8  33   19.62    4.43   1
  -2  -8  34    7.29    5.62   1
  -2  -8  35   -0.71    5.02   1
  -2  -8  36   47.06    6.72   1
  -2  -8  37    5.29    4.78   1
  -2  -8  38   -0.71    4.02   1
  -2  -8  39   11.83    5.23   1
  -2  -8  40   -1.80    5.31   1
  -2  -8  41    0.59    4.87   1
  -2  -8  42   20.61    5.99   1
  -2  -8  43    4.20    6.40   1
  -2  -7 -44    0.90    5.11   1
  -2  -7 -43   -3.39    4.78   1
  -2  -7 -42   19.89    5.80   1
  -2  -7 -41   16.16    5.31   1
  -2  -7 -40   19.01    5.49   1
  -2  -7 -39   35.16    6.52   1
  -2  -7 -38    2.50    3.98   1
  -2  -7 -37    3.50    3.89   1
  -2  -7 -36    3.31    4.11   1
  -2  -7 -35   -2.89    3.30   1
  -2  -7 -34   19.18    4.56   1
  -2  -7 -33  136.89    8.66   1
  -2  -7 -32   14.82    4.00   1
  -2  -7 -31    3.39    2.80   1
  -2  -7 -30   31.25    4.25   1
  -2  -7 -29   32.04    4.98   1
  -2  -7 -28   20.07    3.67   1
  -2  -7 -27    6.60    2.98   1
  -2  -7 -26    9.67    2.61   1
  -2  -7 -25    3.10    2.50   1
  -2  -7 -24   45.16    4.44   1
  -2  -7 -23    0.40    2.39   1
  -2  -7 -22    8.41    2.61   1
  -2  -7 -21   33.06    4.60   1
  -2  -7 -20   25.40    3.83   1
  -2  -7 -19    4.80    2.41   1
  -2  -7 -17   -0.40    2.09   1
  -2  -7 -16   10.37    2.51   1
  -2  -7 -15   36.48    3.26   1
  -2  -7 -14    3.31    1.89   1
  -2  -7 -13   51.84    4.03   1
  -2  -7 -12  234.09   11.93   1
  -2  -7 -11   46.79    3.69   1
  -2  -7 -10   10.11    2.10   1
  -2  -7  -9    2.40    1.80   1
  -2  -7  -8   15.68    2.53   1
  -2  -7  -7   19.27    2.63   1
  -2  -7  -6   78.85    4.62   1
  -2  -7  -5   31.14    3.24   1
  -2  -7  -4    6.40    1.82   1
  -2  -7  -3    2.50    1.80   1
  -2  -7  -2   18.32    2.23   1
  -2  -7  -1    8.53    1.99   1
  -2  -7   0   69.22    5.16   1
  -2  -7   1    3.10    1.58   1
  -2  -7   2   11.09    2.00   1
  -2  -7   3  325.44   15.15   1
  -2  -7   4   13.69    1.92   1
  -2  -7   5   14.29    2.12   1
  -2  -7   6   17.81    2.28   1
  -2  -7   7    1.10    1.60   1
  -2  -7   8    4.88    1.81   1
  -2  -7   9    1.21    1.30   1
  -2  -7  10    7.62    1.88   1
  -2  -7  11    2.19    1.69   1
  -2  -7  12   66.75    4.74   1
  -2  -7  13    7.40    1.69   1
  -2  -7  14   53.14    4.23   1
  -2  -7  15   52.85    3.93   1
  -2  -7  16   51.41    4.73   1
  -2  -7  17   52.85    4.36   1
  -2  -7  18  262.76   15.24   1
  -2  -7  19   21.62    2.88   1
  -2  -7  20   15.52    2.60   1
  -2  -7  21    5.90    2.38   1
  -2  -7  23    9.42    2.58   1
  -2  -7  24  374.42   16.64   1
  -2  -7  25    3.39    2.39   1
  -2  -7  26   -1.30    2.90   1
  -2  -7  27    1.99    2.00   1
  -2  -7  28    4.71    2.99   1
  -2  -7  29   -0.90    2.81   1
  -2  -7  30   56.85    4.83   1
  -2  -7  31   34.22    4.56   1
  -2  -7  32    3.80    3.39   1
  -2  -7  33    2.99    3.49   1
  -2  -7  34    3.39    3.61   1
  -2  -7  35   44.22    5.32   1
  -2  -7  36   46.24    6.12   1
  -2  -7  37    9.42    6.20   1
  -2  -7  38   -1.90    4.61   1
  -2  -7  39   -1.69    4.08   1
  -2  -7  40   21.81    4.86   1
  -2  -7  41    3.31    5.71   1
  -2  -7  42    2.31    4.71   1
  -2  -7  43   -1.99    5.39   1
  -2  -7  44    4.00    4.40   1
  -2  -6 -45   -1.00    4.80   1
  -2  -6 -44    1.21    4.31   1
  -2  -6 -43   -3.10    4.19   1
  -2  -6 -42   40.45    6.23   1
  -2  -6 -41   -5.11    4.02   1
  -2  -6 -40   12.32    4.63   1
  -2  -6 -39   -1.80    4.10   1
  -2  -6 -38   13.62    3.47   1
  -2  -6 -37   28.62    4.92   1
  -2  -6 -36  124.10    7.58   1
  -2  -6 -35   42.77    4.97   1
  -2  -6 -34    8.41    3.48   1
  -2  -6 -33   24.01    3.82   1
  -2  -6 -32   15.60    3.63   1
  -2  -6 -31    5.02    3.23   1
  -2  -6 -30    2.50    2.50   1
  -2  -6 -29   18.58    3.88   1
  -2  -6 -28   29.59    4.03   1
  -2  -6 -27   11.42    2.70   1
  -2  -6 -26   -1.80    2.20   1
  -2  -6 -25    8.58    2.40   1
  -2  -6 -24   96.24    7.26   1
  -2  -6 -23   25.60    3.14   1
  -2  -6 -22    3.10    2.18   1
  -2  -6 -21   34.46    3.29   1
  -2  -6 -20    3.80    2.18   1
  -2  -6 -19    0.10    1.82   1
  -2  -6 -18    4.49    2.29   1
  -2  -6 -17    0.30    1.80   1
  -2  -6 -16    6.40    2.18   1
  -2  -6 -15  171.61    9.69   1
  -2  -6 -14   11.42    2.30   1
  -2  -6 -13   -1.39    1.30   1
  -2  -6 -12    8.58    1.82   1
  -2  -6 -11    4.20    1.80   1
  -2  -6 -10    4.80    1.62   1
  -2  -6  -9   25.81    2.64   1
  -2  -6  -8   94.67    6.42   1
  -2  -6  -7    0.00    1.00   1
  -2  -6  -6    2.31    1.09   1
  -2  -6  -5   13.91    1.79   1
  -2  -6  -4    3.39    1.58   1
  -2  -6  -3    1.49    1.29   1
  -2  -6  -2    0.20    1.41   1
  -2  -6  -1   12.18    1.88   1
  -2  -6   0  153.51    7.93   1
  -2  -6   1   58.06    3.51   1
  -2  -6   2   14.21    2.04   1
  -2  -6   3  214.33   11.42   1
  -2  -6   4   16.08    2.09   1
  -2  -6   5   23.62    2.14   1
  -2  -6   6  730.62   31.35   1
  -2  -6   7   13.99    2.17   1
  -2  -6   8    6.92    1.89   1
  -2  -6   9   15.92    2.00   1
  -2  -6  10   12.82    2.00   1
  -2  -6  11   57.76    4.10   1
  -2  -6  12   30.03    3.07   1
  -2  -6  13   79.57    5.00   1
  -2  -6  14   32.72    3.32   1
  -2  -6  15  258.89   13.52   1
  -2  -6  16    7.08    2.07   1
  -2  -6  17   79.03    4.45   1
  -2  -6  18  486.64   20.30   1
  -2  -6  19  105.68    6.37   1
  -2  -6  20    4.08    2.50   1
  -2  -6  21    6.20    2.39   1
  -2  -6  22   42.12    3.50   1
  -2  -6  23   15.29    2.82   1
  -2  -6  24  155.25   10.96   1
  -2  -6  25   10.63    2.48   1
  -2  -6  26   15.21    2.73   1
  -2  -6  27    4.28    2.61   1
  -2  -6  28    4.41    2.52   1
  -2  -6  29    8.58    2.87   1
  -2  -6  30   33.41    4.05   1
  -2  -6  31    9.49    3.08   1
  -2  -6  32   22.66    4.00   1
  -2  -6  33    0.59    3.19   1
  -2  -6  34    7.18    3.59   1
  -2  -6  35    3.80    3.39   1
  -2  -6  36   23.04    4.13   1
  -2  -6  37    6.60    3.70   1
  -2  -6  38    8.29    5.59   1
  -2  -6  39    1.59    4.28   1
  -2  -6  40    1.69    4.99   1
  -2  -6  41    0.59    2.99   1
  -2  -6  42   33.29    6.69   1
  -2  -6  43   -4.00    4.48   1
  -2  -6  44    2.19    5.09   1
  -2  -6  45   20.16    5.12   1
  -2  -6  46    1.80    5.09   1
  -2  -5 -47   -1.30    3.81   1
  -2  -5 -46   -1.30    4.61   1
  -2  -5 -45    0.40    4.38   1
  -2  -5 -44   17.39    5.92   1
  -2  -5 -43   32.60    5.94   1
  -2  -5 -42   23.33    4.73   1
  -2  -5 -41    8.41    3.71   1
  -2  -5 -40   -1.49    3.78   1
  -2  -5 -39   58.98    6.60   1
  -2  -5 -38    3.61    3.80   1
  -2  -5 -37    4.58    3.08   1
  -2  -5 -36   50.84    5.13   1
  -2  -5 -35   43.69    5.42   1
  -2  -5 -34    7.78    3.29   1
  -2  -5 -33   79.39    6.77   1
  -2  -5 -32    3.50    2.21   1
  -2  -5 -31   15.37    3.06   1
  -2  -5 -30  199.37   10.73   1
  -2  -5 -29   -0.10    2.63   1
  -2  -5 -28   12.32    2.88   1
  -2  -5 -27   26.63    3.92   1
  -2  -5 -26    6.71    2.18   1
  -2  -5 -25    0.59    1.89   1
  -2  -5 -24   -1.30    1.89   1
  -2  -5 -23    0.50    1.21   1
  -2  -5 -23    1.00    1.10   1
  -2  -5 -22    2.40    0.90   1
  -2  -5 -22    1.59    2.09   1
  -2  -5 -21   58.83    3.22   1
  -2  -5 -21   42.90    4.45   1
  -2  -5 -20    0.79    0.80   1
  -2  -5 -20   -1.00    1.80   1
  -2  -5 -19    4.41    0.88   1
  -2  -5 -19    5.20    1.92   1
  -2  -5 -18   93.51    6.58   1
  -2  -5 -18  112.57    4.88   1
  -2  -5 -17   13.91    2.09   1
  -2  -5 -17   15.37    1.33   1
  -2  -5 -16    1.69    0.60   1
  -2  -5 -16    1.49    1.49   1
  -2  -5 -15   63.84    2.88   1
  -2  -5 -15   52.13    3.47   1
  -2  -5 -14    1.21    1.30   1
  -2  -5 -14    2.31    0.61   1
  -2  -5 -13    8.82    2.02   1
  -2  -5 -13   11.42    0.81   1
  -2  -5 -12  784.56   43.14   1
  -2  -5 -10    9.30    1.89   1
  -2  -5  -8   34.22    2.92   1
  -2  -5  -7   18.06    1.87   1
  -2  -5  -6  261.15   11.96   1
  -2  -5  -5    6.20    1.20   1
  -2  -5  -4   23.81    2.15   1
  -2  -5  -3  115.13    5.58   1
  -2  -5  -2   41.99    2.72   1
  -2  -5  -1   30.80    2.55   1
  -2  -5   0  566.92   20.95   1
  -2  -5   1   17.98    1.78   1
  -2  -5   2   14.21    1.73   1
  -2  -5   3  230.43   10.93   1
  -2  -5   4    1.00    1.10   1
  -2  -5   5   19.18    1.93   1
  -2  -5   6  334.52   15.00   1
  -2  -5   7   53.14    3.50   1
  -2  -5   8   22.37    2.08   1
  -2  -5   9  208.51   10.69   1
  -2  -5  10    1.69    1.30   1
  -2  -5  11   24.50    2.18   1
  -2  -5  12  294.12   12.35   1
  -2  -5  13   64.16    3.84   1
  -2  -5  14   25.20    2.31   1
  -2  -5  15   56.55    3.91   1
  -2  -5  16   42.38    3.12   1
  -2  -5  17   13.10    1.88   1
  -2  -5  18   45.56    4.18   1
  -2  -5  19   16.73    2.37   1
  -2  -5  21  418.61   17.60   1
  -2  -5  22   31.25    3.02   1
  -2  -5  23    3.88    2.29   1
  -2  -5  24    7.29    2.59   1
  -2  -5  25   10.11    2.48   1
  -2  -5  26   40.96    4.10   1
  -2  -5  27   13.18    2.90   1
  -2  -5  28   50.84    4.56   1
  -2  -5  28   56.85    5.88   1
  -2  -5  29   23.04    3.36   1
  -2  -5  29   17.47    2.59   1
  -2  -5  30  227.41   15.08   1
  -2  -5  30  201.07   13.90   1
  -2  -5  31   56.85    5.43   1
  -2  -5  31   43.30    4.47   1
  -2  -5  32    9.00    3.30   1
  -2  -5  32   17.31    3.00   1
  -2  -5  33   11.29    3.29   1
  -2  -5  33   11.22    3.42   1
  -2  -5  34   47.61    5.93   1
  -2  -5  34   61.94    5.35   1
  -2  -5  35    0.40    3.09   1
  -2  -5  35    1.90    2.10   1
  -2  -5  36   84.09    6.05   1
  -2  -5  36  128.60    8.16   1
  -2  -5  37    9.00    3.72   1
  -2  -5  37    9.18    3.27   1
  -2  -5  38    8.58    4.10   1
  -2  -5  38    4.71    3.82   1
  -2  -5  39    7.90    4.72   1
  -2  -5  39    6.81    3.91   1
  -2  -5  40   23.33    6.09   1
  -2  -5  40    9.12    4.23   1
  -2  -5  41    5.02    3.99   1
  -2  -5  41    8.58    3.22   1
  -2  -5  42    4.00    4.32   1
  -2  -5  42   10.11    4.13   1
  -2  -5  43    2.31    4.71   1
  -2  -5  43    8.88    3.40   1
  -2  -5  44    3.88    4.57   1
  -2  -5  45   -6.50    5.41   1
  -2  -5  46  -10.11    5.79   1
  -2  -5  46    6.20    4.98   1
  -2  -5  47   11.42    4.80   1
  -2  -4 -48   -1.99    4.68   1
  -2  -4 -47   -2.19    4.50   1
  -2  -4 -46   -1.21    4.51   1
  -2  -4 -45   69.72    7.85   1
  -2  -4 -44   -1.99    4.29   1
  -2  -4 -43    9.30    4.51   1
  -2  -4 -42   38.44    5.95   1
  -2  -4 -41   -2.31    3.80   1
  -2  -4 -40    5.20    3.42   1
  -2  -4 -39    2.31    3.62   1
  -2  -4 -38    0.79    3.08   1
  -2  -4 -37   -1.80    2.79   1
  -2  -4 -36   57.15    5.29   1
  -2  -4 -35   38.94    4.37   1
  -2  -4 -34    0.50    2.71   1
  -2  -4 -33  151.78   10.35   1
  -2  -4 -32   58.52    5.66   1
  -2  -4 -31   38.94    4.62   1
  -2  -4 -30   17.14    2.40   1
  -2  -4 -29    1.39    1.60   1
  -2  -4 -28    0.30    1.90   1
  -2  -4 -28    1.10    1.30   1
  -2  -4 -27  124.99    7.83   1
  -2  -4 -27  132.25    7.59   1
  -2  -4 -26    2.10    1.91   1
  -2  -4 -25    1.99    1.38   1
  -2  -4 -25    1.30    1.80   1
  -2  -4 -24   87.61    5.80   1
  -2  -4 -24   82.81    4.55   1
  -2  -4 -23   -0.20    1.61   1
  -2  -4 -23   -0.90    1.31   1
  -2  -4 -22    1.69    1.51   1
  -2  -4 -22    1.80    1.29   1
  -2  -4 -21   12.67    2.28   1
  -2  -4 -21   11.90    1.59   1
  -2  -4 -20    0.79    1.50   1
  -2  -4 -20    0.10    0.91   1
  -2  -4 -19   14.52    1.52   1
  -2  -4 -19   10.82    1.91   1
  -2  -4 -18    2.31    0.91   1
  -2  -4 -18    1.90    1.60   1
  -2  -4 -17    5.62    1.00   1
  -2  -4 -17    2.50    1.39   1
  -2  -4 -16   -0.30    1.21   1
  -2  -4 -16    0.59    0.69   1
  -2  -4 -15   34.93    3.66   1
  -2  -4 -15   45.43    2.56   1
  -2  -4 -14    3.61    1.52   1
  -2  -4 -14    5.52    0.80   1
  -2  -4 -13   12.60    1.99   1
  -2  -4 -13   11.49    1.02   1
  -2  -4 -12   35.16    2.73   1
  -2  -4 -11   20.34    1.89   1
  -2  -4 -10    1.00    0.80   1
  -2  -4 -10    0.40    0.50   1
  -2  -4  -9  130.64    5.03   1
  -2  -4  -8    2.89    0.61   1
  -2  -4  -8    1.00    1.10   1
  -2  -4  -7   14.67    1.76   1
  -2  -4  -6  356.83   17.38   1
  -2  -4  -5    6.20    1.29   1
  -2  -4  -4   36.36    2.29   1
  -2  -4  -3  567.87   23.83   1
  -2  -4  -2   64.80    3.22   1
  -2  -4  -1    0.00    1.00   1
  -2  -4   0  454.97   19.20   1
  -2  -4   1   50.27    3.12   1
  -2  -4   2   11.29    1.48   1
  -2  -4   3   95.06    5.85   1
  -2  -4   4    5.90    1.31   1
  -2  -4   5   15.13    1.71   1
  -2  -4   6    7.29    1.30   1
  -2  -4   7   10.11    1.53   1
  -2  -4   8    8.12    1.42   1
  -2  -4   9   51.27    2.86   1
  -2  -4  10    7.29    1.40   1
  -2  -4  11   40.20    2.66   1
  -2  -4  12   47.20    3.02   1
  -2  -4  13   13.99    1.72   1
  -2  -4  14    0.10    0.91   1
  -2  -4  15   43.69    3.04   1
  -2  -4  16    6.00    1.18   1
  -2  -4  17    1.69    1.79   1
  -2  -4  18    0.71    1.41   1
  -2  -4  19   -0.59    1.59   1
  -2  -4  20    2.89    1.60   1
  -2  -4  21   76.04    4.88   1
  -2  -4  21   55.35    3.57   1
  -2  -4  22   19.98    2.41   1
  -2  -4  22   15.21    2.11   1
  -2  -4  23    1.39    2.10   1
  -2  -4  23   -1.10    1.91   1
  -2  -4  24   41.34    3.47   1
  -2  -4  24   45.97    3.93   1
  -2  -4  25   16.40    3.08   1
  -2  -4  25   19.80    2.94   1
  -2  -4  26   43.56    3.96   1
  -2  -4  26   47.75    3.73   1
  -2  -4  27  222.01   12.22   1
  -2  -4  27  301.02   13.88   1
  -2  -4  28    9.49    2.09   1
  -2  -4  28    8.01    2.72   1
  -2  -4  29    8.41    2.03   1
  -2  -4  29    2.89    1.90   1
  -2  -4  30  104.24    8.17   1
  -2  -4  30  148.35    8.04   1
  -2  -4  31    3.20    2.61   1
  -2  -4  31    0.59    1.79   1
  -2  -4  32   40.96    5.63   1
  -2  -4  32   28.30    3.83   1
  -2  -4  33  344.10   15.95   1
  -2  -4  33  255.68   19.51   1
  -2  -4  34    2.79    3.01   1
  -2  -4  34    4.49    3.10   1
  -2  -4  35    1.39    3.19   1
  -2  -4  35   -1.90    3.01   1
  -2  -4  36   -0.10    3.14   1
  -2  -4  36   -2.59    3.19   1
  -2  -4  37   26.83    4.35   1
  -2  -4  37   24.40    4.64   1
  -2  -4  38   19.27    4.21   1
  -2  -4  38   16.56    4.40   1
  -2  -4  39   -1.99    3.50   1
  -2  -4  39   -4.00    3.80   1
  -2  -4  40  149.57   10.03   1
  -2  -4  41    4.20    4.51   1
  -2  -4  42    6.71    4.71   1
  -2  -4  42   13.62    4.43   1
  -2  -4  43    3.69    3.00   1
  -2  -4  43    1.69    2.99   1
  -2  -4  44   -2.69    3.71   1
  -2  -4  44    0.30    4.02   1
  -2  -4  45    6.71    5.28   1
  -2  -4  45    6.00    3.58   1
  -2  -4  46   12.11    5.50   1
  -2  -4  46    5.02    5.33   1
  -2  -4  47    0.90    3.00   1
  -2  -4  48   -3.50    5.09   1
  -2  -3 -48    0.90    4.81   1
  -2  -3 -47    3.88    4.57   1
  -2  -3 -42   20.43    3.16   1
  -2  -3 -41    3.20    4.01   1
  -2  -3 -38    9.61    2.60   1
  -2  -3 -36    2.99    2.21   1
  -2  -3 -35   42.77    4.19   1
  -2  -3 -34   -0.30    2.01   1
  -2  -3 -33   64.32    5.45   1
  -2  -3 -32    1.90    2.21   1
  -2  -3 -32    1.00    2.40   1
  -2  -3 -31    2.69    2.59   1
  -2  -3 -30    4.00    2.00   1
  -2  -3 -29   -0.10    2.02   1
  -2  -3 -29    0.71    1.71   1
  -2  -3 -28    4.08    1.62   1
  -2  -3 -28    0.20    1.91   1
  -2  -3 -27    4.20    2.09   1
  -2  -3 -27    3.80    2.11   1
  -2  -3 -26    5.38    1.81   1
  -2  -3 -26    3.20    1.72   1
  -2  -3 -25   16.73    2.54   1
  -2  -3 -25   26.83    2.80   1
  -2  -3 -24   58.68    3.83   1
  -2  -3 -24   51.84    4.75   1
  -2  -3 -23   -1.10    1.51   1
  -2  -3 -23    5.11    1.22   1
  -2  -3 -22    3.80    1.60   1
  -2  -3 -22    4.41    1.39   1
  -2  -3 -21   39.44    2.76   1
  -2  -3 -21   37.70    4.05   1
  -2  -3 -20   12.53    1.49   1
  -2  -3 -20    9.61    1.80   1
  -2  -3 -19    1.21    1.30   1
  -2  -3 -19    1.49    1.00   1
  -2  -3 -19    0.71    0.50   1
  -2  -3 -18 1011.88   36.90   1
  -2  -3 -18  946.79   34.46   1
  -2  -3 -18  876.16   43.22   1
  -2  -3 -17    5.71    1.29   1
  -2  -3 -17    6.50    1.22   1
  -2  -3 -16    2.10    0.70   1
  -2  -3 -16    3.39    0.81   1
  -2  -3 -16    2.69    1.31   1
  -2  -3 -15  168.48    9.35   1
  -2  -3 -15  157.25    8.03   1
  -2  -3 -14    1.21    0.70   1
  -2  -3 -14    2.40    0.99   1
  -2  -3 -14    1.21    0.59   1
  -2  -3 -13    1.30    1.09   1
  -2  -3 -13    0.90    0.70   1
  -2  -3 -12  292.41   10.94   1
  -2  -3 -12  262.12   11.33   1
  -2  -3 -11    0.50    0.50   1
  -2  -3 -11    0.20    0.91   1
  -2  -3 -10    0.00    1.00   1
  -2  -3 -10    0.40    0.79   1
  -2  -3  -9   30.25    2.31   1
  -2  -3  -9   34.11    1.75   1
  -2  -3  -8    3.88    0.71   1
  -2  -3  -8    2.59    1.00   1
  -2  -3  -7    2.50    0.79   1
  -2  -3  -7    4.08    0.61   1
  -2  -3  -6   10.89    0.92   1
  -2  -3  -6    6.81    0.89   1
  -2  -3  -5   32.15    2.27   1
  -2  -3  -4  254.08   13.71   1
  -2  -3  -4  375.97   13.57   1
  -2  -3  -3  884.47   47.58   1
  -2  -3  -2  394.02   20.25   1
  -2  -3  -1  296.53   15.84   1
  -2  -3   0    1.69    0.81   1
  -2  -3   1  767.84   29.37   1
  -2  -3   2    6.10    0.89   1
  -2  -3   3 1073.87   43.91   1
  -2  -3   4   72.42    3.40   1
  -2  -3   5   95.84    3.92   1
  -2  -3   6    7.18    1.02   1
  -2  -3   7    4.88    1.11   1
  -2  -3   8    1.30    0.89   1
  -2  -3   9   11.90    1.52   1
  -2  -3  10   16.00    1.68   1
  -2  -3  11   11.09    1.33   1
  -2  -3  12   55.06    3.56   1
  -2  -3  13    1.39    0.99   1
  -2  -3  14    6.50    1.38   1
  -2  -3  15  454.97   23.46   1
  -2  -3  16   21.53    2.23   1
  -2  -3  17   11.09    2.00   1
  -2  -3  17   19.01    2.01   1
  -2  -3  18   -0.50    1.41   1
  -2  -3  18   -0.10    0.81   1
  -2  -3  19   17.31    1.91   1
  -2  -3  20   18.66    2.59   1
  -2  -3  20   29.27    2.81   1
  -2  -3  21  422.71   15.63   1
  -2  -3  21  348.57   17.55   1
  -2  -3  22   50.13    3.54   1
  -2  -3  22   55.95    4.34   1
  -2  -3  23   11.02    1.99   1
  -2  -3  23   17.31    1.83   1
  -2  -3  24   -1.69    1.59   1
  -2  -3  24    1.39    1.20   1
  -2  -3  25   81.72    5.24   1
  -2  -3  25   59.44    4.63   1
  -2  -3  26   -2.59    1.90   1
  -2  -3  26    2.79    2.10   1
  -2  -3  27   54.17    3.83   1
  -2  -3  27   30.03    3.51   1
  -2  -3  28    0.40    2.39   1
  -2  -3  28    0.00    1.00   1
  -2  -3  29   13.10    2.68   1
  -2  -3  29    8.82    2.61   1
  -2  -3  30   33.18    3.80   1
  -2  -3  30   33.76    3.25   1
  -2  -3  31  139.48    9.45   1
  -2  -3  31  144.48    9.38   1
  -2  -3  32    0.50    2.61   1
  -2  -3  32    7.62    2.98   1
  -2  -3  33   -2.50    2.69   1
  -2  -3  33    1.99    2.79   1
  -2  -3  34    9.00    2.82   1
  -2  -3  34    4.49    2.80   1
  -2  -3  35   49.14    4.91   1
  -2  -3  35   58.68    4.75   1
  -2  -3  36   13.18    3.41   1
  -2  -3  37    2.69    3.18   1
  -2  -3  38   28.73    5.04   1
  -2  -3  38   32.49    5.13   1
  -2  -3  39  274.56   19.88   1
  -2  -3  39  318.62   22.13   1
  -2  -3  40    3.20    3.79   1
  -2  -3  40   -0.20    3.52   1
  -2  -3  41    1.90    3.62   1
  -2  -3  41    6.50    3.21   1
  -2  -3  42    4.88    3.32   1
  -2  -3  42    2.10    5.02   1
  -2  -3  43    0.79    3.49   1
  -2  -3  43    2.79    3.31   1
  -2  -3  44   -2.40    4.22   1
  -2  -3  46    1.49    4.68   1
  -2  -3  47   -3.61    5.02   1
  -2  -3  48    1.30    3.81   1
  -2  -3  49    0.40    5.68   1
  -2  -2 -49   -1.00    4.80   1
  -2  -2 -46   22.37    5.49   1
  -2  -2 -45    3.10    2.82   1
  -2  -2 -44    5.81    4.00   1
  -2  -2 -41    7.67    3.27   1
  -2  -2 -40    1.59    2.70   1
  -2  -2 -39  101.81    7.87   1
  -2  -2 -38    7.40    2.99   1
  -2  -2 -37   16.73    2.86   1
  -2  -2 -33    5.20    1.92   1
  -2  -2 -25   -1.21    1.61   1
  -2  -2 -24    1.10    1.41   1
  -2  -2 -23    9.30    1.71   1
  -2  -2 -23    7.62    1.60   1
  -2  -2 -22   11.90    1.59   1
  -2  -2 -22   10.82    1.91   1
  -2  -2 -21   31.81    2.37   1
  -2  -2 -21   26.32    2.67   1
  -2  -2 -20    2.79    1.20   1
  -2  -2 -20    2.31    1.40   1
  -2  -2 -19   -0.79    1.00   1
  -2  -2 -19    1.00    1.30   1
  -2  -2 -18    9.12    1.63   1
  -2  -2 -18    8.70    1.30   1
  -2  -2 -17   12.60    1.99   1
  -2  -2 -17   16.08    1.60   1
  -2  -2 -16   12.39    1.62   1
  -2  -2 -16   11.70    1.57   1
  -2  -2 -15  360.62   16.71   1
  -2  -2 -15  381.03   16.40   1
  -2  -2 -14    6.00    0.59   1
  -2  -2 -14    5.81    1.30   1
  -2  -2 -14    1.90    0.80   1
  -2  -2 -13   54.17    3.24   1
  -2  -2 -13   55.06    3.86   1
  -2  -2 -13   61.94    2.68   1
  -2  -2 -12  451.14   19.12   1
  -2  -2 -12  372.10   16.98   1
  -2  -2 -12  378.69   17.90   1
  -2  -2 -11    5.38    0.70   1
  -2  -2 -11    4.20    0.90   1
  -2  -2 -11    7.18    1.02   1
  -2  -2 -10   57.91    3.20   1
  -2  -2 -10   60.53    3.42   1
  -2  -2 -10   47.47    3.03   1
  -2  -2  -9  135.02    7.20   1
  -2  -2  -9  159.01    7.06   1
  -2  -2  -9  171.87    7.60   1
  -2  -2  -8   23.43    1.74   1
  -2  -2  -8   27.14    1.77   1
  -2  -2  -8   25.20    1.51   1
  -2  -2  -7   51.27    3.01   1
  -2  -2  -7   51.55    2.30   1
  -2  -2  -6  495.06   19.14   1
  -2  -2  -6  603.19   32.42   1
  -2  -2  -6  609.10   28.63   1
  -2  -2  -5  288.66    9.85   1
  -2  -2  -5  237.16    9.86   1
  -2  -2  -4   45.70    2.16   1
  -2  -2  -4   37.95    1.97   1
  -2  -2  -3  618.52   25.37   1
  -2  -2  -3  481.80   21.95   1
  -2  -2  -2    0.50    0.50   1
  -2  -2  -2   -0.10    0.40   1
  -2  -2  -1  107.74    5.61   1
  -2  -2  -1  159.77    7.08   1
  -2  -2   1  197.12   11.79   1
  -2  -2   2   91.58    4.02   1
  -2  -2   3  291.04   17.06   1
  -2  -2   4    7.62    0.83   1
  -2  -2   5  238.39   10.19   1
  -2  -2   6  986.59   38.32   1
  -2  -2   7  271.92   14.84   1
  -2  -2   8    1.80    0.80   1
  -2  -2   9   40.20    2.92   1
  -2  -2  10   20.52    1.63   1
  -2  -2  11    3.69    1.00   1
  -2  -2  12  412.09   18.68   1
  -2  -2  13   13.32    1.61   1
  -2  -2  13    8.12    1.08   1
  -2  -2  14    0.10    1.11   1
  -2  -2  14    0.71    1.11   1
  -2  -2  15  174.50   10.30   1
  -2  -2  15  197.12    7.86   1
  -2  -2  16    5.11    1.31   1
  -2  -2  16    9.18    1.51   1
  -2  -2  17   -0.20    1.21   1
  -2  -2  17   -0.40    0.79   1
  -2  -2  18  110.25    7.14   1
  -2  -2  18  121.66    5.96   1
  -2  -2  19   72.93    3.93   1
  -2  -2  19   58.06    3.66   1
  -2  -2  20   53.44    3.65   1
  -2  -2  20   39.82    3.28   1
  -2  -2  21  943.10   39.92   1
  -2  -2  21  757.35   35.78   1
  -2  -2  22  103.43    6.31   1
  -2  -2  22  104.24    5.92   1
  -2  -2  23    6.30    1.91   1
  -2  -2  23    3.61    2.09   1
  -2  -2  24    3.50    1.91   1
  -2  -2  24    0.90    1.90   1
  -2  -2  25   22.00    3.00   1
  -2  -2  25   20.88    2.92   1
  -2  -2  26    2.89    2.01   1
  -2  -2  26    0.71    1.11   1
  -2  -2  27  360.62   15.19   1
  -2  -2  27  325.44   15.88   1
  -2  -2  28   13.91    2.39   1
  -2  -2  28   13.69    3.03   1
  -2  -2  29   83.17    5.65   1
  -2  -2  30   16.97    3.13   1
  -2  -2  31   29.70    3.49   1
  -2  -2  31   28.52    3.63   1
  -2  -2  32    4.49    2.08   1
  -2  -2  32    5.38    3.02   1
  -2  -2  33  222.61   11.94   1
  -2  -2  33  247.75   12.91   1
  -2  -2  34   50.55    5.69   1
  -2  -2  35    5.81    3.08   1
  -2  -2  36   24.40    3.66   1
  -2  -2  37   98.41    6.75   1
  -2  -2  38    2.79    2.81   1
  -2  -2  39   -0.50    3.21   1
  -2  -2  39    1.00    2.50   1
  -2  -2  40   26.42    4.83   1
  -2  -2  41    6.40    3.80   1
  -2  -2  42   14.36    3.71   1
  -2  -2  42   16.32    4.61   1
  -2  -2  43   13.62    4.43   1
  -2  -2  44    1.10    4.09   1
  -2  -2  45   41.73    6.46   1
  -2  -2  45   29.05    4.53   1
  -2  -2  46    3.88    4.37   1
  -2  -2  47    2.69    4.99   1
  -2  -2  48    8.12    5.53   1
  -2  -2  49   10.50    6.67   1
  -2  -2  49   36.72    5.82   1
  -2  -2  50    9.49    7.27   1
  -2  -1 -49   -1.59    4.59   1
  -2  -1 -46   -0.40    4.18   1
  -2  -1 -46   -2.69    4.10   1
  -2  -1 -45    3.20    4.01   1
  -2  -1 -45    2.99    3.60   1
  -2  -1 -44   -3.88    3.59   1
  -2  -1 -43   -2.50    3.29   1
  -2  -1 -42   -2.19    3.20   1
  -2  -1 -19    9.61    1.67   1
  -2  -1 -18  134.33    7.19   1
  -2  -1 -18  144.96    6.98   1
  -2  -1 -17    4.71    1.09   1
  -2  -1 -17    4.88    1.02   1
  -2  -1 -16    6.92    1.21   1
  -2  -1 -16    5.02    0.90   1
  -2  -1 -15  647.70   24.94   1
  -2  -1 -15  603.68   25.06   1
  -2  -1 -14    0.71    0.91   1
  -2  -1 -14    1.49    0.81   1
  -2  -1 -13    1.30    0.80   1
  -2  -1 -13    1.21    0.81   1
  -2  -1 -12  617.52   23.86   1
  -2  -1 -12  588.06   30.56   1
  -2  -1 -11    3.61    0.68   1
  -2  -1 -11    2.31    0.70   1
  -2  -1 -10    7.90    0.90   1
  -2  -1 -10    8.29    0.92   1
  -2  -1  -9 1105.56   39.90   1
  -2  -1  -9 1066.02   46.36   1
  -2  -1  -9 1215.22   55.08   1
  -2  -1  -8    1.80    0.59   1
  -2  -1  -8    5.11    0.59   1
  -2  -1  -8    3.61    0.80   1
  -2  -1  -8    2.40    0.59   1
  -2  -1  -7   37.82    2.21   1
  -2  -1  -7   33.18    1.84   1
  -2  -1  -7   29.16    2.05   1
  -2  -1  -6 3565.28  177.94   1
  -2  -1  -5   99.60    4.59   1
  -2  -1  -5  116.21    5.17   1
  -2  -1  -5  133.40    7.16   1
  -2  -1  -4   32.60    2.06   1
  -2  -1  -4   25.81    1.73   1
  -2  -1  -4   37.70    2.09   1
  -2  -1  -3    3.39    0.59   1
  -2  -1  -3    2.59    0.61   1
  -2  -1  -3    2.40    0.40   1
  -2  -1  -2   12.82    1.29   1
  -2  -1  -2   10.37    0.77   1
  -2  -1  -2   15.37    1.10   1
  -2  -1  -1   49.56    2.25   1
  -2  -1  -1   53.88    3.23   1
  -2  -1  -1   39.44    1.76   1
  -2  -1   0   39.44    2.51   1
  -2  -1   0   43.69    2.64   1
  -2  -1   0   51.41    2.58   1
  -2  -1   1  102.82    5.07   1
  -2  -1   1   89.87    6.26   1
  -2  -1   1   77.26    4.22   1
  -2  -1   2    3.10    0.49   1
  -2  -1   3  616.53   25.82   1
  -2  -1   4   40.96    2.30   1
  -2  -1   5   36.00    2.40   1
  -2  -1   7  249.01    9.78   1
  -2  -1   8   57.76    2.74   1
  -2  -1   9  298.94   11.76   1
  -2  -1  10    2.50    0.88   1
  -2  -1  10    1.90    0.69   1
  -2  -1  11    1.00    0.80   1
  -2  -1  11    0.00    1.00   1
  -2  -1  12  192.93    9.17   1
  -2  -1  12  210.25    8.41   1
  -2  -1  13   45.70    3.11   1
  -2  -1  13   52.13    3.18   1
  -2  -1  14    4.08    1.09   1
  -2  -1  14    1.59    0.71   1
  -2  -1  15  730.62   27.57   1
  -2  -1  15  605.65   24.12   1
  -2  -1  16    8.41    1.62   1
  -2  -1  16    9.12    1.63   1
  -2  -1  17   24.70    1.89   1
  -2  -1  17   16.00    1.92   1
  -2  -1  18  417.38   16.75   1
  -2  -1  18  358.34   13.63   1
  -2  -1  19  125.22    6.49   1
  -2  -1  19  141.13    6.89   1
  -2  -1  20   52.71    3.48   1
  -2  -1  20   64.16    4.17   1
  -2  -1  21   84.27    4.59   1
  -2  -1  21   89.87    4.55   1
  -2  -1  22   27.35    2.93   1
  -2  -1  22   29.59    2.72   1
  -2  -1  23    3.69    2.00   1
  -2  -1  23    5.52    1.69   1
  -2  -1  24  300.68   14.91   1
  -2  -1  24  330.15   14.17   1
  -2  -1  25   15.92    2.31   1
  -2  -1  26   15.60    2.61   1
  -2  -1  27  235.93   11.06   1
  -2  -1  28    4.71    2.30   1
  -2  -1  29    0.50    2.71   1
  -2  -1  29    0.20    1.51   1
  -2  -1  30  495.95   24.05   1
  -2  -1  31   16.56    2.93   1
  -2  -1  32   49.98    4.95   1
  -2  -1  33  856.73   33.95   1
  -2  -1  33  739.84   35.36   1
  -2  -1  34   23.52    4.36   1
  -2  -1  37   -0.50    2.10   1
  -2  -1  38    9.61    3.10   1
  -2  -1  39    8.53    3.50   1
  -2  -1  42   14.59    4.51   1
  -2  -1  42   14.67    3.91   1
  -2  -1  43    0.10    3.44   1
  -2  -1  43    0.40    2.60   1
  -2  -1  46   -0.50    4.52   1
  -2  -1  47    0.00    1.00   1
  -2  -1  48   29.38    6.72   1
  -2  -1  49    2.19    5.30   1
  -2  -1  49    0.30    3.31   1
  -2  -1  50   -6.71    5.02   1
  -2   0 -48    8.88    6.32   1
  -2   0 -46    4.88    3.89   1
  -2   0 -44    3.20    4.12   1
  -2   0 -14   27.35    2.41   1
  -2   0 -12  250.59   11.71   1
  -2   0 -10    2.31    0.91   1
  -2   0 -10    1.30    0.59   1
  -2   0  -8    6.00    0.98   1
  -2   0  -8    7.29    0.81   1
  -2   0  -6 4964.61  225.47   1
  -2   0  -4   21.34    1.11   1
  -2   0  -4   25.20    1.51   1
  -2   0  -2    2.31    0.49   1
  -2   0   0  381.03   19.52   1
  -2   0   0  336.72   16.15   1
  -2   0   2    4.28    0.58   1
  -2   0   2    6.00    0.49   1
  -2   0   4    1.69    0.39   1
  -2   0   8  272.58   10.24   1
  -2   0  10  255.04    9.58   1
  -2   0  10  237.78   10.49   1
  -2   0  12    1.21    0.81   1
  -2   0  14  120.34    6.14   1
  -2   0  16  134.33    6.03   1
  -2   0  16  148.60    5.85   1
  -2   0  18 1532.72   63.42   1
  -2   0  20    8.82    1.60   1
  -2   0  22   26.63    2.79   1
  -2   0  24   56.40    3.91   1
  -2   0  26   -0.71    1.71   1
  -2   0  28   46.10    3.67   1
  -2   0  40    3.61    3.31   1
  -2   0  42   -0.71    3.61   1
  -2   0  44    5.38    3.20   1
  -2   0  46    7.08    4.89   1
  -2   0  48   -1.10    5.10   1
  -2   0  48   -0.40    4.38   1
  -2   0  50   23.62    6.71   1
  -2   0  50    4.00    6.32   1
  -2   1 -49    1.10    5.21   1
  -2   1 -49    2.79    4.58   1
  -2   1 -48    2.69    3.90   1
  -2   1 -47    8.58    5.27   1
  -2   1 -13    1.00    1.00   1
  -2   1 -12  598.29   28.86   1
  -2   1 -11    3.31    1.02   1
  -2   1 -10    4.49    0.68   1
  -2   1 -10    5.62    1.00   1
  -2   1  -9 1046.52   49.82   1
  -2   1  -9 1074.53   55.07   1
  -2   1  -8    3.20    0.79   1
  -2   1  -8    2.99    0.59   1
  -2   1  -7   31.47    1.68   1
  -2   1  -7   30.25    2.20   1
  -2   1  -6 3330.44  120.04   1
  -2   1  -5   17.72    4.04   1
  -2   1  -5  117.29    4.33   1
  -2   1  -5  138.77    7.30   1
  -2   1  -4    0.10    0.30   1
  -2   1  -4   31.47    1.68   1
  -2   1  -4   24.60    1.39   1
  -2   1  -3    2.50    0.60   1
  -2   1  -3    0.10    0.20   1
  -2   1  -2   12.18    0.91   1
  -2   1  -2   -0.10    0.20   1
  -2   1  -1   46.92    1.78   1
  -2   1  -1   -0.30    0.20   1
  -2   1   0    0.20    0.20   1
  -2   1   0   48.02    1.94   1
  -2   1   1   92.93    3.08   1
  -2   1   1   25.81    3.66   1
  -2   1   2    3.50    0.71   1
  -2   1   3  748.57   26.81   1
  -2   1   4   44.62    2.40   1
  -2   1   5   42.90    2.23   1
  -2   1   5   45.16    2.15   1
  -2   1   7  268.30   15.07   1
  -2   1   7  316.48   11.03   1
  -2   1   8   68.72    3.81   1
  -2   1   9  321.84   17.58   1
  -2   1   9  360.62   16.33   1
  -2   1  10    0.90    0.61   1
  -2   1  10   -0.71    0.60   1
  -2   1  11   -1.39    0.59   1
  -2   1  11   -0.20    0.60   1
  -2   1  12  226.80   11.45   1
  -2   1  12  207.07   11.22   1
  -2   1  13   56.70    3.16   1
  -2   1  13   55.95    4.34   1
  -2   1  14    3.31    0.91   1
  -2   1  14    3.69    1.11   1
  -2   1  15  637.06   23.73   1
  -2   1  15  692.22   33.15   1
  -2   1  16    8.58    1.41   1
  -2   1  17   19.54    2.12   1
  -2   1  18  414.94   18.74   1
  -2   1  18  358.72   13.64   1
  -2   1  19  140.90    7.12   1
  -2   1  20   64.96    4.35   1
  -2   1  21   94.48    5.25   1
  -2   1  25   11.63    2.11   1
  -2   1  26   23.62    3.11   1
  -2   1  35   17.47    3.18   1
  -2   1  38   14.82    3.62   1
  -2   1  38    1.39    3.28   1
  -2   1  41    1.39    3.59   1
  -2   1  42   18.66    3.97   1
  -2   1  42   10.18    3.70   1
  -2   1  43   -1.00    3.50   1
  -2   1  44    1.00    4.00   1
  -2   1  45   -0.20    3.92   1
  -2   1  46    1.10    4.30   1
  -2   1  47    6.71    4.71   1
  -2   1  47   -2.79    3.01   1
  -2   1  48   32.60    6.62   1
  -2   1  48   35.88    6.59   1
  -2   1  49    5.02    3.99   1
  -2   1  49    1.59    5.19   1
  -2   1  50    3.31    5.31   1
  -2   2 -49   -1.00    5.80   1
  -2   2 -48   -3.39    4.78   1
  -2   2 -12  381.03   14.84   1
  -2   2 -11    4.80    0.92   1
  -2   2 -10   49.56    3.10   1
  -2   2  -9  156.50    7.01   1
  -2   2  -9  145.93    8.70   1
  -2   2  -8   24.11    1.96   1
  -2   2  -8   25.20    1.91   1
  -2   2  -7   40.20    2.66   1
  -2   2  -7   38.56    2.48   1
  -2   2  -6  527.16   26.63   1
  -2   2  -6  546.16   33.19   1
  -2   2  -5  236.24   12.60   1
  -2   2  -5  255.04   12.14   1
  -2   2  -4   37.82    2.21   1
  -2   2  -4   43.96    2.39   1
  -2   2  -3  618.02   30.83   1
  -2   2  -3  468.29   21.64   1
  -2   2  -3  512.12   24.44   1
  -2   2  -2   -0.20    0.60   1
  -2   2  -2   -0.30    0.41   1
  -2   2  -2   -0.30    0.30   1
  -2   2  -1  133.40    5.54   1
  -2   2  -1  111.30    6.54   1
  -2   2  -1  146.41    6.78   1
  -2   2   1  200.79    8.79   1
  -2   2   2  101.00    4.42   1
  -2   2   2   94.67    5.06   1
  -2   2   3  297.56   16.91   1
  -2   2   3  360.62   15.57   1
  -2   2   4    9.49    0.99   1
  -2   2   4    3.50    1.01   1
  -2   2   5  329.42   13.43   1
  -2   2   5  306.60   11.91   1
  -2   2   6 1312.61   58.69   1
  -2   2   6 1338.83   61.47   1
  -2   2   7  355.70   13.96   1
  -2   2   7  360.62   16.33   1
  -2   2   8    2.19    0.50   1
  -2   2   9   53.73    3.23   1
  -2   2  10   27.56    1.58   1
  -2   2  11    4.28    0.91   1
  -2   2  12  496.40   25.84   1
  -2   2  13   14.36    1.21   1
  -2   2  14   -0.30    0.80   1
  -2   2  14    0.50    0.70   1
  -2   2  15  159.77    7.58   1
  -2   2  15  179.56    9.38   1
  -2   2  16    6.71    1.40   1
  -2   2  16    8.01    1.30   1
  -2   2  17    0.10    0.91   1
  -2   2  18  113.21    5.75   1
  -2   2  19   61.78    3.77   1
  -2   2  20   45.16    3.63   1
  -2   2  21  772.28   28.90   1
  -2   2  22   91.39    5.74   1
  -2   2  23    5.71    1.72   1
  -2   2  24    1.49    1.10   1
  -2   2  25   15.29    2.42   1
  -2   2  26   -0.20    1.81   1
  -2   2  35    2.69    3.08   1
  -2   2  39    1.80    3.40   1
  -2   2  40   28.41    4.48   1
  -2   2  41    2.59    2.99   1
  -2   2  42    8.53    4.03   1
  -2   2  45   27.25    4.49   1
  -2   2  46   -2.31    4.71   1
  -2   2  47    7.78    4.91   1
  -2   2  48   11.90    5.93   1
  -2   2  49   43.16    7.36   1
  -2   2  50   -2.59    5.38   1
  -2   3 -48   -8.12    5.19   1
  -2   3 -12  261.47   11.97   1
  -2   3 -11    1.90    1.30   1
  -2   3 -10   -0.10    1.11   1
  -2   3  -9   32.04    2.26   1
  -2   3  -8    2.31    1.00   1
  -2   3  -7    3.20    1.00   1
  -2   3  -6    6.00    1.08   1
  -2   3  -5   48.86    2.38   1
  -2   3  -4  352.31   14.64   1
  -2   3  -4  293.44   11.99   1
  -2   3  -4  240.25   14.57   1
  -2   3  -3 1003.62   43.72   1
  -2   3  -2  564.54   20.91   1
  -2   3  -2  445.21   21.52   1
  -2   3  -2  375.58   25.58   1
  -2   3  -1  354.19   18.07   1
  -2   3  -1  424.77   16.90   1
  -2   3   0    2.89    0.51   1
  -2   3   0    1.39    0.59   1
  -2   3   1  941.26   36.82   1
  -2   3   2    6.81    0.99   1
  -2   3   3   66.10    8.13   1
  -2   3   3 1305.38   41.19   1
  -2   3   4   92.74    4.04   1
  -2   3   5  130.42    5.25   1
  -2   3   6    7.40    0.49   1
  -2   3   6    7.40    0.92   1
  -2   3   7    6.71    0.98   1
  -2   3   8    1.00    0.70   1
  -2   3  40    0.79    3.28   1
  -2   3  41    4.49    3.48   1
  -2   3  42   -1.21    3.92   1
  -2   3  43   -1.39    4.39   1
  -2   3  44   12.60    4.61   1
  -2   3  45   22.94    4.89   1
  -2   3  46    5.81    4.29   1
  -2   3  47   -6.00    4.70   1
  -2   3  48   11.09    4.80   1
  -2   3  49    1.90    5.22   1
  -2   4 -13   10.63    1.63   1
  -2   4 -12   36.48    2.78   1
  -2   4 -11   22.94    2.20   1
  -2   4 -10    0.59    1.19   1
  -2   4  -9   94.67    5.45   1
  -2   4  -8    3.39    1.21   1
  -2   4  -5    7.02    1.22   1
  -2   4  -4   43.56    2.77   1
  -2   4  -4   50.55    3.13   1
  -2   4  -3  775.07   32.85   1
  -2   4  -3  616.03   30.28   1
  -2   4  -2   71.57    3.21   1
  -2   4  -2   88.17    3.94   1
  -2   4  -1    1.30    0.50   1
  -2   4  -1   -0.90    0.80   1
  -2   4   0  528.54   21.61   1
  -2   4   1   55.65    3.28   1
  -2   4   1   72.76    3.24   1
  -2   4   2   11.83    1.17   1
  -2   4   2   15.29    0.94   1
  -2   4   3  107.74    5.40   1
  -2   4   4    5.11    0.90   1
  -2   4   5   21.72    1.68   1
  -2   4   6    5.81    1.01   1
  -2   4   6    9.61    0.68   1
  -2   4   7   11.42    1.01   1
  -2   4   7   14.98    1.01   1
  -2   4   8    7.78    0.78   1
  -2   4   8    7.02    1.01   1
  -2   4   9   70.73    3.53   1
  -2   4   9   64.96    3.55   1
  -2   4  10   13.10    1.09   1
  -2   4  11   50.27    2.84   1
  -2   4  12   57.91    3.04   1
  -2   4  13   13.32    1.53   1
  -2   4  14   -0.30    0.70   1
  -2   4  15   46.92    3.56   1
  -2   4  16    7.67    1.27   1
  -2   4  17    3.88    0.99   1
  -2   4  41    0.40    2.89   1
  -2   4  44   -0.71    4.52   1
  -2   4  45    8.41    4.81   1
  -2   4  46    7.78    4.69   1
  -2   4  47   -3.10    5.70   1
  -2   4  48   -6.81    5.22   1
  -2   5 -14    2.10    1.31   1
  -2   5 -13    8.12    1.60   1
  -2   5 -12  860.25   39.89   1
  -2   5 -11   63.52    3.83   1
  -2   5 -10    9.12    1.63   1
  -2   5  -9  235.32   11.35   1
  -2   5  -8   31.02    2.23   1
  -2   5  -7   22.66    2.19   1
  -2   5  -6  281.57   14.77   1
  -2   5  -5    6.50    1.27   1
  -2   5  -4   32.15    2.38   1
  -2   5  -3  144.72    6.74   1
  -2   5  -2   42.77    3.01   1
  -2   5  -1   43.96    2.52   1
  -2   5  -1   45.56    2.43   1
  -2   5   0  799.19   29.97   1
  -2   5   0  665.12   31.46   1
  -2   5   1   21.90    1.40   1
  -2   5   2   19.89    1.34   1
  -2   5   2   14.52    1.37   1
  -2   5   3  269.94   11.83   1
  -2   5   4    1.00    0.90   1
  -2   5   5   23.23    1.54   1
  -2   5   6  438.06   18.00   1
  -2   5   7   65.61    3.40   1
  -2   5   8   30.03    1.75   1
  -2   5   8   33.29    2.19   1
  -2   5   9  234.09   10.40   1
  -2   5   9  290.70   11.25   1
  -2   5  10    2.69    0.79   1
  -2   5  10    2.69    0.69   1
  -2   5  11   34.46    2.23   1
  -2   5  12  367.49   21.47   1
  -2   5  13   86.49    5.39   1
  -2   5  14   30.80    2.00   1
  -2   5  15   69.72    5.01   1
  -2   5  16   55.80    3.88   1
  -2   5  17   16.73    1.80   1
  -2   5  18   55.95    4.64   1
  -2   5  20   61.15    3.60   1
  -2   5  24   16.56    2.36   1
  -2   5  42   10.18    3.76   1
  -2   5  43   10.63    3.91   1
  -2   5  44    3.61    4.22   1
  -2   6 -16    8.12    1.82   1
  -2   6 -15  187.42   10.40   1
  -2   6 -14   11.90    2.21   1
  -2   6 -13   -0.30    1.61   1
  -2   6 -12   10.37    2.13   1
  -2   6 -11    1.90    1.71   1
  -2   6 -10    3.50    1.50   1
  -2   6  -9   30.80    2.89   1
  -2   6  -8  113.00    5.32   1
  -2   6  -7   -0.30    1.31   1
  -2   6  -6    1.10    1.20   1
  -2   6  -5   21.44    1.94   1
  -2   6  -4    3.20    1.40   1
  -2   6  -3    5.29    1.29   1
  -2   6  -2    2.79    1.00   1
  -2   6  -1   10.69    1.50   1
  -2   6   0  186.05    8.18   1
  -2   6   1   64.64    3.54   1
  -2   6   2   18.23    1.62   1
  -2   6   2   25.50    1.52   1
  -2   6   3  250.59   11.71   1
  -2   6   4   16.81    1.64   1
  -2   6   5   30.91    2.00   1
  -2   6   6  932.69   37.26   1
  -2   6   7   17.22    1.49   1
  -2   6   8   16.97    1.40   1
  -2   6   9   16.56    1.38   1
  -2   6   9   20.79    1.46   1
  -2   6  10   17.39    1.50   1
  -2   6  11   73.79    4.30   1
  -2   6  12   36.72    2.30   1
  -2   6  13  110.46    6.31   1
  -2   6  14   45.83    2.84   1
  -2   6  15  297.91   13.46   1
  -2   6  16    8.53    1.52   1
  -2   6  17   88.74    4.52   1
  -2   6  18  614.54   25.78   1
  -2   6  19  127.69    6.10   1
  -2   6  20    6.40    1.62   1
  -2   6  21    4.00    1.40   1
  -2   6  22   44.76    3.48   1
  -2   6  23   17.14    2.40   1
  -2   6  24  175.56    9.27   1
  -2   6  25    8.58    1.99   1
  -2   6  26   16.97    2.64   1
  -2   6  27    4.71    2.08   1
  -2   7 -42   11.70    6.09   1
  -2   7 -19   10.89    1.98   1
  -2   7 -18   54.61    4.43   1
  -2   7 -17    2.59    2.19   1
  -2   7 -16    3.50    1.80   1
  -2   7 -15   46.65    3.82   1
  -2   7 -14    4.80    2.01   1
  -2   7 -13   51.84    4.46   1
  -2   7 -12  261.47   12.61   1
  -2   7 -11   49.42    3.66   1
  -2   7 -10   13.40    2.27   1
  -2   7  -9   -0.71    1.41   1
  -2   7  -8   16.16    2.01   1
  -2   7  -7   20.07    1.97   1
  -2   7  -6  100.40    5.01   1
  -2   7  -5   36.84    2.91   1
  -2   7  -4   14.06    1.88   1
  -2   7  -3    1.59    1.18   1
  -2   7  -2   13.47    2.13   1
  -2   7  -1    7.08    1.38   1
  -2   7   0   85.56    5.18   1
  -2   7   1    1.39    0.99   1
  -2   7   2   14.36    1.52   1
  -2   7   3  415.34   17.12   1
  -2   7   4   13.10    1.59   1
  -2   7   5   23.04    2.02   1
  -2   7   6   27.77    2.00   1
  -2   7   7    1.90    0.99   1
  -2   7   8    1.49    1.00   1
  -2   7   9    1.10    1.01   1
  -2   7  10    9.92    1.32   1
  -2   7  10   10.18    1.21   1
  -2   7  11    1.99    0.90   1
  -2   7  12   79.39    4.45   1
  -2   7  13   10.63    1.50   1
  -2   7  14   69.39    4.66   1
  -2   7  15   52.71    3.05   1
  -2   7  16   54.17    3.24   1
  -2   7  17   77.26    3.87   1
  -2   7  18  312.23   15.90   1
  -2   7  19   24.11    2.36   1
  -2   7  20   20.52    2.27   1
  -2   7  21    7.29    1.67   1
  -2   7  22   -0.10    1.92   1
  -2   7  23   11.02    1.99   1
  -2   7  24  404.01   18.49   1
  -2   8 -41   45.02   20.26   1
  -2   8 -39   -2.31    2.92   1
  -2   8 -38    2.10    4.21   1
  -2   8 -37   13.62    5.02   1
  -2   8 -36   10.82    4.61   1
  -2   8 -35   -2.99    2.80   1
  -2   8 -25   -1.21    2.31   1
  -2   8 -24    4.41    2.90   1
  -2   8 -23   -1.21    2.42   1
  -2   8 -22   12.18    3.21   1
  -2   8 -21  122.10    7.96   1
  -2   8 -20   30.36    3.75   1
  -2   8 -19   41.34    3.86   1
  -2   8 -18  112.57    7.00   1
  -2   8 -17  185.50   10.08   1
  -2   8 -16    4.80    2.41   1
  -2   8 -15   47.61    4.55   1
  -2   8 -14   -2.10    1.51   1
  -2   8 -13    1.90    2.01   1
  -2   8 -12   27.77    3.37   1
  -2   8 -11    8.41    2.20   1
  -2   8 -10    8.01    2.09   1
  -2   8  -9  334.16   13.53   1
  -2   8  -7    7.29    1.67   1
  -2   8  -6   18.92    2.26   1
  -2   8  -5   19.01    2.18   1
  -2   8  -4   35.28    2.97   1
  -2   8  -3  212.28    9.03   1
  -2   8  -2    9.99    1.71   1
  -2   8  -1    3.50    1.38   1
  -2   8   0   90.25    4.75   1
  -2   8   1    1.59    1.39   1
  -2   8   2    3.20    1.50   1
  -2   8   3   22.56    2.18   1
  -2   8   4   42.90    2.75   1
  -2   8   5   24.70    1.99   1
  -2   8   6  157.75    7.28   1
  -2   8   7   11.90    1.73   1
  -2   8   8    2.40    0.99   1
  -2   8  11    2.79    1.20   1
  -2   8  12   91.01    4.58   1
  -2   8  13   25.50    2.22   1
  -2   8  14   -0.30    1.31   1
  -2   8  15   58.98    3.84   1
  -2   9 -37    1.00    4.00   1
  -2   9 -36    5.29    4.60   1
  -2   9 -35    7.18    4.77   1
  -2   9 -34    5.71    4.40   1
  -2   9 -33   29.27    5.52   1
  -2   9 -32    5.38    4.08   1
  -2   9 -31   -2.31    4.01   1
  -2   9 -30    3.39    3.79   1
  -2   9 -29    8.01    4.41   1
  -2   9 -28   -2.59    3.38   1
  -2   9 -27   29.48    4.45   1
  -2   9 -26    1.21    3.72   1
  -2   9 -25    3.20    3.40   1
  -2   9 -24    7.08    2.98   1
  -2   9 -23   -0.71    2.91   1
  -2   9 -22    8.53    3.33   1
  -2   9 -21   15.76    2.70   1
  -2   9 -20    2.79    2.71   1
  -2   9 -19   16.73    3.27   1
  -2   9 -18   -2.19    2.31   1
  -2   9 -17    3.61    2.70   1
  -2   9 -16   43.43    4.09   1
  -2   9 -15  711.29   27.20   1
  -2   9 -14   40.83    4.22   1
  -2   9 -13   15.21    3.51   1
  -2   9 -12   23.72    2.92   1
  -2   9 -11    0.00    1.00   1
  -2   9 -10   -1.49    1.68   1
  -2   9  -9  124.32    7.14   1
  -2   9  -8  123.65    6.67   1
  -2   9  -7   -0.20    1.61   1
  -2   9  -6   42.64    3.66   1
  -2   9  -5    1.10    1.60   1
  -2   9  -4    6.60    1.90   1
  -2   9  -3  393.63   17.86   1
  -2   9  -2   29.70    2.83   1
  -2   9  -1    2.69    1.41   1
  -2   9   0  155.75    7.49   1
  -2   9   1    2.19    1.30   1
  -2   9   2   31.02    3.01   1
  -2   9   3  193.21    8.90   1
  -2  10 -35   -2.99    4.81   1
  -2  10 -34   -0.71    5.22   1
  -2  10 -33    7.78    5.02   1
  -2  10 -32   22.66    5.14   1
  -2  10 -31    0.30    4.72   1
  -2  10 -30   -2.19    3.20   1
  -2  10 -29    0.50    4.02   1
  -2  10 -28    0.10    3.34   1
  -2  10 -27   12.18    4.40   1
  -2  10 -26   20.07    4.57   1
  -2  10 -25   10.18    3.76   1
  -2  10 -24    2.31    3.31   1
  -2  10 -23   41.86    4.79   1
  -2  10 -22    9.67    3.42   1
  -2  10 -21    6.60    3.29   1
  -2  10 -20    7.90    3.09   1
  -2  10 -19    2.50    1.99   1
  -2  10 -18    4.08    2.79   1
  -2  10 -16   61.15    6.10   1
  -2  10 -15   16.56    3.26   1
  -2  10 -14  205.35   10.60   1
  -2  10 -13   -0.71    2.60   1
  -2  10 -12   21.90    3.37   1
  -2  10 -11    6.10    2.52   1
  -2  10 -10    1.99    2.00   1
  -2  10  -9  288.66   14.27   1
  -2  10  -8   33.18    3.46   1
  -2  10  -6   79.74    5.36   1
  -2  10  -5    4.58    1.88   1
  -2  10  -4    3.50    1.98   1
  -2  10  -3   54.76    4.44   1
  -2  11 -33   -4.71    4.69   1
  -2  11 -32   -9.92    5.10   1
  -2  11 -31    9.00    5.28   1
  -2  11 -30   40.58    6.88   1
  -2  11 -29   11.09    5.39   1
  -2  11 -28   -0.40    4.38   1
  -2  11 -27   -3.88    3.90   1
  -2  11 -26    3.31    4.30   1
  -2  11 -25    3.80    4.21   1
  -2  11 -24   17.89    4.31   1
  -2  11 -23   -0.30    3.21   1
  -2  11 -22    8.53    3.50   1
  -2  11 -21   48.16    4.86   1
  -2  11 -20   20.16    4.13   1
  -2  11 -19    1.00    2.20   1
  -2  11 -18   49.14    4.91   1
  -2  11 -17    1.90    3.20   1
  -2  11 -16    0.79    3.08   1
  -2  11 -15    7.51    2.79   1
  -2  11 -14    0.10    2.73   1
  -2  11 -13   12.53    2.97   1
  -2  11 -12  361.00   23.56   1
  -2  11 -11    1.30    2.39   1
  -2  11 -10    5.02    3.00   1
  -2  11  -9   13.76    2.97   1
  -2  12 -30  -13.03    4.84   1
  -2  12 -29    7.90    5.28   1
  -2  12 -28    4.71    4.90   1
  -2  12 -27    4.08    4.48   1
  -2  12 -26    0.50    4.02   1
  -2  12 -25    4.41    4.91   1
  -2  12 -24    9.12    4.53   1
  -2  12 -23   23.14    4.81   1
  -2  12 -22   -2.59    3.51   1
  -2  12 -21    0.00    1.00   1
  -2  12 -20    7.51    4.00   1
  -2  12 -19    7.40    3.92   1
  -2  12 -18    3.61    3.61   1
  -2  12 -17   -1.21    3.21   1
  -1 -15  -9   -7.29    6.21   1
  -1 -15  -8   -6.81    5.12   1
  -1 -15  -7   -0.20    6.04   1
  -1 -15  -6    2.69    3.90   1
  -1 -15  -5    5.02    5.60   1
  -1 -15  -4   12.39    6.12   1
  -1 -15  -3   13.69    5.62   1
  -1 -15  -2    1.90    3.89   1
  -1 -15  -1    4.28    5.51   1
  -1 -15   0   11.02    5.38   1
  -1 -15   1   -0.79    5.07   1
  -1 -15   2    9.30    5.79   1
  -1 -15   3    5.62    5.50   1
  -1 -15   4   15.60    6.32   1
  -1 -15   5    0.20    5.83   1
  -1 -15   6    3.39    6.00   1
  -1 -15   7    4.71    5.51   1
  -1 -15   8    8.41    5.80   1
  -1 -15   9   22.18    6.69   1
  -1 -15  10    0.50    5.32   1
  -1 -14 -20    6.00    5.88   1
  -1 -14 -19   -0.20    5.53   1
  -1 -14 -18   22.28    6.89   1
  -1 -14 -17    8.53    5.90   1
  -1 -14 -16    4.20    5.70   1
  -1 -14 -15    1.69    4.39   1
  -1 -14 -14    1.00    5.70   1
  -1 -14 -13    3.69    5.49   1
  -1 -14 -12   -6.92    5.21   1
  -1 -14 -11    0.10    4.56   1
  -1 -14 -10    0.10    4.15   1
  -1 -14  -9   10.37    5.22   1
  -1 -14  -8   11.70    4.72   1
  -1 -14  -7    4.49    4.71   1
  -1 -14  -6    0.71    3.61   1
  -1 -14  -5   -2.40    3.10   1
  -1 -14  -4   -1.99    4.60   1
  -1 -14  -3   19.80    5.52   1
  -1 -14  -2   -5.71    4.92   1
  -1 -14  -1   -0.50    4.12   1
  -1 -14   0   24.90    5.89   1
  -1 -14   1    4.49    4.41   1
  -1 -14   2   30.36    5.73   1
  -1 -14   3   37.45    6.73   1
  -1 -14   4    3.31    4.70   1
  -1 -14   5    1.10    3.21   1
  -1 -14   6   21.16    4.23   1
  -1 -14   7    6.10    5.29   1
  -1 -14   8   12.18    4.82   1
  -1 -14   9    6.40    4.81   1
  -1 -14  10    8.82    5.23   1
  -1 -14  11    9.12    4.89   1
  -1 -14  12   19.89    5.71   1
  -1 -14  13   -5.71    3.59   1
  -1 -14  14    0.50    5.23   1
  -1 -14  15    9.30    5.67   1
  -1 -14  16   17.47    5.60   1
  -1 -14  17    7.18    5.47   1
  -1 -14  18    5.29    5.70   1
  -1 -14  19    0.79    3.68   1
  -1 -14  20   18.06    6.29   1
  -1 -13 -26    3.69    5.80   1
  -1 -13 -25    9.80    5.51   1
  -1 -13 -24   49.56    7.46   1
  -1 -13 -23   34.81    6.14   1
  -1 -13 -22   -3.20    4.62   1
  -1 -13 -21    2.50    5.40   1
  -1 -13 -20    8.18    5.49   1
  -1 -13 -19   11.63    5.32   1
  -1 -13 -18   24.80    6.27   1
  -1 -13 -17   -3.61    3.12   1
  -1 -13 -16    7.62    4.91   1
  -1 -13 -15    9.92    5.48   1
  -1 -13 -14   27.35    5.44   1
  -1 -13 -13    0.59    5.17   1
  -1 -13 -12    0.50    2.81   1
  -1 -13 -11    7.51    4.22   1
  -1 -13 -10    3.20    4.12   1
  -1 -13  -9    2.10    4.00   1
  -1 -13  -8    2.10    3.92   1
  -1 -13  -7    1.10    3.51   1
  -1 -13  -6   -3.69    3.61   1
  -1 -13  -5   -1.99    3.69   1
  -1 -13  -4    0.90    3.71   1
  -1 -13  -3    4.71    3.99   1
  -1 -13  -2    2.50    3.70   1
  -1 -13  -1    5.11    3.71   1
  -1 -13   0   65.45    6.96   1
  -1 -13   1    4.88    4.11   1
  -1 -13   2   -0.90    2.60   1
  -1 -13   3   -1.99    3.89   1
  -1 -13   4    0.10    3.85   1
  -1 -13   5   27.67    4.84   1
  -1 -13   6   33.87    5.70   1
  -1 -13   7   -1.69    3.98   1
  -1 -13   8    3.39    4.49   1
  -1 -13   9   -4.80    3.81   1
  -1 -13  10   22.00    4.03   1
  -1 -13  11   -2.50    4.11   1
  -1 -13  12   -2.10    4.49   1
  -1 -13  13    7.51    4.88   1
  -1 -13  14    2.99    3.98   1
  -1 -13  15   37.09    5.85   1
  -1 -13  16    1.90    4.80   1
  -1 -13  17   80.64    7.90   1
  -1 -13  18   98.80    8.75   1
  -1 -13  19    0.90    5.61   1
  -1 -13  20    3.80    5.30   1
  -1 -13  21   11.90    5.18   1
  -1 -13  22    1.90    5.41   1
  -1 -13  23   -5.29    5.61   1
  -1 -13  24    9.99    5.81   1
  -1 -13  25   -4.00    5.80   1
  -1 -13  26    0.10    3.64   1
  -1 -12 -31   20.16    4.58   1
  -1 -12 -30   36.72    4.85   1
  -1 -12 -29   19.10    6.21   1
  -1 -12 -28    1.10    5.21   1
  -1 -12 -27    9.12    5.50   1
  -1 -12 -26    8.01    5.09   1
  -1 -12 -25    4.58    3.60   1
  -1 -12 -24    2.79    4.68   1
  -1 -12 -23   -0.50    4.42   1
  -1 -12 -22   -0.20    4.63   1
  -1 -12 -21   56.85    6.64   1
  -1 -12 -20    2.31    4.10   1
  -1 -12 -19   19.71    4.88   1
  -1 -12 -18   -5.62    3.89   1
  -1 -12 -17    1.21    4.22   1
  -1 -12 -16    6.81    4.12   1
  -1 -12 -15   51.84    5.47   1
  -1 -12 -14    5.02    3.99   1
  -1 -12 -13   11.70    4.38   1
  -1 -12 -12  156.25    8.75   1
  -1 -12 -11   11.97    4.29   1
  -1 -12 -10   51.41    5.74   1
  -1 -12  -9   75.34    5.56   1
  -1 -12  -8    7.29    2.81   1
  -1 -12  -7    5.81    3.71   1
  -1 -12  -6   13.99    3.81   1
  -1 -12  -5    4.08    3.19   1
  -1 -12  -4   -0.20    3.42   1
  -1 -12  -3    4.00    3.52   1
  -1 -12  -2   -0.20    2.21   1
  -1 -12  -1    6.10    3.21   1
  -1 -12   0    2.99    3.49   1
  -1 -12   1    4.80    2.80   1
  -1 -12   2    3.61    3.61   1
  -1 -12   3   -0.59    3.37   1
  -1 -12   4   -3.31    2.80   1
  -1 -12   5   -4.58    3.38   1
  -1 -12   6   18.23    3.59   1
  -1 -12   7    7.40    4.03   1
  -1 -12   8    3.39    3.61   1
  -1 -12   9   17.64    4.62   1
  -1 -12  10   -0.90    3.50   1
  -1 -12  11    7.02    4.51   1
  -1 -12  12   56.70    6.33   1
  -1 -12  13   29.05    5.28   1
  -1 -12  14    4.28    3.97   1
  -1 -12  15   31.14    5.47   1
  -1 -12  16   29.05    4.74   1
  -1 -12  17   31.02    5.79   1
  -1 -12  18    5.71    4.11   1
  -1 -12  19    1.49    4.49   1
  -1 -12  20    1.90    3.09   1
  -1 -12  21   19.80    5.61   1
  -1 -12  22   -0.10    4.56   1
  -1 -12  23   41.73    5.81   1
  -1 -12  24   29.48    6.52   1
  -1 -12  25   11.29    4.77   1
  -1 -12  26    2.19    4.68   1
  -1 -12  27    5.81    4.10   1
  -1 -12  28    0.79    5.07   1
  -1 -12  29   10.69    5.69   1
  -1 -12  30   60.68    8.26   1
  -1 -12  31    1.10    5.31   1
  -1 -11 -35   -1.90    4.42   1
  -1 -11 -34    5.52    5.31   1
  -1 -11 -33    4.08    5.37   1
  -1 -11 -32    3.31    4.30   1
  -1 -11 -31   -7.78    4.58   1
  -1 -11 -30   -1.69    4.89   1
  -1 -11 -29    3.20    4.51   1
  -1 -11 -28    2.99    4.39   1
  -1 -11 -27   58.52    7.65   1
  -1 -11 -26    9.00    4.20   1
  -1 -11 -25    2.31    4.50   1
  -1 -11 -24   14.29    3.18   1
  -1 -11 -23   -0.10    3.74   1
  -1 -11 -22   20.98    4.76   1
  -1 -11 -21   15.92    3.43   1
  -1 -11 -20    1.30    3.60   1
  -1 -11 -19   20.98    4.12   1
  -1 -11 -18  104.04    8.77   1
  -1 -11 -17   52.85    6.54   1
  -1 -11 -16   17.31    4.16   1
  -1 -11 -15   -0.90    3.10   1
  -1 -11 -14   52.56    5.37   1
  -1 -11 -13    0.10    3.24   1
  -1 -11 -12   18.92    4.00   1
  -1 -11 -11   -0.20    3.01   1
  -1 -11 -10    1.49    2.68   1
  -1 -11  -9   17.64    3.53   1
  -1 -11  -8   -3.39    2.91   1
  -1 -11  -7    5.38    3.20   1
  -1 -11  -6   51.98    5.62   1
  -1 -11  -5   33.18    4.15   1
  -1 -11  -4    8.70    3.13   1
  -1 -11  -3    7.78    3.01   1
  -1 -11  -2   -1.00    2.80   1
  -1 -11  -1   -3.50    2.51   1
  -1 -11   0    2.99    3.01   1
  -1 -11   1    0.00    1.00   1
  -1 -11   2   -3.61    2.70   1
  -1 -11   3   32.26    3.75   1
  -1 -11   4   12.82    2.58   1
  -1 -11   5   -1.39    2.69   1
  -1 -11   6   13.99    3.29   1
  -1 -11   7    1.59    2.19   1
  -1 -11   8    9.42    3.38   1
  -1 -11   9   58.52    5.20   1
  -1 -11  10    7.67    3.60   1
  -1 -11  11    1.00    3.00   1
  -1 -11  12    5.38    3.39   1
  -1 -11  13    3.80    3.51   1
  -1 -11  14    3.10    3.10   1
  -1 -11  15   -2.50    2.40   1
  -1 -11  16   41.34    4.24   1
  -1 -11  17   12.60    4.33   1
  -1 -11  18   81.54    6.68   1
  -1 -11  19   18.23    4.53   1
  -1 -11  20    0.10    3.44   1
  -1 -11  21   25.70    4.77   1
  -1 -11  22    2.69    3.90   1
  -1 -11  23   30.25    4.62   1
  -1 -11  24   24.01    5.19   1
  -1 -11  25    9.99    4.61   1
  -1 -11  26   -0.10    3.85   1
  -1 -11  27   11.90    4.69   1
  -1 -11  28   -3.80    4.80   1
  -1 -11  29    3.50    3.59   1
  -1 -11  30    5.52    4.79   1
  -1 -11  31    4.00    5.20   1
  -1 -11  32   26.83    7.15   1
  -1 -11  33    7.51    5.81   1
  -1 -11  34   -2.59    6.18   1
  -1 -11  35    4.71    4.60   1
  -1 -10 -38    1.00    4.50   1
  -1 -10 -37    5.29    5.01   1
  -1 -10 -36    5.71    5.31   1
  -1 -10 -35   -0.30    5.22   1
  -1 -10 -34    6.81    3.81   1
  -1 -10 -33    6.50    4.59   1
  -1 -10 -32    4.49    4.28   1
  -1 -10 -31   -4.00    4.08   1
  -1 -10 -30   18.49    4.99   1
  -1 -10 -29    1.90    3.20   1
  -1 -10 -28    0.40    2.49   1
  -1 -10 -27    3.50    4.60   1
  -1 -10 -26    0.30    3.82   1
  -1 -10 -25    5.62    3.79   1
  -1 -10 -24   11.90    3.73   1
  -1 -10 -23    1.30    2.39   1
  -1 -10 -22   -1.00    3.00   1
  -1 -10 -21    3.39    2.98   1
  -1 -10 -20    0.59    2.99   1
  -1 -10 -19   36.36    4.94   1
  -1 -10 -18   43.56    5.15   1
  -1 -10 -17   30.36    4.08   1
  -1 -10 -16   52.13    4.19   1
  -1 -10 -15  585.64   33.40   1
  -1 -10 -14   19.89    3.39   1
  -1 -10 -13   60.06    6.04   1
  -1 -10 -12   74.82    6.23   1
  -1 -10 -11   -0.10    2.73   1
  -1 -10 -10    3.39    2.91   1
  -1 -10  -9   19.71    3.64   1
  -1 -10  -8   -2.69    1.90   1
  -1 -10  -7    1.49    2.59   1
  -1 -10  -6    2.79    2.00   1
  -1 -10  -5    8.88    2.68   1
  -1 -10  -4   35.05    3.91   1
  -1 -10  -3  201.36   12.77   1
  -1 -10  -2   82.08    5.44   1
  -1 -10  -1    6.92    2.79   1
  -1 -10   0    1.39    2.60   1
  -1 -10   1    6.30    2.61   1
  -1 -10   2    1.90    2.29   1
  -1 -10   3   61.15    4.54   1
  -1 -10   4    0.71    2.40   1
  -1 -10   5    3.39    1.80   1
  -1 -10   6   12.11    2.30   1
  -1 -10   7    1.10    2.39   1
  -1 -10   8   -0.20    2.52   1
  -1 -10   9   36.24    4.33   1
  -1 -10  10   26.83    3.21   1
  -1 -10  11    1.99    2.68   1
  -1 -10  12    1.30    2.90   1
  -1 -10  13   -1.21    1.72   1
  -1 -10  14   11.97    3.39   1
  -1 -10  15    8.70    2.71   1
  -1 -10  16    1.21    2.62   1
  -1 -10  17    4.08    2.18   1
  -1 -10  18   12.89    3.88   1
  -1 -10  19    0.50    3.31   1
  -1 -10  20   33.06    4.60   1
  -1 -10  21  184.14   10.31   1
  -1 -10  22   -0.79    3.49   1
  -1 -10  23   -2.31    3.71   1
  -1 -10  24   37.21    5.25   1
  -1 -10  25   17.22    4.23   1
  -1 -10  26    6.71    3.21   1
  -1 -10  27   -2.10    4.09   1
  -1 -10  28    6.71    3.99   1
  -1 -10  29   -0.20    2.52   1
  -1 -10  30   40.58    5.86   1
  -1 -10  31   16.81    4.92   1
  -1 -10  32    3.69    4.68   1
  -1 -10  33  105.88    8.64   1
  -1 -10  34   -3.88    5.48   1
  -1 -10  35    1.49    4.98   1
  -1 -10  36   -5.71    5.40   1
  -1 -10  37   -6.20    5.48   1
  -1 -10  38    0.50    6.02   1
  -1  -9 -40    4.71    5.69   1
  -1  -9 -39   -5.20    4.61   1
  -1  -9 -38    4.58    5.09   1
  -1  -9 -37   17.14    5.13   1
  -1  -9 -36   -7.90    4.22   1
  -1  -9 -35    2.10    5.02   1
  -1  -9 -34    8.41    5.22   1
  -1  -9 -33   11.70    3.63   1
  -1  -9 -32   22.37    4.64   1
  -1  -9 -31    7.67    4.21   1
  -1  -9 -30    1.99    3.78   1
  -1  -9 -29    2.40    3.50   1
  -1  -9 -28    7.08    3.51   1
  -1  -9 -27   57.00    5.59   1
  -1  -9 -26    5.62    3.22   1
  -1  -9 -25    5.38    3.11   1
  -1  -9 -24   -0.20    3.01   1
  -1  -9 -23   12.11    2.92   1
  -1  -9 -22   -0.90    2.70   1
  -1  -9 -21   61.00    5.00   1
  -1  -9 -20    0.50    2.91   1
  -1  -9 -19   -3.20    2.51   1
  -1  -9 -18   15.52    2.84   1
  -1  -9 -17   23.91    4.01   1
  -1  -9 -16   51.55    4.60   1
  -1  -9 -15   -1.99    2.28   1
  -1  -9 -14   19.54    3.01   1
  -1  -9 -13   11.49    2.51   1
  -1  -9 -12   16.73    3.03   1
  -1  -9 -11   12.53    2.83   1
  -1  -9 -10   51.70    5.03   1
  -1  -9  -9  224.70   11.69   1
  -1  -9  -8   74.48    6.04   1
  -1  -9  -7    5.20    2.51   1
  -1  -9  -6   38.94    3.74   1
  -1  -9  -5   41.86    3.62   1
  -1  -9  -4   21.72    2.80   1
  -1  -9  -3  102.01    6.46   1
  -1  -9  -2   -0.90    1.71   1
  -1  -9  -1   13.62    2.58   1
  -1  -9   0   18.40    3.17   1
  -1  -9   1    5.52    2.21   1
  -1  -9   2    6.71    2.80   1
  -1  -9   3   82.81    5.82   1
  -1  -9   4   25.40    3.33   1
  -1  -9   5    2.10    2.09   1
  -1  -9   6    1.99    1.69   1
  -1  -9   7   10.11    2.80   1
  -1  -9   8    0.59    2.19   1
  -1  -9   9  180.63    8.60   1
  -1  -9  10   13.18    2.61   1
  -1  -9  11    8.53    2.63   1
  -1  -9  12   43.16    4.20   1
  -1  -9  13    7.51    2.79   1
  -1  -9  14   -1.30    2.51   1
  -1  -9  15   41.86    3.88   1
  -1  -9  16    5.11    2.71   1
  -1  -9  17    2.69    2.49   1
  -1  -9  18   47.06    4.66   1
  -1  -9  19   14.90    3.71   1
  -1  -9  20    2.19    2.49   1
  -1  -9  21  132.02    8.96   1
  -1  -9  22   25.81    4.17   1
  -1  -9  23    7.51    2.52   1
  -1  -9  24    1.90    3.09   1
  -1  -9  25    1.80    2.30   1
  -1  -9  26   14.21    4.00   1
  -1  -9  27   94.28    6.60   1
  -1  -9  28    6.20    3.78   1
  -1  -9  29    7.40    4.03   1
  -1  -9  30    4.00    4.20   1
  -1  -9  31   22.00    5.44   1
  -1  -9  32   -1.49    3.59   1
  -1  -9  33   -1.30    4.79   1
  -1  -9  34   14.52    3.28   1
  -1  -9  35   33.41    5.90   1
  -1  -9  36   21.62    5.49   1
  -1  -9  37    4.20    5.21   1
  -1  -9  38    3.61    6.00   1
  -1  -9  39    3.69    4.88   1
  -1  -9  40    5.20    5.38   1
  -1  -9  41   12.11    5.50   1
  -1  -8 -42   -0.90    5.30   1
  -1  -8 -41    5.90    4.81   1
  -1  -8 -40    4.00    5.08   1
  -1  -8 -39    9.42    5.10   1
  -1  -8 -38    5.52    4.89   1
  -1  -8 -37    5.02    4.30   1
  -1  -8 -36   16.40    3.40   1
  -1  -8 -35    7.08    4.79   1
  -1  -8 -34    1.69    3.59   1
  -1  -8 -33   39.82    5.05   1
  -1  -8 -32    5.90    3.79   1
  -1  -8 -31    4.58    3.68   1
  -1  -8 -30    2.40    2.60   1
  -1  -8 -29   40.32    4.95   1
  -1  -8 -28   10.50    3.63   1
  -1  -8 -27   -0.50    2.71   1
  -1  -8 -26    1.39    2.60   1
  -1  -8 -25    3.31    2.11   1
  -1  -8 -24    1.00    2.80   1
  -1  -8 -23    0.79    2.79   1
  -1  -8 -22    1.39    2.78   1
  -1  -8 -21   11.09    3.53   1
  -1  -8 -20   14.82    2.69   1
  -1  -8 -19   23.72    2.73   1
  -1  -8 -18  114.28    8.55   1
  -1  -8 -17    1.21    2.31   1
  -1  -8 -16   25.40    3.73   1
  -1  -8 -15   11.49    2.10   1
  -1  -8 -14   11.29    2.82   1
  -1  -8 -13    8.82    2.49   1
  -1  -8 -12  227.71   13.28   1
  -1  -8 -11   29.92    3.28   1
  -1  -8 -10    3.61    1.90   1
  -1  -8  -9   25.00    2.80   1
  -1  -8  -8   -0.50    1.80   1
  -1  -8  -7   -0.71    1.71   1
  -1  -8  -6   77.97    4.59   1
  -1  -8  -5    4.08    1.90   1
  -1  -8  -4    4.41    1.72   1
  -1  -8  -3  260.50   12.59   1
  -1  -8  -2    1.30    1.80   1
  -1  -8  -1    1.49    1.20   1
  -1  -8   0   87.42    5.98   1
  -1  -8   1    1.59    1.18   1
  -1  -8   2  215.21   10.86   1
  -1  -8   3  622.50   30.94   1
  -1  -8   4  113.85    6.40   1
  -1  -8   5   -0.10    1.41   1
  -1  -8   6   11.49    2.31   1
  -1  -8   7    3.80    1.29   1
  -1  -8   8    3.80    1.99   1
  -1  -8   9    2.10    1.39   1
  -1  -8  10   11.29    2.49   1
  -1  -8  11   13.47    2.79   1
  -1  -8  12   -3.88    2.21   1
  -1  -8  13    3.20    2.40   1
  -1  -8  14    1.39    1.89   1
  -1  -8  15   98.01    6.34   1
  -1  -8  16    2.10    1.51   1
  -1  -8  17   25.50    3.03   1
  -1  -8  18  115.99    7.11   1
  -1  -8  19   76.39    5.24   1
  -1  -8  20    4.08    2.91   1
  -1  -8  21    3.80    2.69   1
  -1  -8  22    1.59    2.70   1
  -1  -8  23    6.20    3.39   1
  -1  -8  24   21.34    3.70   1
  -1  -8  25    1.69    2.89   1
  -1  -8  26    3.69    2.19   1
  -1  -8  27    0.79    2.79   1
  -1  -8  28    0.50    2.00   1
  -1  -8  29   36.12    4.93   1
  -1  -8  30   23.43    4.55   1
  -1  -8  31    7.29    2.81   1
  -1  -8  32   -0.20    3.62   1
  -1  -8  33    0.20    3.62   1
  -1  -8  34   10.18    4.27   1
  -1  -8  35    7.08    4.31   1
  -1  -8  36    4.28    4.31   1
  -1  -8  37    1.80    3.59   1
  -1  -8  38    2.50    3.19   1
  -1  -8  39   -3.80    3.39   1
  -1  -8  40   -3.10    3.70   1
  -1  -8  41    6.10    4.40   1
  -1  -8  42    8.70    5.72   1
  -1  -8  43    2.99    6.09   1
  -1  -7 -44    0.79    4.68   1
  -1  -7 -43    6.81    4.80   1
  -1  -7 -42   45.29    6.60   1
  -1  -7 -41   28.52    5.87   1
  -1  -7 -40   15.37    4.78   1
  -1  -7 -39   12.60    4.69   1
  -1  -7 -38    8.53    3.33   1
  -1  -7 -37   13.18    4.28   1
  -1  -7 -36   76.56    8.05   1
  -1  -7 -35   15.60    3.87   1
  -1  -7 -34    4.28    3.60   1
  -1  -7 -33   12.82    4.08   1
  -1  -7 -32    3.61    3.50   1
  -1  -7 -31    5.71    3.20   1
  -1  -7 -30   24.40    3.75   1
  -1  -7 -29    6.20    2.49   1
  -1  -7 -28   25.10    3.51   1
  -1  -7 -27   22.94    3.74   1
  -1  -7 -26   -1.30    1.71   1
  -1  -7 -25    0.90    1.90   1
  -1  -7 -24   -0.90    2.30   1
  -1  -7 -23    5.02    2.60   1
  -1  -7 -22   19.54    3.54   1
  -1  -7 -21   27.56    3.26   1
  -1  -7 -20   41.86    4.53   1
  -1  -7 -19    0.90    1.60   1
  -1  -7 -18    0.59    1.49   1
  -1  -7 -17   -1.21    1.41   1
  -1  -7 -16    0.30    1.90   1
  -1  -7 -15   18.84    3.04   1
  -1  -7 -14    4.20    2.09   1
  -1  -7 -13    2.69    1.80   1
  -1  -7 -12   40.96    3.20   1
  -1  -7 -11   19.18    2.80   1
  -1  -7 -10   35.76    3.35   1
  -1  -7  -9  194.04   10.59   1
  -1  -7  -8   21.44    2.59   1
  -1  -7  -7    2.10    1.71   1
  -1  -7  -6   50.55    3.41   1
  -1  -7  -5   13.76    1.71   1
  -1  -7  -4   26.94    3.22   1
  -1  -7  -3  137.83    7.04   1
  -1  -7  -2   44.49    3.34   1
  -1  -7  -1    1.10    1.01   1
  -1  -7   0  213.16   10.80   1
  -1  -7   1    0.71    1.61   1
  -1  -7   2   19.18    2.80   1
  -1  -7   3   73.10    5.13   1
  -1  -7   4    3.80    1.79   1
  -1  -7   5    1.99    1.61   1
  -1  -7   6  299.64   13.85   1
  -1  -7   7    9.61    2.42   1
  -1  -7   8   -1.00    1.50   1
  -1  -7   9   66.10    4.88   1
  -1  -7  10    1.90    1.60   1
  -1  -7  11    0.40    1.20   1
  -1  -7  12  123.65    6.00   1
  -1  -7  13   16.81    2.30   1
  -1  -7  14    3.69    1.80   1
  -1  -7  15    4.28    1.78   1
  -1  -7  16    2.31    2.01   1
  -1  -7  17   -0.10    2.12   1
  -1  -7  18  139.24    7.79   1
  -1  -7  19   -2.89    2.11   1
  -1  -7  20   17.39    2.92   1
  -1  -7  21   25.60    3.24   1
  -1  -7  22    1.99    2.28   1
  -1  -7  23   32.72    3.78   1
  -1  -7  24   -0.30    1.80   1
  -1  -7  25   28.30    3.94   1
  -1  -7  26    8.29    3.11   1
  -1  -7  27    1.39    3.09   1
  -1  -7  28   10.63    3.52   1
  -1  -7  29    2.79    3.41   1
  -1  -7  30   35.64    3.34   1
  -1  -7  31    8.01    3.79   1
  -1  -7  32   -1.10    2.90   1
  -1  -7  33   13.99    3.96   1
  -1  -7  34    4.49    2.80   1
  -1  -7  35    6.40    2.99   1
  -1  -7  36   10.11    4.32   1
  -1  -7  37   -0.59    3.48   1
  -1  -7  38   -1.49    4.07   1
  -1  -7  39   21.16    5.52   1
  -1  -7  40    0.90    3.21   1
  -1  -7  41    2.10    3.51   1
  -1  -7  42   24.40    5.73   1
  -1  -7  43    1.21    5.63   1
  -1  -7  44   -6.40    5.52   1
  -1  -7  45    1.49    5.08   1
  -1  -6 -46    9.61    5.39   1
  -1  -6 -45   20.70    6.28   1
  -1  -6 -44    8.70    5.07   1
  -1  -6 -43   -1.21    4.42   1
  -1  -6 -42   12.39    5.07   1
  -1  -6 -41    4.49    4.20   1
  -1  -6 -40    3.69    4.38   1
  -1  -6 -39   22.09    4.61   1
  -1  -6 -38    8.12    3.82   1
  -1  -6 -37    3.10    3.80   1
  -1  -6 -36    8.70    3.30   1
  -1  -6 -35   17.14    4.39   1
  -1  -6 -34   42.25    4.81   1
  -1  -6 -33   -2.50    3.00   1
  -1  -6 -32    8.18    3.09   1
  -1  -6 -31   12.39    2.89   1
  -1  -6 -30  321.13   20.79   1
  -1  -6 -29   28.73    3.43   1
  -1  -6 -28    0.90    2.51   1
  -1  -6 -27    3.69    2.38   1
  -1  -6 -26    2.69    2.79   1
  -1  -6 -25   15.76    3.10   1
  -1  -6 -24  161.80    9.67   1
  -1  -6 -23   12.89    2.80   1
  -1  -6 -22    6.10    2.32   1
  -1  -6 -21   -1.80    1.90   1
  -1  -6 -20   14.90    2.62   1
  -1  -6 -19    9.12    2.30   1
  -1  -6 -18   75.34    5.56   1
  -1  -6 -17    1.21    1.91   1
  -1  -6 -16   -0.40    1.59   1
  -1  -6 -15    8.58    2.29   1
  -1  -6 -14    9.61    1.98   1
  -1  -6 -13    0.40    1.10   1
  -1  -6 -12   52.85    5.23   1
  -1  -6 -11    4.08    1.29   1
  -1  -6 -10    9.42    2.03   1
  -1  -6  -9   19.80    2.14   1
  -1  -6  -8    0.00    1.00   1
  -1  -6  -7    1.49    1.29   1
  -1  -6  -6   -0.20    1.41   1
  -1  -6  -5   16.81    1.89   1
  -1  -6  -4   87.61    4.49   1
  -1  -6  -3  299.29   11.07   1
  -1  -6  -2  102.21    6.07   1
  -1  -6  -1   18.58    1.72   1
  -1  -6   0  556.02   24.52   1
  -1  -6   1    0.10    1.32   1
  -1  -6   2   18.58    1.90   1
  -1  -6   3  403.21   20.08   1
  -1  -6   4   13.76    1.78   1
  -1  -6   5    1.49    1.59   1
  -1  -6   6   34.46    2.35   1
  -1  -6   7    7.08    1.49   1
  -1  -6   8    1.00    1.40   1
  -1  -6   9   12.60    1.92   1
  -1  -6  10    3.20    1.50   1
  -1  -6  11   19.89    2.59   1
  -1  -6  12    8.58    1.82   1
  -1  -6  13   12.39    2.60   1
  -1  -6  14   28.09    2.54   1
  -1  -6  15  118.37    7.40   1
  -1  -6  16   10.63    1.89   1
  -1  -6  17    3.39    1.91   1
  -1  -6  18    1.99    1.89   1
  -1  -6  19   38.07    3.58   1
  -1  -6  20   33.18    2.76   1
  -1  -6  21   10.18    1.91   1
  -1  -6  22    8.18    2.57   1
  -1  -6  23    9.99    2.72   1
  -1  -6  24   67.57    5.10   1
  -1  -6  25    1.00    1.70   1
  -1  -6  26   -2.69    2.39   1
  -1  -6  27    1.39    2.38   1
  -1  -6  27   -0.90    2.30   1
  -1  -6  28   -1.59    2.39   1
  -1  -6  28    1.59    2.09   1
  -1  -6  29   11.09    2.93   1
  -1  -6  29    5.81    2.22   1
  -1  -6  30  177.69   11.20   1
  -1  -6  30  154.26    8.45   1
  -1  -6  31    3.31    3.02   1
  -1  -6  31    5.38    3.02   1
  -1  -6  32    1.21    3.10   1
  -1  -6  33    3.69    3.38   1
  -1  -6  34   -0.30    2.31   1
  -1  -6  34   -0.50    3.41   1
  -1  -6  35    9.18    2.79   1
  -1  -6  35   11.42    3.52   1
  -1  -6  36   38.44    4.46   1
  -1  -6  36   36.84    5.83   1
  -1  -6  37    7.90    2.92   1
  -1  -6  37   10.89    2.77   1
  -1  -6  38    5.62    2.99   1
  -1  -6  38    5.90    3.01   1
  -1  -6  39   13.10    3.98   1
  -1  -6  39    7.67    4.49   1
  -1  -6  40   32.95    5.28   1
  -1  -6  40   21.53    5.48   1
  -1  -6  41    0.20    4.53   1
  -1  -6  41   -0.71    4.32   1
  -1  -6  42    7.78    5.41   1
  -1  -6  42    7.29    4.48   1
  -1  -6  43    7.90    5.00   1
  -1  -6  43    9.30    5.00   1
  -1  -6  44   11.09    5.73   1
  -1  -6  44   22.37    5.11   1
  -1  -6  45   -9.18    5.27   1
  -1  -6  45   -1.10    5.71   1
  -1  -6  46   -0.79    6.18   1
  -1  -5 -47    1.49    4.29   1
  -1  -5 -46    2.10    4.81   1
  -1  -5 -45   35.16    6.29   1
  -1  -5 -44    9.61    3.72   1
  -1  -5 -43   -0.20    4.43   1
  -1  -5 -42   19.54    4.86   1
  -1  -5 -41    7.90    4.38   1
  -1  -5 -40    8.12    3.82   1
  -1  -5 -38   13.10    4.63   1
  -1  -5 -37   36.12    4.69   1
  -1  -5 -36  169.52   13.02   1
  -1  -5 -35   17.64    2.60   1
  -1  -5 -34    0.00    1.00   1
  -1  -5 -33   81.36    7.04   1
  -1  -5 -32    4.00    2.20   1
  -1  -5 -31    9.49    2.71   1
  -1  -5 -30  109.62    7.96   1
  -1  -5 -29   15.60    3.08   1
  -1  -5 -28    2.69    2.59   1
  -1  -5 -27   25.70    3.35   1
  -1  -5 -26    1.49    2.00   1
  -1  -5 -25    3.61    2.01   1
  -1  -5 -24   11.22    2.01   1
  -1  -5 -23    0.20    1.11   1
  -1  -5 -23   -0.79    1.80   1
  -1  -5 -22    9.99    1.33   1
  -1  -5 -22   11.42    2.50   1
  -1  -5 -21   30.47    1.99   1
  -1  -5 -21   25.40    3.02   1
  -1  -5 -20   30.25    3.19   1
  -1  -5 -20   26.94    1.76   1
  -1  -5 -19    1.10    1.81   1
  -1  -5 -19    3.39    0.81   1
  -1  -5 -18    9.61    1.12   1
  -1  -5 -18    8.88    2.03   1
  -1  -5 -17    5.81    0.72   1
  -1  -5 -17    0.71    1.81   1
  -1  -5 -16    5.52    1.69   1
  -1  -5 -16    7.29    0.70   1
  -1  -5 -15    1.49    0.39   1
  -1  -5 -15    1.69    1.51   1
  -1  -5 -14   40.58    1.53   1
  -1  -5 -14   35.05    3.08   1
  -1  -5 -13   34.46    2.82   1
  -1  -5 -12   74.82    4.67   1
  -1  -5 -11   10.63    1.70   1
  -1  -5 -10    4.80    1.62   1
  -1  -5  -9   15.52    2.13   1
  -1  -5  -8    6.60    1.70   1
  -1  -5  -7    2.31    1.40   1
  -1  -5  -6   81.36    4.69   1
  -1  -5  -5    6.10    1.19   1
  -1  -5  -4   23.43    2.32   1
  -1  -5  -3  304.85   14.32   1
  -1  -5  -2   34.46    2.35   1
  -1  -5  -1    2.79    1.00   1
  -1  -5   0  173.45   10.01   1
  -1  -5   1    1.39    1.09   1
  -1  -5   2   68.06    3.63   1
  -1  -5   3  402.00   16.44   1
  -1  -5   4   50.84    2.99   1
  -1  -5   5   20.34    1.89   1
  -1  -5   6   23.23    1.93   1
  -1  -5   7    6.30    1.51   1
  -1  -5   8    3.31    1.20   1
  -1  -5   9  111.51    5.70   1
  -1  -5  10    4.41    1.39   1
  -1  -5  11   29.05    2.37   1
  -1  -5  12  314.35   13.47   1
  -1  -5  13   26.32    2.36   1
  -1  -5  14   18.49    1.81   1
  -1  -5  15    0.20    1.41   1
  -1  -5  16    3.80    1.60   1
  -1  -5  17    5.29    1.61   1
  -1  -5  18    4.41    1.81   1
  -1  -5  19   82.81    4.73   1
  -1  -5  20   70.90    4.88   1
  -1  -5  20  101.40    5.84   1
  -1  -5  21    4.49    2.08   1
  -1  -5  21    0.79    1.80   1
  -1  -5  22   38.94    3.24   1
  -1  -5  22   47.75    4.15   1
  -1  -5  23    0.00    1.00   1
  -1  -5  23    0.71    2.10   1
  -1  -5  24   22.66    2.76   1
  -1  -5  24   14.59    2.60   1
  -1  -5  25   11.83    2.61   1
  -1  -5  25   11.09    3.13   1
  -1  -5  26    4.08    1.98   1
  -1  -5  26    1.10    2.39   1
  -1  -5  27   44.76    3.88   1
  -1  -5  27   30.47    3.53   1
  -1  -5  28   31.58    4.61   1
  -1  -5  28   43.96    3.58   1
  -1  -5  29    4.20    2.50   1
  -1  -5  29    1.80    2.60   1
  -1  -5  30   -0.90    1.71   1
  -1  -5  30   -0.20    2.62   1
  -1  -5  31   22.18    3.67   1
  -1  -5  31   20.34    3.61   1
  -1  -5  32   10.82    3.29   1
  -1  -5  32   14.59    3.13   1
  -1  -5  33   -0.50    2.91   1
  -1  -5  33    1.21    2.71   1
  -1  -5  34    7.08    3.62   1
  -1  -5  34    6.30    3.21   1
  -1  -5  35    8.53    3.39   1
  -1  -5  35    7.08    2.18   1
  -1  -5  36  148.84   11.96   1
  -1  -5  36  129.50   10.24   1
  -1  -5  37    1.90    3.62   1
  -1  -5  37    1.90    2.51   1
  -1  -5  38    2.99    2.80   1
  -1  -5  38    3.10    3.48   1
  -1  -5  39   25.70    5.58   1
  -1  -5  39   39.94    5.56   1
  -1  -5  40   -0.90    2.60   1
  -1  -5  40    0.40    3.69   1
  -1  -5  41    1.90    3.70   1
  -1  -5  41    0.50    4.52   1
  -1  -5  42   25.81    5.18   1
  -1  -5  42   24.30    5.82   1
  -1  -5  43   13.32    3.72   1
  -1  -5  43    2.59    4.28   1
  -1  -5  44   -2.10    4.81   1
  -1  -5  44    0.10    3.14   1
  -1  -5  45   59.14    7.38   1
  -1  -5  45   57.61    8.05   1
  -1  -5  46   -5.71    5.40   1
  -1  -5  46    1.80    3.59   1
  -1  -4 -48   -3.39    5.70   1
  -1  -4 -45    1.21    3.61   1
  -1  -4 -44    3.88    4.18   1
  -1  -4 -41    8.82    2.79   1
  -1  -4 -38   26.94    4.15   1
  -1  -4 -37   10.63    3.59   1
  -1  -4 -35   -0.10    3.03   1
  -1  -4 -34   -4.08    2.91   1
  -1  -4 -33  186.87   10.12   1
  -1  -4 -32   35.28    3.80   1
  -1  -4 -31    2.40    2.20   1
  -1  -4 -30  144.48    9.62   1
  -1  -4 -29    3.39    1.58   1
  -1  -4 -28    2.50    2.09   1
  -1  -4 -27    7.51    1.81   1
  -1  -4 -26   11.22    2.41   1
  -1  -4 -25   14.90    2.39   1
  -1  -4 -24   17.89    2.79   1
  -1  -4 -23    0.30    1.80   1
  -1  -4 -22    2.19    1.69   1
  -1  -4 -21   16.32    2.18   1
  -1  -4 -20    3.39    1.58   1
  -1  -4 -19    9.42    2.03   1
  -1  -4 -18  151.78    8.62   1
  -1  -4 -17   10.30    1.80   1
  -1  -4 -17   13.62    1.40   1
  -1  -4 -16    0.40    1.30   1
  -1  -4 -16    0.59    0.60   1
  -1  -4 -15  389.27   16.97   1
  -1  -4 -14   15.60    1.19   1
  -1  -4 -14   17.72    1.94   1
  -1  -4 -13    2.19    1.30   1
  -1  -4 -13    5.11    0.59   1
  -1  -4 -12  358.72   14.39   1
  -1  -4 -12  268.96   13.12   1
  -1  -4 -11   22.56    1.04   1
  -1  -4 -11   15.92    1.84   1
  -1  -4 -10    0.10    0.20   1
  -1  -4 -10   -0.59    0.89   1
  -1  -4  -9  211.70   10.48   1
  -1  -4  -8   14.06    1.57   1
  -1  -4  -7    4.00    1.12   1
  -1  -4  -6  113.21    5.53   1
  -1  -4  -5   67.57    3.45   1
  -1  -4  -4   50.55    3.13   1
  -1  -4  -3    3.39    0.81   1
  -1  -4  -2   38.07    2.59   1
  -1  -4  -1   35.52    2.26   1
  -1  -4   0  208.80    9.83   1
  -1  -4   1   45.83    2.98   1
  -1  -4   2   14.82    1.39   1
  -1  -4   3  599.27   23.01   1
  -1  -4   6  154.50    8.70   1
  -1  -4   7   -0.30    1.00   1
  -1  -4   8   27.04    2.08   1
  -1  -4   9  275.89   14.95   1
  -1  -4  10   18.32    1.97   1
  -1  -4  11   22.00    2.16   1
  -1  -4  12   26.21    2.66   1
  -1  -4  13   20.88    2.01   1
  -1  -4  14   -0.20    1.31   1
  -1  -4  15    1.59    1.49   1
  -1  -4  15   -0.50    1.31   1
  -1  -4  16    8.29    1.79   1
  -1  -4  16    4.08    1.29   1
  -1  -4  17   56.55    3.61   1
  -1  -4  17   65.12    3.87   1
  -1  -4  18  199.09    9.59   1
  -1  -4  18  254.40    9.89   1
  -1  -4  19   14.90    2.01   1
  -1  -4  19   17.31    2.33   1
  -1  -4  20    6.50    1.58   1
  -1  -4  20    8.12    1.71   1
  -1  -4  21   76.56    5.07   1
  -1  -4  21   55.95    3.74   1
  -1  -4  22   68.56    4.14   1
  -1  -4  23    9.18    2.48   1
  -1  -4  23   13.40    2.64   1
  -1  -4  24  156.50    9.51   1
  -1  -4  24  123.21    7.10   1
  -1  -4  25   36.12    3.85   1
  -1  -4  25   37.70    4.54   1
  -1  -4  26   36.97    3.65   1
  -1  -4  26   27.56    3.15   1
  -1  -4  27   22.09    3.20   1
  -1  -4  27   33.76    3.25   1
  -1  -4  28    4.28    2.61   1
  -1  -4  28    5.02    2.28   1
  -1  -4  29    5.71    2.92   1
  -1  -4  29    2.69    2.69   1
  -1  -4  30  378.69   17.12   1
  -1  -4  30  343.73   17.06   1
  -1  -4  31   41.34    4.24   1
  -1  -4  31   38.81    4.24   1
  -1  -4  32   87.24    5.98   1
  -1  -4  32   87.80    7.31   1
  -1  -4  33   18.58    3.36   1
  -1  -4  33   14.98    3.17   1
  -1  -4  34  125.22    8.28   1
  -1  -4  34  115.56    7.95   1
  -1  -4  35    0.20    3.12   1
  -1  -4  35    9.00    3.72   1
  -1  -4  36   -1.39    2.50   1
  -1  -4  36    1.59    1.99   1
  -1  -4  37    7.18    3.48   1
  -1  -4  37    6.71    2.90   1
  -1  -4  38   25.40    5.04   1
  -1  -4  38   23.23    4.63   1
  -1  -4  39   55.20    5.35   1
  -1  -4  39   56.55    6.17   1
  -1  -4  40   55.65    6.12   1
  -1  -4  40   33.52    5.33   1
  -1  -4  41   10.89    3.63   1
  -1  -4  41    7.18    3.59   1
  -1  -4  42    4.71    4.51   1
  -1  -4  43   -1.10    4.20   1
  -1  -4  44    0.40    2.89   1
  -1  -4  44   -1.00    4.40   1
  -1  -4  45    2.31    3.31   1
  -1  -4  45   -0.90    4.90   1
  -1  -4  46    0.00    1.00   1
  -1  -4  46    7.51    5.32   1
  -1  -4  47    1.59    3.98   1
  -1  -4  47   -1.39    4.89   1
  -1  -4  48   -1.39    5.88   1
  -1  -4  49    9.67    4.29   1
  -1  -3 -49    6.40    3.29   1
  -1  -3 -48    3.20    4.62   1
  -1  -3 -32   27.25    4.18   1
  -1  -3 -31  102.82    6.29   1
  -1  -3 -30    3.10    1.90   1
  -1  -3 -27  269.62   12.81   1
  -1  -3 -26   -0.71    1.81   1
  -1  -3 -25    0.00    1.00   1
  -1  -3 -24    0.20    1.71   1
  -1  -3 -23    2.89    1.80   1
  -1  -3 -22    7.29    1.89   1
  -1  -3 -21    1.59    1.29   1
  -1  -3 -20   26.83    3.00   1
  -1  -3 -19   11.90    2.07   1
  -1  -3 -18  110.88    5.90   1
  -1  -3 -17    1.99    0.90   1
  -1  -3 -16   35.64    2.75   1
  -1  -3 -15   13.10    1.59   1
  -1  -3 -14   49.14    3.22   1
  -1  -3 -13    7.90    1.29   1
  -1  -3 -12  107.33    6.42   1
  -1  -3 -11   -0.20    0.91   1
  -1  -3 -11    0.79    0.39   1
  -1  -3 -10    5.29    1.10   1
  -1  -3 -10    6.71    0.73   1
  -1  -3  -9  284.93   12.83   1
  -1  -3  -8    7.40    0.49   1
  -1  -3  -8    6.40    0.91   1
  -1  -3  -7    8.53    1.23   1
  -1  -3  -7    6.92    0.42   1
  -1  -3  -6    2.19    0.59   1
  -1  -3  -6    3.61    0.30   1
  -1  -3  -5  248.06   11.65   1
  -1  -3  -4  141.61    8.09   1
  -1  -3  -2   41.34    2.57   1
  -1  -3  -1   47.75    2.21   1
  -1  -3   0 1608.01   69.77   1
  -1  -3   1   54.76    3.26   1
  -1  -3   2    1.59    0.81   1
  -1  -3   3  250.59   10.45   1
  -1  -3   4   -0.30    0.61   1
  -1  -3   5   42.64    2.74   1
  -1  -3   6   38.69    2.24   1
  -1  -3   7   72.59    3.75   1
  -1  -3   8    5.29    1.10   1
  -1  -3   9   32.95    2.64   1
  -1  -3  10   21.07    1.29   1
  -1  -3  11    3.61    1.10   1
  -1  -3  11    2.50    0.70   1
  -1  -3  12   67.90    3.63   1
  -1  -3  12   69.22    3.49   1
  -1  -3  13   12.89    1.72   1
  -1  -3  13    7.90    1.29   1
  -1  -3  14   51.27    2.86   1
  -1  -3  14   47.20    2.75   1
  -1  -3  15  700.13   30.69   1
  -1  -3  15  877.94   31.41   1
  -1  -3  16   43.82    3.05   1
  -1  -3  16   49.28    3.37   1
  -1  -3  17   37.45    2.94   1
  -1  -3  17   38.19    2.97   1
  -1  -3  19   20.52    2.17   1
  -1  -3  19   16.56    2.04   1
  -1  -3  20    7.90    1.80   1
  -1  -3  20    5.71    1.82   1
  -1  -3  21  187.14    8.21   1
  -1  -3  21  227.41    9.95   1
  -1  -3  22    7.78    1.90   1
  -1  -3  22   12.32    2.11   1
  -1  -3  23   10.82    1.78   1
  -1  -3  23   12.67    2.06   1
  -1  -3  24   88.36    6.20   1
  -1  -3  24  117.94    6.30   1
  -1  -3  25   15.76    2.30   1
  -1  -3  25   20.16    2.51   1
  -1  -3  26    1.90    1.90   1
  -1  -3  27  310.82   14.10   1
  -1  -3  27  350.44   16.10   1
  -1  -3  28    0.71    2.50   1
  -1  -3  29    4.00    2.60   1
  -1  -3  29    5.38    2.18   1
  -1  -3  30   49.00    5.18   1
  -1  -3  30   54.91    4.59   1
  -1  -3  31    1.00    2.60   1
  -1  -3  31   -2.31    2.10   1
  -1  -3  32    4.20    3.32   1
  -1  -3  32   -1.49    2.29   1
  -1  -3  33  311.17   15.17   1
  -1  -3  34   51.84    5.76   1
  -1  -3  35    7.62    3.48   1
  -1  -3  35    7.40    3.21   1
  -1  -3  36  323.28   23.37   1
  -1  -3  38    5.20    3.19   1
  -1  -3  40    3.69    3.61   1
  -1  -3  41   -1.39    2.29   1
  -1  -3  42   -1.90    4.20   1
  -1  -3  42    0.40    2.29   1
  -1  -3  43    6.00    4.02   1
  -1  -3  44    2.50    2.91   1
  -1  -3  45    9.61    4.71   1
  -1  -3  46   -0.40    3.29   1
  -1  -3  47   -3.80    4.29   1
  -1  -3  48   -1.59    3.28   1
  -1  -3  49   25.70    6.39   1
  -1  -2 -50    1.69    3.09   1
  -1  -2 -49    0.00    1.00   1
  -1  -2 -48   43.30    6.84   1
  -1  -2 -45    2.99    3.60   1
  -1  -2 -23   15.92    2.23   1
  -1  -2 -22   12.89    1.72   1
  -1  -2 -21  175.03    8.73   1
  -1  -2 -20    2.19    1.30   1
  -1  -2 -19    2.10    1.39   1
  -1  -2 -18    6.50    1.48   1
  -1  -2 -17    4.08    1.41   1
  -1  -2 -16   -0.10    1.01   1
  -1  -2 -15  792.99   30.98   1
  -1  -2 -15  804.86   41.42   1
  -1  -2 -14    8.29    1.32   1
  -1  -2 -13    1.90    0.91   1
  -1  -2 -12  476.55   24.45   1
  -1  -2 -11    3.50    1.01   1
  -1  -2 -10   13.18    1.23   1
  -1  -2  -9  265.36   12.38   1
  -1  -2  -8   -0.40    0.59   1
  -1  -2  -8    1.00    0.40   1
  -1  -2  -6  120.78    5.49   1
  -1  -2  -6  146.89    6.06   1
  -1  -2  -5  131.79    5.74   1
  -1  -2  -4  101.61    5.85   1
  -1  -2  -3 3003.04  134.81   1
  -1  -2  -2   13.69    1.11   1
  -1  -2  -1   49.84    2.54   1
  -1  -2   0  106.30    5.77   1
  -1  -2   1   52.13    2.74   1
  -1  -2   2    5.29    0.69   1
  -1  -2   3 1624.90   54.82   1
  -1  -2   4    5.11    0.68   1
  -1  -2   5   29.70    1.85   1
  -1  -2   6   75.52    4.34   1
  -1  -2   7   42.38    2.60   1
  -1  -2   8   82.26    4.17   1
  -1  -2   8   65.45    3.56   1
  -1  -2   9    1.39    0.90   1
  -1  -2   9    3.39    0.81   1
  -1  -2  10    6.10    0.99   1
  -1  -2  10    8.53    1.11   1
  -1  -2  11    0.59    0.80   1
  -1  -2  11    0.59    0.80   1
  -1  -2  12  182.52    7.57   1
  -1  -2  12  137.59    7.51   1
  -1  -2  13    0.40    0.89   1
  -1  -2  13    1.90    0.91   1
  -1  -2  14   55.95    3.44   1
  -1  -2  14   48.58    3.07   1
  -1  -2  15  255.36   10.87   1
  -1  -2  15  308.00   12.99   1
  -1  -2  16   21.81    1.77   1
  -1  -2  16   14.52    1.98   1
  -1  -2  17   14.59    1.83   1
  -1  -2  17   14.67    1.61   1
  -1  -2  18  275.89   11.96   1
  -1  -2  18  337.82   14.34   1
  -1  -2  19   58.83    3.37   1
  -1  -2  19   47.33    3.16   1
  -1  -2  20   12.67    1.99   1
  -1  -2  20   11.02    1.73   1
  -1  -2  21    6.30    1.71   1
  -1  -2  21    8.29    1.50   1
  -1  -2  22   13.32    1.97   1
  -1  -2  22   19.01    2.18   1
  -1  -2  23   11.42    1.89   1
  -1  -2  23   15.21    2.42   1
  -1  -2  24  306.60   12.96   1
  -1  -2  24  255.04   13.41   1
  -1  -2  25    2.40    1.30   1
  -1  -2  25    2.50    1.61   1
  -1  -2  26    0.79    1.30   1
  -1  -2  26    0.10    1.11   1
  -1  -2  27   60.84    4.84   1
  -1  -2  27   59.44    4.78   1
  -1  -2  28    2.69    2.20   1
  -1  -2  28    2.50    1.71   1
  -1  -2  29   16.16    2.49   1
  -1  -2  29   20.70    2.73   1
  -1  -2  30    3.20    2.29   1
  -1  -2  31    5.52    2.49   1
  -1  -2  33  142.09    9.54   1
  -1  -2  34   52.85    4.94   1
  -1  -2  36   61.47    6.74   1
  -1  -2  39   36.60    4.11   1
  -1  -2  42    4.20    3.40   1
  -1  -2  43    4.58    3.51   1
  -1  -2  44   -1.21    2.71   1
  -1  -2  45    4.49    3.31   1
  -1  -2  46   -6.00    4.02   1
  -1  -2  47    0.71    2.70   1
  -1  -2  48    5.52    4.89   1
  -1  -1 -50    0.00    1.00   1
  -1  -1 -49    1.80    3.99   1
  -1  -1 -48    9.00    4.68   1
  -1  -1 -44    0.00    1.00   1
  -1  -1 -17    1.00    1.10   1
  -1  -1 -16    0.50    0.60   1
  -1  -1 -15  667.19   25.83   1
  -1  -1 -14    1.49    1.10   1
  -1  -1 -13    9.61    0.99   1
  -1  -1 -12  414.12   20.76   1
  -1  -1 -11    7.08    0.90   1
  -1  -1 -10    7.90    1.18   1
  -1  -1  -9  677.56   38.52   1
  -1  -1  -9  715.03   31.55   1
  -1  -1  -8   37.21    2.44   1
  -1  -1  -8   30.80    1.44   1
  -1  -1  -7    8.88    1.01   1
  -1  -1  -7    7.62    0.83   1
  -1  -1  -7    6.20    0.90   1
  -1  -1  -7    9.61    0.50   1
  -1  -1  -6   39.56    2.14   1
  -1  -1  -6   40.07    2.41   1
  -1  -1  -6   40.32    2.03   1
  -1  -1  -5    0.90    0.30   1
  -1  -1  -5    0.40    0.40   1
  -1  -1  -5    0.79    0.30   1
  -1  -1  -4    0.20    0.31   1
  -1  -1  -4   -0.10    0.30   1
  -1  -1  -3    6.71    0.41   1
  -1  -1  -3    7.02    0.48   1
  -1  -1   3  862.01   44.04   1
  -1  -1   4   38.32    2.10   1
  -1  -1   5    0.90    0.49   1
  -1  -1   6    2.50    0.60   1
  -1  -1   6    1.10    0.50   1
  -1  -1   7   11.02    0.93   1
  -1  -1   7   15.92    1.20   1
  -1  -1   8   24.21    1.57   1
  -1  -1   8   24.11    1.57   1
  -1  -1   9   10.63    1.17   1
  -1  -1   9    7.51    0.88   1
  -1  -1  10   27.98    1.90   1
  -1  -1  10   22.94    1.92   1
  -1  -1  11    2.89    0.78   1
  -1  -1  11    1.80    0.59   1
  -1  -1  12   58.68    3.06   1
  -1  -1  12   65.77    2.92   1
  -1  -1  13   24.21    1.77   1
  -1  -1  13   26.52    1.96   1
  -1  -1  14    4.58    1.11   1
  -1  -1  14    7.40    1.31   1
  -1  -1  15  127.92    6.79   1
  -1  -1  15   95.65    4.89   1
  -1  -1  16    1.10    0.90   1
  -1  -1  16    1.59    0.91   1
  -1  -1  17   28.30    2.23   1
  -1  -1  17   24.40    2.17   1
  -1  -1  18 1219.41   44.70   1
  -1  -1  18 1303.21   59.93   1
  -1  -1  19   87.98    5.25   1
  -1  -1  19   75.86    4.36   1
  -1  -1  20   24.60    2.48   1
  -1  -1  20   24.01    2.65   1
  -1  -1  21   57.00    3.93   1
  -1  -1  21   56.55    4.06   1
  -1  -1  22    2.50    1.61   1
  -1  -1  22   -0.20    1.01   1
  -1  -1  23   13.76    1.93   1
  -1  -1  23   15.60    2.13   1
  -1  -1  24    3.20    1.50   1
  -1  -1  24    7.18    2.09   1
  -1  -1  25    4.49    1.91   1
  -1  -1  25    7.90    1.80   1
  -1  -1  26    9.49    1.72   1
  -1  -1  26    8.41    1.91   1
  -1  -1  32    2.99    1.70   1
  -1  -1  32    0.40    1.69   1
  -1  -1  33  896.40   38.32   1
  -1  -1  34   33.99    3.96   1
  -1  -1  35    8.58    3.22   1
  -1  -1  36  166.41    9.80   1
  -1  -1  40   13.03    3.39   1
  -1  -1  41    8.82    2.73   1
  -1  -1  43   -1.10    3.70   1
  -1  -1  44   -2.79    3.51   1
  -1  -1  45   41.34    6.69   1
  -1  -1  46   15.68    4.83   1
  -1  -1  47    9.80    5.01   1
  -1  -1  47    8.70    3.19   1
  -1  -1  48   -7.51    4.60   1
  -1  -1  48    0.20    3.42   1
  -1  -1  49   32.15    7.14   1
  -1  -1  49   38.69    6.84   1
  -1  -1  50    1.10    5.61   1
  -1   0 -50    4.28    3.31   1
  -1   0 -48    5.02    3.09   1
  -1   0 -46   16.73    4.09   1
  -1   0  -6  528.08   36.31   1
  -1   0  -6  514.38   24.95   1
  -1   0  -6  438.48   20.94   1
  -1   0   6  515.29   25.42   1
  -1   0   6  470.02   20.81   1
  -1   0   8    2.99    0.59   1
  -1   0   8    3.80    0.59   1
  -1   0  10   10.69    0.92   1
  -1   0  10   10.63    0.91   1
  -1   0  10   10.63    0.98   1
  -1   0  12  447.32   16.92   1
  -1   0  12  488.41   21.22   1
  -1   0  14   13.32    1.10   1
  -1   0  14   15.52    1.58   1
  -1   0  16   -0.10    0.81   1
  -1   0  20    0.10    0.91   1
  -1   0  36   10.30    3.40   1
  -1   0  40   22.66    4.09   1
  -1   0  42   38.81    4.98   1
  -1   0  44    5.11    4.11   1
  -1   0  46    1.69    4.08   1
  -1   0  48  172.92   12.62   1
  -1   0  48  135.49   11.17   1
  -1   0  50    2.50    5.91   1
  -1   1  -7    7.51    0.71   1
  -1   1  -7    9.18    1.09   1
  -1   1  -6   36.24    2.17   1
  -1   1  -6   44.49    3.34   1
  -1   1  -5    0.10    0.40   1
  -1   1  -5    0.40    0.40   1
  -1   1  -5    0.90    0.49   1
  -1   1  -4   -0.10    0.40   1
  -1   1  -4   -0.40    0.40   1
  -1   1  -4   -0.30    0.30   1
  -1   1  -3    7.67    0.72   1
  -1   1  -3    5.29    0.51   1
  -1   1   4   47.75    2.49   1
  -1   1   4   41.60    2.32   1
  -1   1   5    1.49    0.39   1
  -1   1   5    1.99    0.39   1
  -1   1   6    1.59    0.40   1
  -1   1   6    0.90    0.30   1
  -1   1   7   13.99    1.12   1
  -1   1   7   13.76    0.96   1
  -1   1   8   26.32    1.85   1
  -1   1   8   25.10    1.80   1
  -1   1   9    9.12    1.03   1
  -1   1   9    8.82    1.19   1
  -1   1  10   20.79    1.64   1
  -1   1  11    2.19    0.89   1
  -1   1  12   61.47    3.29   1
  -1   1  15  111.30    4.85   1
  -1   1  16    1.21    0.70   1
  -1   1  17   23.91    2.84   1
  -1   1  36  188.24   10.43   1
  -1   1  39   41.73    4.52   1
  -1   1  40   10.89    3.63   1
  -1   1  43    1.99    3.58   1
  -1   1  44    1.30    3.81   1
  -1   1  44    4.08    4.00   1
  -1   1  45   32.95    5.85   1
  -1   1  45   50.84    6.70   1
  -1   1  46   24.30    5.32   1
  -1   1  46   19.89    4.82   1
  -1   1  47    5.29    5.38   1
  -1   1  47    0.00    1.00   1
  -1   1  48   -5.71    5.21   1
  -1   1  49   29.16    6.91   1
  -1   2  -6  121.22    7.27   1
  -1   2  -6  159.52    9.35   1
  -1   2  -5  195.44    9.23   1
  -1   2  -4  152.28    6.17   1
  -1   2  -2   13.62    1.33   1
  -1   2  -2   13.47    1.10   1
  -1   2  -1   48.30    3.34   1
  -1   2   0  148.60    5.85   1
  -1   2   0   99.60    6.19   1
  -1   2   1   55.06    2.97   1
  -1   2   1   46.79    3.01   1
  -1   2   2    3.39    0.70   1
  -1   2   2    3.69    0.50   1
  -1   2   3 1913.19   79.61   1
  -1   2   4    5.52    0.52   1
  -1   2   4    6.30    0.60   1
  -1   2   5   42.38    1.95   1
  -1   2   5   35.28    1.90   1
  -1   2   6   93.90    4.65   1
  -1   2   7   55.35    2.98   1
  -1   2   8   75.17    3.47   1
  -1   2  10    7.29    1.03   1
  -1   2  11    0.10    0.61   1
  -1   2  12  153.51    7.68   1
  -1   2  13    0.59    0.69   1
  -1   2  14   48.30    3.89   1
  -1   2  15  269.94   15.12   1
  -1   2  16   17.22    1.99   1
  -1   2  17   13.03    1.52   1
  -1   2  17   11.42    1.69   1
  -1   2  18  286.96   12.54   1
  -1   2  18  306.25   12.95   1
  -1   2  19   51.70    3.45   1
  -1   2  20    9.92    1.89   1
  -1   2  21    6.60    1.70   1
  -1   2  21    6.92    1.42   1
  -1   2  22   14.98    2.01   1
  -1   2  23    9.61    1.67   1
  -1   2  24  261.79   10.68   1
  -1   2  25    3.20    1.40   1
  -1   2  26    0.90    1.41   1
  -1   2  26    0.20    1.11   1
  -1   2  29   26.01    3.16   1
  -1   2  33  121.44    9.26   1
  -1   2  36   73.96    6.54   1
  -1   2  37   11.09    2.80   1
  -1   2  41    4.08    3.68   1
  -1   2  42   12.11    4.18   1
  -1   2  45    5.38    4.18   1
  -1   2  46   -4.08    4.81   1
  -1   2  47    2.79    5.28   1
  -1   2  48    1.80    5.09   1
  -1   2  49    0.20    5.23   1
  -1   2  50   -2.31    5.20   1
  -1   3  -4  162.56    7.65   1
  -1   3  -4  215.50   10.28   1
  -1   3  -2   40.45    2.04   1
  -1   3  -1   56.10    2.70   1
  -1   3   0 1742.23   74.30   1
  -1   3   1   57.46    2.88   1
  -1   3   2    1.59    0.50   1
  -1   3   3  293.44   10.96   1
  -1   3   4    0.59    0.49   1
  -1   3   5   62.41    2.84   1
  -1   3   6   52.85    2.47   1
  -1   3   7   81.18    3.78   1
  -1   3   8    5.20    0.68   1
  -1   3   9   40.45    1.91   1
  -1   3  10   22.00    1.97   1
  -1   3  11    4.80    0.79   1
  -1   3  12   69.72    4.18   1
  -1   3  13    9.80    1.31   1
  -1   3  14   56.55    3.01   1
  -1   3  15  784.56   40.33   1
  -1   3  16   47.89    3.04   1
  -1   3  17   44.62    2.94   1
  -1   3  18  104.45    4.91   1
  -1   3  19   18.58    1.81   1
  -1   3  22   11.49    2.10   1
  -1   3  40    1.90    2.40   1
  -1   3  46   -1.30    3.01   1
  -1   3  47    9.67    4.66   1
  -1   3  48   -1.49    5.08   1
  -1   3  49   19.98    6.88   1
  -1   4  -4   53.73    3.23   1
  -1   4  -3    5.90    0.78   1
  -1   4  -2   48.86    3.08   1
  -1   4  -2   41.47    2.32   1
  -1   4  -1   35.52    2.03   1
  -1   4  -1   46.79    2.46   1
  -1   4   0  224.70    9.59   1
  -1   4   1   47.33    2.34   1
  -1   4   2   16.32    1.21   1
  -1   4   3  712.36   32.03   1
  -1   4   4   31.47    1.57   1
  -1   4   5    5.38    0.70   1
  -1   4   6  215.21   10.27   1
  -1   4   7   -0.20    0.40   1
  -1   4   9  337.82   15.07   1
  -1   4  10   17.81    1.18   1
  -1   4  11   23.23    1.83   1
  -1   4  12   26.63    1.86   1
  -1   4  13   25.30    2.01   1
  -1   4  14    0.71    0.81   1
  -1   4  15    0.90    0.89   1
  -1   4  16    7.29    1.08   1
  -1   4  17   61.62    4.40   1
  -1   4  18  225.90    9.62   1
  -1   4  20    9.18    1.70   1
  -1   4  21   67.73    3.95   1
  -1   4  22   77.79    4.76   1
  -1   4  23   11.90    1.93   1
  -1   4  24  146.41    6.78   1
  -1   4  25   46.24    3.54   1
  -1   4  26   33.64    3.25   1
  -1   4  29    4.28    2.11   1
  -1   4  30  355.70   18.86   1
  -1   4  31   38.94    4.24   1
  -1   4  33   25.30    3.22   1
  -1   4  43    1.00    3.10   1
  -1   4  47    4.41    4.41   1
  -1   4  48   -1.90    4.91   1
  -1   4  49   -0.71    5.43   1
  -1   5  -5    4.71    1.09   1
  -1   5  -4   20.52    1.72   1
  -1   5  -3  355.70   14.33   1
  -1   5  -2   39.94    2.28   1
  -1   5  -1    2.19    0.80   1
  -1   5   0  207.94    7.79   1
  -1   5   1    0.30    0.70   1
  -1   5   2   77.26    4.04   1
  -1   5   3  473.06   23.05   1
  -1   5   4   66.75    3.43   1
  -1   5   5   27.25    1.67   1
  -1   5   6   31.36    1.79   1
  -1   5   7    6.60    0.72   1
  -1   5   8    3.10    0.60   1
  -1   5  10    5.20    1.09   1
  -1   5  11   33.76    2.56   1
  -1   5  12  364.05   17.94   1
  -1   5  13   28.52    1.92   1
  -1   5  14   20.70    1.82   1
  -1   5  15    2.59    1.00   1
  -1   5  16    4.80    1.40   1
  -1   5  17    5.52    1.60   1
  -1   5  18    4.58    1.41   1
  -1   5  19  101.00    5.63   1
  -1   5  20   81.36    4.69   1
  -1   5  21    4.00    1.88   1
  -1   5  22   44.22    3.46   1
  -1   5  23    0.90    1.41   1
  -1   5  24   25.20    2.61   1
  -1   5  25    8.29    2.19   1
  -1   5  26    3.80    2.30   1
  -1   5  27   31.36    3.14   1
  -1   5  28   48.58    4.04   1
  -1   5  29   10.30    3.21   1
  -1   5  31   23.91    3.33   1
  -1   5  32   11.97    2.63   1
  -1   5  46    2.79    3.11   1
  -1   6  -6    0.20    1.11   1
  -1   6  -5   18.58    1.81   1
  -1   6  -4   84.46    4.41   1
  -1   6  -3  309.76   14.43   1
  -1   6  -2  108.78    4.80   1
  -1   6  -1   18.84    1.74   1
  -1   6   0  609.10   24.68   1
  -1   6   1    2.79    0.80   1
  -1   6   2   17.22    1.49   1
  -1   6   3  477.42   18.35   1
  -1   6   4   23.43    1.36   1
  -1   6   5    1.10    0.61   1
  -1   6   6   37.45    1.84   1
  -1   6   7    5.81    0.82   1
  -1   6   8    0.20    0.60   1
  -1   6  12    4.88    1.11   1
  -1   6  13   13.10    1.88   1
  -1   6  14   36.36    2.65   1
  -1   6  15  131.33    7.11   1
  -1   6  16   12.60    1.92   1
  -1   6  17    2.19    1.39   1
  -1   6  19   37.58    3.07   1
  -1   6  20   36.97    3.04   1
  -1   6  21    8.18    2.00   1
  -1   6  22   11.83    2.00   1
  -1   6  23    5.20    2.19   1
  -1   6  24   71.40    4.56   1
  -1   6  25    0.10    2.12   1
  -1   6  26    4.88    1.99   1
  -1   6  27   -0.20    2.21   1
  -1   6  28    1.30    2.19   1
  -1   6  29    9.42    2.58   1
  -1   6  30  179.29   10.18   1
  -1   6  31    4.58    2.61   1
  -1   6  32   -0.30    2.61   1
  -1   6  35   17.22    3.57   1
  -1   6  38   11.83    3.78   1
  -1   7  -8   20.43    2.26   1
  -1   7  -7    1.90    1.41   1
  -1   7  -6   51.55    3.59   1
  -1   7  -5   24.80    2.29   1
  -1   7  -4   32.38    2.50   1
  -1   7  -3  171.35    7.07   1
  -1   7  -2   49.98    2.97   1
  -1   7  -1   -1.10    1.09   1
  -1   7   0  239.01    9.59   1
  -1   7   1    0.20    1.01   1
  -1   7   2   15.29    1.56   1
  -1   7   3   82.63    3.82   1
  -1   7   4    3.69    1.00   1
  -1   7   5    2.40    0.90   1
  -1   7   6  402.00   16.44   1
  -1   7   7   10.30    1.03   1
  -1   7   8    2.19    0.80   1
  -1   7   9   85.19    3.88   1
  -1   7  13   22.47    2.09   1
  -1   7  14    2.31    1.09   1
  -1   7  15   -0.40    1.40   1
  -1   7  16    3.80    1.21   1
  -1   7  17   -0.50    1.21   1
  -1   7  18  161.04   10.91   1
  -1   7  19   -0.50    1.41   1
  -1   7  20   25.60    3.14   1
  -1   7  21   29.59    3.05   1
  -1   7  22   -2.40    1.49   1
  -1   7  23   30.69    2.99   1
  -1   7  24    1.21    2.11   1
  -1   7  25   37.82    3.32   1
  -1   7  26    8.82    2.38   1
  -1   7  27   -1.21    1.91   1
  -1   7  28   17.64    3.11   1
  -1   7  29   14.67    2.99   1
  -1   7  30   46.24    4.76   1
  -1   7  31    4.80    2.98   1
  -1   7  32    1.49    2.59   1
  -1   7  33   15.76    3.57   1
  -1   7  34   16.81    3.20   1
  -1   7  35    3.50    3.29   1
  -1   7  36    8.29    3.69   1
  -1   8 -10    1.30    1.80   1
  -1   8  -8    2.79    1.50   1
  -1   8  -7   -1.39    1.49   1
  -1   8  -6   96.04    5.49   1
  -1   8  -5    6.71    1.81   1
  -1   8  -4    2.69    1.51   1
  -1   8  -3  286.62   11.51   1
  -1   8  -2    0.50    1.21   1
  -1   8  -1    0.50    1.31   1
  -1   8   0   89.49    4.54   1
  -1   8   1    2.79    1.20   1
  -1   8   2  227.71   10.56   1
  -1   8   3  757.90   31.38   1
  -1   8   4  122.77    5.54   1
  -1   8   5    1.49    0.81   1
  -1   8   6   12.67    1.21   1
  -1   8  14   -0.10    1.41   1
  -1   8  15  114.28    5.99   1
  -1   8  16    0.00    1.00   1
  -1   8  17   33.99    3.26   1
  -1   8  18  142.32    8.11   1
  -1   8  19   87.80    4.68   1
  -1   8  20    1.49    1.90   1
  -1   8  21    0.79    1.69   1
  -1   8  22    7.29    2.11   1
  -1   8  23   11.97    2.42   1
  -1   8  24   24.90    3.39   1
  -1   8  25    4.58    2.40   1
  -1   8  26    3.69    2.38   1
  -1   8  27   -2.99    2.28   1
  -1   9 -13   14.82    2.62   1
  -1   9 -12   25.60    3.14   1
  -1   9 -11   15.68    2.38   1
  -1   9 -10   66.91    4.58   1
  -1   9  -9  262.44   11.34   1
  -1   9  -8   86.30    4.64   1
  -1   9  -7    5.11    1.72   1
  -1   9  -6   39.82    3.53   1
  -1   9  -5   42.25    3.51   1
  -1   9  -4   26.94    2.49   1
  -1   9  -3  110.04    6.92   1
  -1   9  -2    0.00    1.00   1
  -1   9  -1    8.18    1.49   1
  -1   9   0   14.21    1.88   1
  -1   9   1    8.41    1.68   1
  -1   9  14   -1.69    1.40   1
  -1   9  15   47.75    3.87   1
  -1   9  16    6.30    2.01   1
  -1  10 -19   31.36    4.14   1
  -1  10 -18   53.73    4.98   1
  -1  10 -17   27.56    3.47   1
  -1  10 -16   39.69    4.28   1
  -1  10 -15  702.25   25.44   1
  -1  10 -14   18.66    3.63   1
  -1  10 -13   77.97    6.36   1
  -1  10 -12   97.02    6.11   1
  -1  10 -11   -0.10    2.33   1
  -1  10 -10    2.10    2.09   1
  -1  10  -9   20.61    3.00   1
  -1  10  -8   -2.89    1.90   1
  -1  10  -7    3.69    2.61   1
  -1  10  -6    3.69    1.80   1
  -1  10  -5    8.12    1.99   1
  -1  10  -4   37.45    3.18   1
  -1  11 -34   -1.80    3.59   1
  -1  11 -33   -2.10    3.31   1
  -1  11 -32    8.18    4.52   1
  -1  11 -31   14.98    4.80   1
  -1  11 -30    4.71    5.12   1
  -1  11 -29    2.79    4.01   1
  -1  11 -28   -0.59    2.28   1
  -1  11 -27   53.58    7.03   1
  -1  11 -26    5.90    4.08   1
  -1  11 -25   -5.02    3.72   1
  -1  11 -24   17.47    4.26   1
  -1  11 -23    4.71    2.99   1
  -1  11 -22   13.76    4.23   1
  -1  11 -21    9.92    3.40   1
  -1  11 -20   -0.40    3.09   1
  -1  11 -19   15.13    3.42   1
  -1  11 -18  121.00    7.26   1
  -1  11 -17   61.15    4.69   1
  -1  11 -16   11.90    3.38   1
  -1  11 -15    2.50    2.69   1
  -1  11 -14   47.89    4.43   1
  -1  11 -13    3.20    2.61   1
  -1  11 -12   22.56    3.42   1
  -1  11 -11    1.69    3.09   1
  -1  11 -10   -0.20    2.21   1
  -1  12 -31    3.80    5.69   1
  -1  12 -30   40.96    6.53   1
  -1  12 -29    1.90    3.39   1
  -1  12 -27    5.52    4.61   1
  -1  12 -26    9.18    4.42   1
  -1  12 -25    4.80    3.42   1
  -1  12 -24    3.80    4.29   1
  -1  12 -23    0.00    1.00   1
  -1  12 -22    1.30    3.69   1
  -1  12 -21   54.17    6.33   1
  -1  12 -20    0.79    3.38   1
  -1  12 -19   15.92    4.23   1
  -1  12 -18    7.62    3.31   1
   0 -15 -10    0.10    6.17   1
   0 -15  -9    5.71    6.31   1
   0 -15  -8   -0.40    4.38   1
   0 -15  -7   -4.80    5.78   1
   0 -15  -6    3.31    5.90   1
   0 -15  -5    5.52    5.59   1
   0 -15  -4    4.71    4.12   1
   0 -15  -3   13.18    6.39   1
   0 -15  -2   21.16    7.08   1
   0 -15  -1    0.30    5.72   1
   0 -15   1   -1.90    5.30   1
   0 -15   2   19.71    6.66   1
   0 -15   3   20.07    6.63   1
   0 -15   4    6.81    5.48   1
   0 -15   5   -1.39    5.38   1
   0 -15   6    4.41    5.50   1
   0 -15   7    0.79    5.38   1
   0 -15   8    9.92    5.92   1
   0 -15   9   11.42    5.48   1
   0 -15  10   -1.90    6.21   1
   0 -14 -20    1.99    6.18   1
   0 -14 -19   14.52    6.78   1
   0 -14 -18   10.69    3.99   1
   0 -14 -17   10.18    6.06   1
   0 -14 -16   10.82    6.19   1
   0 -14 -15    0.00    1.00   1
   0 -14 -14   24.01    6.17   1
   0 -14 -13    0.40    5.78   1
   0 -14 -12   -1.00    3.20   1
   0 -14 -11   -1.10    5.61   1
   0 -14 -10    1.10    4.70   1
   0 -14  -9   11.42    3.72   1
   0 -14  -8    7.67    4.99   1
   0 -14  -7    6.10    4.99   1
   0 -14  -6    9.12    5.19   1
   0 -14  -5    1.80    4.80   1
   0 -14  -4    6.30    4.82   1
   0 -14  -3    5.52    5.22   1
   0 -14  -2    6.10    4.79   1
   0 -14  -1    3.31    4.91   1
   0 -14   0   40.83    6.52   1
   0 -14   1    2.50    4.58   1
   0 -14   2    3.80    4.60   1
   0 -14   3   10.89    5.21   1
   0 -14   4    8.82    4.99   1
   0 -14   5    2.59    4.19   1
   0 -14   6    2.69    3.51   1
   0 -14   7   -6.20    4.48   1
   0 -14   8    1.80    5.39   1
   0 -14   9   13.18    5.23   1
   0 -14  10    3.39    4.60   1
   0 -14  11    8.58    5.22   1
   0 -14  12   -0.59    4.57   1
   0 -14  13    9.49    5.79   1
   0 -14  14   29.70    6.98   1
   0 -14  15   -1.39    4.98   1
   0 -14  16   11.90    4.90   1
   0 -14  17    2.59    4.99   1
   0 -14  18    4.41    5.50   1
   0 -14  19   12.60    6.60   1
   0 -13 -26   -4.08    5.98   1
   0 -13 -25    0.59    5.47   1
   0 -13 -24    0.50    5.52   1
   0 -13 -23    7.62    4.31   1
   0 -13 -22    1.99    5.39   1
   0 -13 -21   -2.59    4.28   1
   0 -13 -20    4.28    4.68   1
   0 -13 -19    4.08    4.61   1
   0 -13 -18    5.20    4.79   1
   0 -13 -17   36.24    4.94   1
   0 -13 -16    1.49    4.68   1
   0 -13 -15   -2.89    4.39   1
   0 -13 -14   -4.20    4.18   1
   0 -13 -13   -0.50    4.32   1
   0 -13 -12   36.97    6.20   1
   0 -13 -11    9.30    3.60   1
   0 -13 -10   16.89    4.69   1
   0 -13  -9    3.61    4.41   1
   0 -13  -8    3.10    4.01   1
   0 -13  -7    1.39    3.89   1
   0 -13  -6   30.03    5.59   1
   0 -13  -5   -4.41    5.12   1
   0 -13  -4   -1.59    5.09   1
   0 -13  -3   18.92    4.26   1
   0 -13  -2   -3.88    3.59   1
   0 -13  -1   -2.69    3.90   1
   0 -13   1    1.49    4.17   1
   0 -13   2   -2.59    3.90   1
   0 -13   3   15.68    4.51   1
   0 -13   4   -1.21    2.42   1
   0 -13   5   -1.59    3.68   1
   0 -13   6   24.40    4.84   1
   0 -13   7    5.62    3.70   1
   0 -13   8    2.31    4.41   1
   0 -13   9   -2.10    4.09   1
   0 -13  10   11.22    3.48   1
   0 -13  11   12.53    4.53   1
   0 -13  12   59.44    6.94   1
   0 -13  13    2.99    5.29   1
   0 -13  14    0.90    4.90   1
   0 -13  15   -7.90    4.50   1
   0 -13  16    3.50    5.01   1
   0 -13  17   53.44    7.02   1
   0 -13  18   11.09    5.13   1
   0 -13  19   24.80    6.37   1
   0 -13  20    4.58    5.31   1
   0 -13  21   -4.80    4.91   1
   0 -13  22    1.49    3.49   1
   0 -13  23   -2.50    5.50   1
   0 -12 -31   -4.49    5.51   1
   0 -12 -30    7.02    5.62   1
   0 -12 -29   -4.20    5.08   1
   0 -12 -28    4.20    5.08   1
   0 -12 -27   -1.49    5.37   1
   0 -12 -26    2.31    5.02   1
   0 -12 -25    3.88    4.89   1
   0 -12 -24   11.29    4.91   1
   0 -12 -23   13.76    4.67   1
   0 -12 -22    7.08    4.58   1
   0 -12 -21   14.36    5.08   1
   0 -12 -20    3.20    3.19   1
   0 -12 -19    2.99    4.08   1
   0 -12 -18   33.87    4.89   1
   0 -12 -17   -0.10    4.15   1
   0 -12 -16   63.20    8.27   1
   0 -12 -15   15.21    4.52   1
   0 -12 -14   60.22    6.05   1
   0 -12 -13   12.18    4.33   1
   0 -12 -12   -0.10    3.24   1
   0 -12 -11    1.59    2.49   1
   0 -12 -10    9.92    3.28   1
   0 -12  -9   30.91    5.34   1
   0 -12  -8    7.51    2.90   1
   0 -12  -7   -1.00    3.20   1
   0 -12  -6   45.16    5.24   1
   0 -12  -5   15.37    4.23   1
   0 -12  -4    1.80    3.40   1
   0 -12  -3   30.47    3.75   1
   0 -12  -2    3.50    3.40   1
   0 -12  -1   44.89    4.96   1
   0 -12   0  108.16    7.49   1
   0 -12   1   45.16    4.84   1
   0 -12   2    2.10    3.10   1
   0 -12   3   31.02    4.57   1
   0 -12   4    5.11    3.30   1
   0 -12   5   17.39    4.09   1
   0 -12   6   51.70    5.32   1
   0 -12   7    3.10    3.10   1
   0 -12   8    5.90    3.89   1
   0 -12   9   51.12    5.43   1
   0 -12  10   11.29    4.30   1
   0 -12  11   -3.20    3.51   1
   0 -12  12    2.89    3.71   1
   0 -12  13   17.98    3.99   1
   0 -12  14   68.39    7.44   1
   0 -12  15   27.98    5.29   1
   0 -12  16   67.57    7.56   1
   0 -12  17    6.92    4.79   1
   0 -12  18   39.82    6.31   1
   0 -12  19    6.00    4.90   1
   0 -12  20    9.30    4.57   1
   0 -12  21   24.40    4.64   1
   0 -12  22    7.67    4.88   1
   0 -12  23   20.61    6.17   1
   0 -12  24    5.62    5.31   1
   0 -12  25   10.50    5.18   1
   0 -12  26   -5.62    4.79   1
   0 -11 -35   14.52    6.32   1
   0 -11 -34    0.20    5.53   1
   0 -11 -33    5.71    5.69   1
   0 -11 -32   -0.10    5.06   1
   0 -11 -31   -1.59    5.09   1
   0 -11 -30   67.73    8.56   1
   0 -11 -29    4.80    4.82   1
   0 -11 -28    5.81    4.82   1
   0 -11 -27   -2.31    4.32   1
   0 -11 -26    6.81    4.12   1
   0 -11 -25   -3.69    3.99   1
   0 -11 -24    3.50    4.41   1
   0 -11 -23    0.50    3.82   1
   0 -11 -22   22.66    4.86   1
   0 -11 -21   36.24    6.02   1
   0 -11 -20   75.52    7.13   1
   0 -11 -19   14.90    4.17   1
   0 -11 -18    4.88    3.98   1
   0 -11 -17    5.29    3.91   1
   0 -11 -16    8.70    3.78   1
   0 -11 -15   55.35    5.21   1
   0 -11 -14   26.21    3.89   1
   0 -11 -13   40.45    4.96   1
   0 -11 -12   -0.30    2.31   1
   0 -11 -11    3.80    2.42   1
   0 -11 -10    8.18    2.40   1
   0 -11  -9    0.79    2.58   1
   0 -11  -8   37.70    4.42   1
   0 -11  -7   11.49    3.19   1
   0 -11  -6   29.92    4.27   1
   0 -11  -5   35.05    4.14   1
   0 -11  -4   15.92    3.51   1
   0 -11  -3  132.94    8.07   1
   0 -11  -2   39.69    4.91   1
   0 -11  -1    2.50    3.00   1
   0 -11   1   -2.19    2.90   1
   0 -11   3  150.80    8.84   1
   0 -11   4    9.42    3.68   1
   0 -11   5   39.56    4.40   1
   0 -11   6   51.27    4.73   1
   0 -11   7    6.10    3.11   1
   0 -11   8   45.43    4.85   1
   0 -11   9   -2.99    2.21   1
   0 -11  10    4.28    2.98   1
   0 -11  11    1.39    3.68   1
   0 -11  12   -3.31    3.02   1
   0 -11  13   34.46    5.05   1
   0 -11  14   27.04    4.37   1
   0 -11  15   50.55    5.40   1
   0 -11  16    9.61    2.91   1
   0 -11  17    8.88    4.29   1
   0 -11  18    4.88    3.58   1
   0 -11  19   15.37    4.31   1
   0 -11  20   97.22    7.69   1
   0 -11  21   49.42    5.91   1
   0 -11  22   46.51    6.27   1
   0 -11  23   -5.62    4.03   1
   0 -11  24    6.50    4.18   1
   0 -11  25    2.19    4.29   1
   0 -11  26    4.41    4.28   1
   0 -11  27   -2.10    4.29   1
   0 -11  28    6.81    4.28   1
   0 -11  29    2.31    5.02   1
   0 -11  30   79.57    8.38   1
   0 -10 -38   13.40    6.00   1
   0 -10 -37    0.40    5.18   1
   0 -10 -36    9.49    5.61   1
   0 -10 -35   -1.30    3.81   1
   0 -10 -34    8.29    5.41   1
   0 -10 -33   -3.80    4.99   1
   0 -10 -32    9.42    3.19   1
   0 -10 -31   14.82    5.31   1
   0 -10 -30    1.10    4.09   1
   0 -10 -29    3.10    3.70   1
   0 -10 -28   -0.79    3.68   1
   0 -10 -27   74.48    7.08   1
   0 -10 -26   18.49    4.21   1
   0 -10 -25   -0.71    3.41   1
   0 -10 -24   -1.39    2.50   1
   0 -10 -23    0.79    3.58   1
   0 -10 -22    5.52    3.71   1
   0 -10 -21  139.00    6.84   1
   0 -10 -20   -0.79    3.28   1
   0 -10 -19    0.00    1.00   1
   0 -10 -18    7.18    3.70   1
   0 -10 -17   21.53    3.25   1
   0 -10 -16    1.30    2.80   1
   0 -10 -15  232.87   11.29   1
   0 -10 -14   12.18    3.70   1
   0 -10 -13    1.49    2.59   1
   0 -10 -12   67.73    5.27   1
   0 -10 -11    2.31    2.40   1
   0 -10 -10   50.69    4.70   1
   0 -10  -9  224.10   15.57   1
   0 -10  -8   33.18    3.46   1
   0 -10  -7    8.29    2.71   1
   0 -10  -6   72.76    6.14   1
   0 -10  -5    0.30    1.61   1
   0 -10  -4   22.00    3.19   1
   0 -10  -3   30.91    3.89   1
   0 -10  -2   17.72    3.20   1
   0 -10  -1   13.47    2.72   1
   0 -10   0   31.36    3.58   1
   0 -10   1   10.11    2.99   1
   0 -10   2   19.62    3.28   1
   0 -10   3   20.79    3.56   1
   0 -10   4   31.14    4.02   1
   0 -10   5    5.90    2.82   1
   0 -10   6   78.15    5.66   1
   0 -10   7   23.72    3.90   1
   0 -10   8   35.76    3.95   1
   0 -10   9  252.17   11.43   1
   0 -10  10   64.64    4.98   1
   0 -10  11    2.69    2.89   1
   0 -10  12   71.74    5.76   1
   0 -10  13    3.20    2.11   1
   0 -10  14   13.69    3.48   1
   0 -10  15  235.62   15.66   1
   0 -10  16    4.20    3.20   1
   0 -10  17   19.54    3.18   1
   0 -10  18    5.90    3.11   1
   0 -10  19    1.59    2.39   1
   0 -10  20    3.50    2.99   1
   0 -10  21  129.28    8.19   1
   0 -10  22    7.40    2.99   1
   0 -10  23    2.59    3.51   1
   0 -10  24    2.99    2.80   1
   0 -10  25    6.30    4.12   1
   0 -10  27  100.80    8.23   1
   0 -10  28   -0.90    2.51   1
   0 -10  29    5.81    4.00   1
   0 -10  30   -0.71    3.91   1
   0 -10  31   20.16    4.67   1
   0 -10  32    2.50    4.71   1
   0 -10  33    3.88    4.89   1
   0  -9 -41    1.59    5.67   1
   0  -9 -40   -3.80    4.41   1
   0  -9 -39    6.71    5.59   1
   0  -9 -38   -5.52    5.22   1
   0  -9 -37    0.30    3.21   1
   0  -9 -36   -1.90    4.80   1
   0  -9 -35   10.30    3.60   1
   0  -9 -34    0.30    3.92   1
   0  -9 -33   31.47    6.17   1
   0  -9 -32    0.79    2.88   1
   0  -9 -31    0.10    4.15   1
   0  -9 -30    0.40    3.29   1
   0  -9 -29    4.49    3.48   1
   0  -9 -28   -5.02    3.32   1
   0  -9 -27    4.88    3.40   1
   0  -9 -26   -1.21    3.10   1
   0  -9 -25    3.31    3.42   1
   0  -9 -24   16.81    3.94   1
   0  -9 -23   11.02    3.39   1
   0  -9 -22    7.51    3.01   1
   0  -9 -21   24.80    3.19   1
   0  -9 -20   30.69    4.10   1
   0  -9 -19    2.79    2.30   1
   0  -9 -18   37.09    4.02   1
   0  -9 -17    4.58    3.00   1
   0  -9 -16   12.39    3.17   1
   0  -9 -15  149.82   10.77   1
   0  -9 -14   15.76    3.10   1
   0  -9 -13   19.54    2.92   1
   0  -9 -12    6.30    2.51   1
   0  -9 -11   19.80    3.29   1
   0  -9 -10    1.10    1.81   1
   0  -9  -9   31.70    3.72   1
   0  -9  -8   -0.10    2.23   1
   0  -9  -7    4.08    2.10   1
   0  -9  -6   10.18    2.49   1
   0  -9  -5    5.90    2.38   1
   0  -9  -4   26.83    3.21   1
   0  -9  -3  246.18   13.49   1
   0  -9  -2   48.16    4.16   1
   0  -9  -1    0.59    2.09   1
   0  -9   1    1.69    1.69   1
   0  -9   2   45.29    5.11   1
   0  -9   3  271.59   12.85   1
   0  -9   4   31.25    4.36   1
   0  -9   5    1.80    1.69   1
   0  -9   6   11.90    2.41   1
   0  -9   7    4.20    2.30   1
   0  -9   8   -0.40    2.09   1
   0  -9   9   34.81    3.07   1
   0  -9  10    4.08    2.38   1
   0  -9  11   33.76    3.37   1
   0  -9  12    6.71    3.00   1
   0  -9  13   18.23    3.59   1
   0  -9  14   17.14    3.23   1
   0  -9  15  144.48    8.17   1
   0  -9  16   12.32    3.30   1
   0  -9  17    1.59    1.79   1
   0  -9  18   50.69    4.84   1
   0  -9  19   -2.69    2.79   1
   0  -9  20   32.95    4.25   1
   0  -9  21   42.25    4.81   1
   0  -9  22    9.67    3.48   1
   0  -9  23   19.10    2.97   1
   0  -9  24   14.67    3.91   1
   0  -9  25   -1.80    3.48   1
   0  -9  26   -0.50    3.11   1
   0  -9  27   -1.00    3.40   1
   0  -9  28    0.50    3.62   1
   0  -9  29    1.80    3.81   1
   0  -9  30   -2.50    3.79   1
   0  -9  31   -1.00    3.70   1
   0  -9  32   -0.30    3.82   1
   0  -9  33   38.07    6.05   1
   0  -9  34    3.80    4.99   1
   0  -9  35   17.47    6.10   1
   0  -9  36   -0.20    3.42   1
   0  -8 -43   -1.80    5.49   1
   0  -8 -42   18.92    6.44   1
   0  -8 -41    3.61    5.21   1
   0  -8 -40    1.39    3.68   1
   0  -8 -39   -1.21    4.62   1
   0  -8 -38    3.61    4.60   1
   0  -8 -37   -1.90    3.20   1
   0  -8 -36    1.49    3.98   1
   0  -8 -35   -0.30    4.21   1
   0  -8 -34    1.39    3.99   1
   0  -8 -33    8.41    3.02   1
   0  -8 -32    3.10    3.48   1
   0  -8 -31    5.71    3.68   1
   0  -8 -30    5.52    2.82   1
   0  -8 -29    5.52    3.38   1
   0  -8 -28   17.22    4.32   1
   0  -8 -27   89.49    7.38   1
   0  -8 -26   22.75    3.82   1
   0  -8 -25    2.31    2.10   1
   0  -8 -24   31.36    3.92   1
   0  -8 -23   29.05    3.88   1
   0  -8 -22   31.36    3.36   1
   0  -8 -21   92.16    6.34   1
   0  -8 -20   12.53    2.41   1
   0  -8 -19    7.18    2.79   1
   0  -8 -18  221.41   13.09   1
   0  -8 -17    2.19    2.40   1
   0  -8 -16    1.39    2.29   1
   0  -8 -15    0.30    2.21   1
   0  -8 -14    1.49    2.10   1
   0  -8 -13   -1.21    1.91   1
   0  -8 -12    1.80    2.49   1
   0  -8 -11    6.00    2.50   1
   0  -8 -10   20.70    3.00   1
   0  -8  -9   52.85    4.07   1
   0  -8  -8   17.98    2.63   1
   0  -8  -7   -1.90    1.79   1
   0  -8  -6   31.25    3.02   1
   0  -8  -5    1.69    1.59   1
   0  -8  -4    6.60    1.70   1
   0  -8  -3    2.19    1.98   1
   0  -8  -2   78.32    4.96   1
   0  -8  -1    3.50    1.91   1
   0  -8   0  245.55   12.22   1
   0  -8   1    3.61    2.09   1
   0  -8   2   73.96    4.64   1
   0  -8   3    1.99    1.69   1
   0  -8   4    5.81    2.12   1
   0  -8   5   -0.90    1.80   1
   0  -8   6   43.56    3.56   1
   0  -8   7   -2.69    1.80   1
   0  -8   8   18.49    2.92   1
   0  -8   9   43.03    3.67   1
   0  -8  10   25.60    2.63   1
   0  -8  11    3.80    2.42   1
   0  -8  12    6.30    2.21   1
   0  -8  13    3.69    2.30   1
   0  -8  14   -0.40    1.99   1
   0  -8  15   -1.30    1.39   1
   0  -8  16    2.50    2.50   1
   0  -8  17   -2.50    2.09   1
   0  -8  18  201.64   11.08   1
   0  -8  19    5.11    2.71   1
   0  -8  20    4.88    2.70   1
   0  -8  21   96.63    6.88   1
   0  -8  22   38.94    4.87   1
   0  -8  23   32.04    3.96   1
   0  -8  24   36.72    3.88   1
   0  -8  25    2.69    2.89   1
   0  -8  26   22.00    3.56   1
   0  -8  27   86.86    7.64   1
   0  -8  28   24.60    3.87   1
   0  -8  29    3.88    3.31   1
   0  -8  30    3.80    4.09   1
   0  -8  31    1.00    3.60   1
   0  -8  32    3.20    4.01   1
   0  -8  33   16.16    4.50   1
   0  -8  34    6.60    4.42   1
   0  -8  35    3.31    4.30   1
   0  -8  36   10.18    4.72   1
   0  -8  37   -3.31    4.62   1
   0  -8  38   -0.90    3.00   1
   0  -7 -45    4.80    5.39   1
   0  -7 -44    4.08    5.17   1
   0  -7 -43   -0.79    5.27   1
   0  -7 -42    4.49    5.09   1
   0  -7 -41    3.31    5.31   1
   0  -7 -40   -3.80    4.41   1
   0  -7 -39    2.10    2.81   1
   0  -7 -38    2.19    4.29   1
   0  -7 -37    6.00    4.12   1
   0  -7 -36   17.14    4.39   1
   0  -7 -35   12.82    4.22   1
   0  -7 -34   25.20    4.12   1
   0  -7 -33    9.80    3.51   1
   0  -7 -32   -1.49    2.68   1
   0  -7 -31    3.10    3.70   1
   0  -7 -30  116.21    8.41   1
   0  -7 -29   44.89    5.76   1
   0  -7 -28   14.06    3.38   1
   0  -7 -27   31.58    4.16   1
   0  -7 -26   11.09    2.73   1
   0  -7 -25    3.61    2.32   1
   0  -7 -24    4.88    1.68   1
   0  -7 -23    2.40    2.29   1
   0  -7 -22    1.99    2.20   1
   0  -7 -21    4.08    2.71   1
   0  -7 -20    8.88    2.50   1
   0  -7 -19    1.80    2.30   1
   0  -7 -18   84.27    5.32   1
   0  -7 -17    3.50    1.98   1
   0  -7 -16   21.90    2.81   1
   0  -7 -15   32.49    3.08   1
   0  -7 -14   12.60    2.27   1
   0  -7 -13   16.48    2.76   1
   0  -7 -12  381.42   16.01   1
   0  -7 -11   29.92    3.17   1
   0  -7 -10   -0.10    1.72   1
   0  -7  -8    0.40    1.20   1
   0  -7  -7    0.20    1.61   1
   0  -7  -6   86.30    5.02   1
   0  -7  -5    1.49    1.39   1
   0  -7  -4    1.30    1.09   1
   0  -7  -3    6.40    1.62   1
   0  -7  -2   -1.21    1.41   1
   0  -7  -1    0.10    1.62   1
   0  -7   1    2.69    1.51   1
   0  -7   2    1.00    1.00   1
   0  -7   3    5.29    1.79   1
   0  -7   4    1.39    1.60   1
   0  -7   5   -0.20    1.41   1
   0  -7   6   94.28    4.86   1
   0  -7   7    0.59    1.69   1
   0  -7   8   -2.31    1.49   1
   0  -7   9   -1.39    1.49   1
   0  -7  10   -0.79    1.69   1
   0  -7  11   28.62    3.10   1
   0  -7  12  404.01   17.69   1
   0  -7  13   13.40    1.90   1
   0  -7  14   14.21    2.19   1
   0  -7  15   38.69    3.36   1
   0  -7  16   20.07    2.69   1
   0  -7  17    3.61    1.52   1
   0  -7  18   95.45    6.64   1
   0  -7  19    6.40    2.18   1
   0  -7  20   18.40    2.66   1
   0  -7  21    3.50    2.39   1
   0  -7  22    4.58    2.40   1
   0  -7  23    3.31    2.51   1
   0  -7  24    4.71    2.69   1
   0  -7  25    7.29    2.48   1
   0  -7  26    6.71    3.21   1
   0  -7  27   47.75    5.11   1
   0  -7  27   48.44    3.90   1
   0  -7  28   15.37    3.68   1
   0  -7  28   21.34    3.70   1
   0  -7  29   70.22    6.03   1
   0  -7  29   47.75    5.94   1
   0  -7  30  182.79   10.55   1
   0  -7  30  151.29   10.58   1
   0  -7  31    3.69    3.00   1
   0  -7  31    1.10    2.10   1
   0  -7  32   -1.49    3.39   1
   0  -7  32   -0.79    2.99   1
   0  -7  33    9.18    4.12   1
   0  -7  33    9.67    3.67   1
   0  -7  34   13.32    4.60   1
   0  -7  34   18.84    3.21   1
   0  -7  35   25.10    4.61   1
   0  -7  35   10.30    3.98   1
   0  -7  36   15.60    4.27   1
   0  -7  37   -1.21    3.61   1
   0  -7  37    0.50    4.12   1
   0  -7  38   11.02    4.98   1
   0  -7  38    8.53    4.50   1
   0  -7  39   -0.20    4.63   1
   0  -7  39   19.18    4.91   1
   0  -7  40    1.90    4.42   1
   0  -7  41    2.19    4.38   1
   0  -7  42   11.90    4.42   1
   0  -7  43   -2.50    4.30   1
   0  -7  44    0.10    3.64   1
   0  -6 -46    5.81    5.01   1
   0  -6 -45    7.67    5.21   1
   0  -6 -44    5.71    5.02   1
   0  -6 -43    1.21    4.42   1
   0  -6 -42   41.73    6.33   1
   0  -6 -41   -5.11    4.70   1
   0  -6 -40   11.09    4.40   1
   0  -6 -39    3.88    3.70   1
   0  -6 -38   -0.59    3.48   1
   0  -6 -37   -2.10    3.60   1
   0  -6 -36   -1.59    2.19   1
   0  -6 -35    4.00    3.72   1
   0  -6 -34    1.21    3.21   1
   0  -6 -33    1.10    2.39   1
   0  -6 -32   27.35    4.18   1
   0  -6 -31    0.10    2.23   1
   0  -6 -28    9.30    2.50   1
   0  -6 -27   13.40    3.37   1
   0  -6 -26    3.61    2.32   1
   0  -6 -25    2.59    3.70   1
   0  -6 -24   26.01    4.39   1
   0  -6 -23    4.20    2.42   1
   0  -6 -22   28.84    3.44   1
   0  -6 -21  241.18   15.22   1
   0  -6 -20   25.81    3.15   1
   0  -6 -19   10.30    2.38   1
   0  -6 -18  261.79   13.59   1
   0  -6 -17    3.88    2.09   1
   0  -6 -16    1.90    1.71   1
   0  -6 -15    0.50    1.70   1
   0  -6 -14    5.02    1.52   1
   0  -6 -13   14.36    2.12   1
   0  -6 -12   11.49    1.97   1
   0  -6 -11    1.49    1.49   1
   0  -6 -10   -0.59    1.29   1
   0  -6  -9   17.14    1.90   1
   0  -6  -8    2.10    1.80   1
   0  -6  -7   25.70    2.54   1
   0  -6  -6   99.60    5.39   1
   0  -6  -5   47.47    3.03   1
   0  -6  -4   27.88    2.43   1
   0  -6  -3  331.97   18.22   1
   0  -6  -2    9.00    1.68   1
   0  -6  -1    0.71    1.31   1
   0  -6   0 1062.11   46.93   1
   0  -6   1    1.30    1.09   1
   0  -6   2   10.11    1.59   1
   0  -6   3  336.72   14.68   1
   0  -6   4   29.59    2.39   1
   0  -6   5   53.44    3.51   1
   0  -6   6  100.40    6.01   1
   0  -6   7   15.68    2.61   1
   0  -6   8    0.90    1.31   1
   0  -6   9   20.34    1.98   1
   0  -6  10    0.79    1.39   1
   0  -6  11    2.69    1.08   1
   0  -6  12    8.12    1.82   1
   0  -6  13   14.82    2.00   1
   0  -6  14    2.79    1.10   1
   0  -6  15   -0.30    1.80   1
   0  -6  16    4.20    1.80   1
   0  -6  17    2.50    1.71   1
   0  -6  18  314.00   15.59   1
   0  -6  19   10.37    2.38   1
   0  -6  20   28.52    2.88   1
   0  -6  20   28.73    2.79   1
   0  -6  21  276.56   13.64   1
   0  -6  22   46.24    3.94   1
   0  -6  23    6.10    1.58   1
   0  -6  23   10.18    2.49   1
   0  -6  24   21.62    3.44   1
   0  -6  24   32.60    3.43   1
   0  -6  25   -0.40    2.09   1
   0  -6  25    1.59    2.29   1
   0  -6  26   -1.49    1.68   1
   0  -6  26    1.69    2.00   1
   0  -6  27   29.05    3.34   1
   0  -6  27   20.79    3.56   1
   0  -6  28   24.30    3.75   1
   0  -6  28   18.49    3.27   1
   0  -6  29   -2.99    2.60   1
   0  -6  29   -2.19    2.49   1
   0  -6  30    2.31    3.31   1
   0  -6  30    3.69    1.61   1
   0  -6  31    0.71    3.21   1
   0  -6  31   -3.80    2.61   1
   0  -6  32   47.89    4.71   1
   0  -6  32   36.60    4.48   1
   0  -6  33    6.60    3.19   1
   0  -6  33    0.50    3.11   1
   0  -6  34    2.50    2.40   1
   0  -6  34   -2.31    3.22   1
   0  -6  35    7.90    2.47   1
   0  -6  35    4.41    3.19   1
   0  -6  36    2.89    3.50   1
   0  -6  36    2.50    2.69   1
   0  -6  37    1.99    2.59   1
   0  -6  37    0.00    1.00   1
   0  -6  38    1.39    4.08   1
   0  -6  38    4.08    3.68   1
   0  -6  39   -1.69    4.19   1
   0  -6  39   -0.59    2.68   1
   0  -6  40   19.36    3.78   1
   0  -6  40   11.42    4.53   1
   0  -6  41    6.71    4.09   1
   0  -6  41   11.63    4.64   1
   0  -6  42   58.68    6.74   1
   0  -6  42   31.14    6.47   1
   0  -6  43   -0.90    2.91   1
   0  -6  44    4.00    5.40   1
   0  -6  45   -5.52    5.40   1
   0  -5 -47   -1.80    5.39   1
   0  -5 -46    9.42    5.40   1
   0  -5 -45   17.47    5.52   1
   0  -5 -44    2.69    4.89   1
   0  -5 -43   -1.00    3.90   1
   0  -5 -42    5.62    3.22   1
   0  -5 -41   11.83    3.78   1
   0  -5 -40   11.70    4.51   1
   0  -5 -39   24.70    4.27   1
   0  -5 -38    3.31    3.49   1
   0  -5 -37   -1.59    3.10   1
   0  -5 -36    7.02    3.29   1
   0  -5 -35    0.90    1.99   1
   0  -5 -34   11.42    3.31   1
   0  -5 -33    7.78    3.07   1
   0  -5 -32    0.90    2.51   1
   0  -5 -31    2.79    2.91   1
   0  -5 -30   93.70    6.78   1
   0  -5 -29    0.79    2.58   1
   0  -5 -26   25.91    3.66   1
   0  -5 -25    4.58    1.88   1
   0  -5 -24   70.56    5.38   1
   0  -5 -23    4.80    2.19   1
   0  -5 -22   27.04    3.12   1
   0  -5 -21    2.31    1.70   1
   0  -5 -20    9.80    2.32   1
   0  -5 -19   -0.71    1.61   1
   0  -5 -18  249.96   14.55   1
   0  -5 -17    4.41    0.80   1
   0  -5 -17    1.59    1.49   1
   0  -5 -16    7.29    1.89   1
   0  -5 -15    7.18    0.70   1
   0  -5 -15    6.71    1.61   1
   0  -5 -14    1.00    1.50   1
   0  -5 -14    1.99    0.39   1
   0  -5 -13   -0.20    0.31   1
   0  -5 -13   -0.90    1.31   1
   0  -5 -12   45.02    3.36   1
   0  -5 -11    0.90    1.20   1
   0  -5 -10   -0.30    1.31   1
   0  -5  -9   79.92    4.47   1
   0  -5  -8    3.31    1.31   1
   0  -5  -7    7.67    1.00   1
   0  -5  -6    8.58    1.41   1
   0  -5  -5    9.80    1.50   1
   0  -5  -4   18.66    2.07   1
   0  -5  -3   56.55    3.16   1
   0  -5  -2   21.53    1.86   1
   0  -5  -1    1.80    1.21   1
   0  -5   1    0.50    1.01   1
   0  -5   2   21.53    2.04   1
   0  -5   3   51.84    2.88   1
   0  -5   4   15.29    1.72   1
   0  -5   5    9.00    1.50   1
   0  -5   6    8.58    1.29   1
   0  -5   7    4.08    1.21   1
   0  -5   8    1.69    1.09   1
   0  -5   9   88.17    5.45   1
   0  -5  10    3.50    1.31   1
   0  -5  11    1.80    1.29   1
   0  -5  12   46.38    3.68   1
   0  -5  13   -0.20    1.51   1
   0  -5  14    2.59    1.38   1
   0  -5  14    2.31    1.31   1
   0  -5  15    4.20    1.52   1
   0  -5  15    8.41    1.80   1
   0  -5  16   17.39    2.17   1
   0  -5  16    5.62    1.71   1
   0  -5  17    4.80    1.71   1
   0  -5  17    3.88    1.89   1
   0  -5  18  376.36   14.74   1
   0  -5  19   -0.10    1.62   1
   0  -5  19    0.30    1.80   1
   0  -5  20   17.22    2.57   1
   0  -5  20    9.30    1.89   1
   0  -5  21    0.40    1.79   1
   0  -5  21    2.10    2.61   1
   0  -5  22   33.52    3.47   1
   0  -5  22   28.20    3.29   1
   0  -5  23    8.41    2.03   1
   0  -5  23    6.81    2.40   1
   0  -5  24   91.97    6.33   1
   0  -5  24   88.55    6.96   1
   0  -5  25    6.10    2.62   1
   0  -5  25    6.40    2.28   1
   0  -5  26   27.25    3.45   1
   0  -5  26   34.46    3.76   1
   0  -5  27   24.40    3.26   1
   0  -5  27   29.59    3.37   1
   0  -5  28   40.32    4.06   1
   0  -5  29    6.92    2.79   1
   0  -5  29   -3.20    2.40   1
   0  -5  30  121.22    7.49   1
   0  -5  30   97.02    6.89   1
   0  -5  31   14.36    3.18   1
   0  -5  31    2.19    2.69   1
   0  -5  32   -1.80    2.60   1
   0  -5  32    0.30    2.71   1
   0  -5  33    3.69    2.69   1
   0  -5  33    0.79    1.99   1
   0  -5  34   12.53    3.19   1
   0  -5  34   13.32    2.41   1
   0  -5  35   -0.59    2.99   1
   0  -5  35    1.80    1.90   1
   0  -5  36   10.18    3.19   1
   0  -5  36    2.69    3.38   1
   0  -5  37    5.38    3.48   1
   0  -5  38   10.82    4.74   1
   0  -5  38   13.18    3.99   1
   0  -5  39   18.58    4.40   1
   0  -5  39   26.94    3.53   1
   0  -5  40    5.02    4.61   1
   0  -5  40    3.61    4.22   1
   0  -5  41    2.40    3.91   1
   0  -5  41   11.90    4.21   1
   0  -5  42   18.66    4.23   1
   0  -5  42    9.12    3.62   1
   0  -5  43    4.20    4.51   1
   0  -5  43   -0.20    4.23   1
   0  -5  44    8.01    4.41   1
   0  -5  45   20.61    5.63   1
   0  -5  46   11.42    5.88   1
   0  -4 -49   16.56    6.27   1
   0  -4 -48   -1.59    4.59   1
   0  -4 -47    4.00    4.68   1
   0  -4 -46    6.20    4.78   1
   0  -4 -45   38.56    6.09   1
   0  -4 -44   -0.30    2.82   1
   0  -4 -41    0.90    2.81   1
   0  -4 -40    3.50    3.40   1
   0  -4 -36  124.32    8.03   1
   0  -4 -35   25.00    3.60   1
   0  -4 -34   39.19    4.26   1
   0  -4 -33   13.99    3.37   1
   0  -4 -32   33.29    3.81   1
   0  -4 -29    2.59    2.61   1
   0  -4 -28   -0.71    2.02   1
   0  -4 -27  311.17   14.46   1
   0  -4 -26   28.41    3.30   1
   0  -4 -25   14.36    2.80   1
   0  -4 -24  203.92    9.71   1
   0  -4 -23   13.76    2.08   1
   0  -4 -22   -2.89    1.70   1
   0  -4 -21  337.46   18.00   1
   0  -4 -20    0.79    1.50   1
   0  -4 -19   85.01    6.64   1
   0  -4 -18  278.56   13.35   1
   0  -4 -17   65.12    4.52   1
   0  -4 -16   17.64    2.27   1
   0  -4 -15  818.53   33.76   1
   0  -4 -14   15.37    1.72   1
   0  -4 -13   44.76    2.94   1
   0  -4 -12  703.31   26.52   1
   0  -4 -12  493.28   21.77   1
   0  -4 -11    4.58    0.51   1
   0  -4 -11    4.00    1.20   1
   0  -4 -10    3.61    1.22   1
   0  -4 -10    4.71    0.39   1
   0  -4  -9    4.80    1.40   1
   0  -4  -9    4.28    0.29   1
   0  -4  -8   12.89    1.58   1
   0  -4  -7   24.50    1.98   1
   0  -4  -6  341.51   18.85   1
   0  -4  -5   39.94    2.28   1
   0  -4  -4    0.40    0.79   1
   0  -4  -3   -0.40    0.79   1
   0  -4  -2    5.71    0.91   1
   0  -4  -1   12.89    1.29   1
   0  -4   0   89.30    3.97   1
   0  -4   1   19.01    1.40   1
   0  -4   2    7.78    1.28   1
   0  -4   4   -0.10    0.91   1
   0  -4   5   42.77    2.22   1
   0  -4   6  364.05   14.50   1
   0  -4   7   28.84    1.61   1
   0  -4   8   10.82    1.18   1
   0  -4   9    3.31    1.09   1
   0  -4  10    4.58    1.11   1
   0  -4  10    2.89    1.09   1
   0  -4  11    7.51    1.21   1
   0  -4  11    5.62    1.18   1
   0  -4  12  696.43   25.33   1
   0  -4  12  524.87   23.83   1
   0  -4  13   60.53    3.58   1
   0  -4  14   13.32    1.97   1
   0  -4  14   18.40    2.32   1
   0  -4  15 1159.40   46.31   1
   0  -4  16   31.25    2.35   1
   0  -4  16   22.00    1.97   1
   0  -4  17   90.25    4.75   1
   0  -4  17   70.22    4.19   1
   0  -4  18  371.33   16.57   1
   0  -4  18  327.97   13.40   1
   0  -4  19  138.30    7.06   1
   0  -4  20    1.99    1.61   1
   0  -4  20    1.80    1.50   1
   0  -4  21  461.39   18.47   1
   0  -4  22    1.99    1.69   1
   0  -4  22    2.59    1.61   1
   0  -4  23   19.54    2.56   1
   0  -4  23   21.90    2.71   1
   0  -4  24  242.42    9.96   1
   0  -4  24  193.49   10.57   1
   0  -4  25   15.21    2.81   1
   0  -4  25   17.89    2.03   1
   0  -4  26   34.46    3.87   1
   0  -4  26   26.21    3.17   1
   0  -4  27  401.20   17.23   1
   0  -4  27  465.70   20.29   1
   0  -4  28    5.20    2.42   1
   0  -4  28    1.10    2.31   1
   0  -4  29   -0.71    2.10   1
   0  -4  29    3.69    2.38   1
   0  -4  30  152.28   11.11   1
   0  -4  31   15.68    3.01   1
   0  -4  32   39.56    4.15   1
   0  -4  32   23.33    3.19   1
   0  -4  33    6.92    2.42   1
   0  -4  33   12.89    3.30   1
   0  -4  34   45.97    5.56   1
   0  -4  34   40.96    4.48   1
   0  -4  35   26.73    4.03   1
   0  -4  35   33.41    4.16   1
   0  -4  36  135.26    8.61   1
   0  -4  36  149.57    9.54   1
   0  -4  37   52.56    4.64   1
   0  -4  37   41.22    4.88   1
   0  -4  38   48.58    4.74   1
   0  -4  38   28.62    4.49   1
   0  -4  39   16.97    4.28   1
   0  -4  39    9.30    3.29   1
   0  -4  40   10.69    4.12   1
   0  -4  42    7.08    3.67   1
   0  -4  43    5.29    4.69   1
   0  -4  43    1.00    4.10   1
   0  -4  44    6.71    4.61   1
   0  -4  44    3.39    3.68   1
   0  -4  45   49.84    6.78   1
   0  -4  46   -1.10    4.70   1
   0  -4  47    4.00    3.72   1
   0  -3 -49   10.69    5.17   1
   0  -3 -46    1.39    4.39   1
   0  -3 -45    1.39    2.78   1
   0  -3 -44   -0.30    4.42   1
   0  -3 -27   82.63    5.27   1
   0  -3 -26   11.09    2.33   1
   0  -3 -25   17.89    2.20   1
   0  -3 -24   19.10    1.14   1
   0  -3 -24   21.81    2.90   1
   0  -3 -23    2.31    1.79   1
   0  -3 -22    0.79    0.50   1
   0  -3 -21  401.20   21.63   1
   0  -3 -20   -0.59    1.39   1
   0  -3 -19    1.49    1.29   1
   0  -3 -18    1.30    1.39   1
   0  -3 -17    0.90    1.20   1
   0  -3 -16    1.10    1.09   1
   0  -3 -15    4.80    1.49   1
   0  -3 -14    6.50    1.38   1
   0  -3 -13   58.83    3.22   1
   0  -3 -12  426.42   18.17   1
   0  -3 -11   14.67    1.53   1
   0  -3 -10    3.39    0.81   1
   0  -3  -9  912.04   40.47   1
   0  -3  -8    2.31    0.70   1
   0  -3  -8    4.41    0.42   1
   0  -3  -7    1.49    0.29   1
   0  -3  -7    3.31    0.91   1
   0  -3  -6   66.75    4.74   1
   0  -3  -6  124.99    5.81   1
   0  -3  -5   24.50    2.28   1
   0  -3  -4   11.83    1.17   1
   0  -3  -3  146.41    6.29   1
   0  -3  -2    0.20    0.70   1
   0  -3  -1    1.10    0.61   1
   0  -3   1    0.90    0.61   1
   0  -3   2    1.00    0.50   1
   0  -3   3  158.76    5.80   1
   0  -3   4   14.21    1.28   1
   0  -3   5   26.83    2.07   1
   0  -3   6  136.19    6.30   1
   0  -3   7    1.69    0.60   1
   0  -3   7    2.10    0.81   1
   0  -3   8    4.41    0.88   1
   0  -3   8    1.80    0.91   1
   0  -3   9 1263.09   39.80   1
   0  -3  10    5.02    0.99   1
   0  -3  10    2.50    0.70   1
   0  -3  11   16.89    1.73   1
   0  -3  11   14.36    1.52   1
   0  -3  12  463.97   22.83   1
   0  -3  13   61.78    3.14   1
   0  -3  13   68.06    3.80   1
   0  -3  14    5.52    1.08   1
   0  -3  14    8.12    1.31   1
   0  -3  15    8.18    1.49   1
   0  -3  15    8.01    1.41   1
   0  -3  16    0.59    1.19   1
   0  -3  16    1.80    0.91   1
   0  -3  17    1.30    1.09   1
   0  -3  17   -2.10    1.10   1
   0  -3  18    1.21    1.30   1
   0  -3  18    4.28    1.70   1
   0  -3  19   -2.10    1.39   1
   0  -3  19   -1.99    1.30   1
   0  -3  20    1.59    1.39   1
   0  -3  20   -1.21    1.61   1
   0  -3  21  547.56   21.53   1
   0  -3  21  472.19   21.30   1
   0  -3  22    0.00    1.00   1
   0  -3  22    0.71    1.51   1
   0  -3  23    1.90    1.60   1
   0  -3  23   -0.10    1.62   1
   0  -3  24   21.81    2.62   1
   0  -3  24   22.66    2.57   1
   0  -3  25   18.58    1.90   1
   0  -3  25   19.71    2.58   1
   0  -3  26   12.39    2.18   1
   0  -3  26    6.10    2.42   1
   0  -3  27  115.78    6.67   1
   0  -3  27   94.48    5.44   1
   0  -3  28    3.20    2.11   1
   0  -3  28    5.20    2.19   1
   0  -3  29    8.82    2.38   1
   0  -3  30    1.00    2.20   1
   0  -3  31   92.16    7.30   1
   0  -3  31   94.09    6.01   1
   0  -3  32    3.88    2.09   1
   0  -3  33  500.42   29.98   1
   0  -3  34   46.38    5.04   1
   0  -3  34   45.83    4.33   1
   0  -3  37   -4.49    3.01   1
   0  -3  38    0.20    2.72   1
   0  -3  39    6.00    3.82   1
   0  -3  40    1.00    2.90   1
   0  -3  41    4.71    3.91   1
   0  -3  42    6.10    3.31   1
   0  -3  43   11.29    4.77   1
   0  -3  44    5.52    3.38   1
   0  -3  44    9.99    3.60   1
   0  -3  45    2.59    4.51   1
   0  -3  45    2.89    4.79   1
   0  -3  46   -1.59    4.89   1
   0  -3  47    2.50    3.51   1
   0  -3  48   -3.80    4.60   1
   0  -2 -50    4.00    5.20   1
   0  -2 -49    9.61    5.02   1
   0  -2 -46    4.58    4.71   1
   0  -2 -43    5.38    3.57   1
   0  -2 -23    3.39    1.51   1
   0  -2 -22   22.09    2.44   1
   0  -2 -20    3.50    0.49   1
   0  -2 -19    9.61    1.43   1
   0  -2 -19    6.40    0.61   1
   0  -2 -18  265.69   11.74   1
   0  -2 -18  237.16   11.09   1
   0  -2 -17    0.20    0.40   1
   0  -2 -17   -1.00    1.20   1
   0  -2 -16    4.58    1.41   1
   0  -2 -15  181.71    9.71   1
   0  -2 -14    5.29    1.20   1
   0  -2 -13   10.63    1.70   1
   0  -2 -12  228.92   11.50   1
   0  -2 -11   22.37    1.70   1
   0  -2 -10    5.38    0.88   1
   0  -2  -9  213.16   10.22   1
   0  -2  -8   13.99    1.27   1
   0  -2  -7   38.94    1.75   1
   0  -2  -6 2868.67  133.90   1
   0  -2  -5   88.36    4.14   1
   0  -2  -4   23.23    1.54   1
   0  -2  -3 2854.76  145.33   1
   0  -2  -2    8.18    0.80   1
   0  -2  -1    6.50    0.61   1
   0  -2   0  445.21   15.61   1
   0  -2   1    7.02    0.80   1
   0  -2   2    7.78    0.78   1
   0  -2   4   23.43    1.55   1
   0  -2   4   38.56    2.36   1
   0  -2   5   96.04    4.12   1
   0  -2   5  141.85    5.00   1
   0  -2   6 2944.15  111.78   1
   0  -2   7   42.64    2.35   1
   0  -2   8   21.72    1.49   1
   0  -2   9  292.41   13.00   1
   0  -2  10    6.81    0.99   1
   0  -2  10    4.08    0.89   1
   0  -2  11   22.47    1.61   1
   0  -2  11   18.40    1.63   1
   0  -2  12  285.95   13.53   1
   0  -2  12  263.74   12.67   1
   0  -2  13    9.49    1.42   1
   0  -2  13   10.37    1.29   1
   0  -2  14    5.20    1.32   1
   0  -2  14    4.58    1.20   1
   0  -2  15  224.70   10.19   1
   0  -2  15  176.89    8.78   1
   0  -2  16    6.30    1.31   1
   0  -2  16    7.40    1.52   1
   0  -2  17    1.00    1.20   1
   0  -2  17    0.00    1.00   1
   0  -2  18  276.22   11.30   1
   0  -2  18  243.67   11.86   1
   0  -2  19    5.52    1.22   1
   0  -2  19    7.78    1.79   1
   0  -2  20    3.61    1.22   1
   0  -2  20    3.88    1.62   1
   0  -2  21   61.31    3.45   1
   0  -2  21   47.75    3.04   1
   0  -2  22   18.92    2.09   1
   0  -2  23   -0.10    0.91   1
   0  -2  24   12.89    1.79   1
   0  -2  25    8.41    2.03   1
   0  -2  26    3.10    1.90   1
   0  -2  27  569.30   26.72   1
   0  -2  28   23.23    3.47   1
   0  -2  29   39.44    3.52   1
   0  -2  29   39.94    3.54   1
   0  -2  30   25.81    3.15   1
   0  -2  36  101.40    7.25   1
   0  -2  37   -0.40    1.99   1
   0  -2  39   17.31    4.08   1
   0  -2  40   16.16    3.62   1
   0  -2  41    2.19    4.00   1
   0  -2  42    3.80    4.21   1
   0  -2  45   38.07    5.43   1
   0  -2  46    3.39    4.60   1
   0  -2  46    1.99    3.98   1
   0  -2  47    3.20    3.19   1
   0  -2  48    5.62    4.93   1
   0  -2  49   -2.31    6.02   1
   0  -1 -46   -0.79    3.58   1
   0  -1 -40   -0.71    3.31   1
   0  -1 -13   18.84    0.87   1
   0  -1 -12  755.70   34.64   1
   0  -1 -11    7.78    0.50   1
   0  -1 -10    0.20    0.50   1
   0  -1  -9   30.58    1.99   1
   0  -1  -8    1.10    0.50   1
   0  -1  -7    4.71    0.61   1
   0  -1  -7    3.61    0.68   1
   0  -1  -5   14.21    1.28   1
   0  -1  -5   12.11    0.90   1
   0  -1   5   11.42    1.08   1
   0  -1   7    4.20    0.70   1
   0  -1   7    4.08    0.61   1
   0  -1   8   -0.10    0.40   1
   0  -1   8   -0.50    0.60   1
   0  -1   9   33.06    2.18   1
   0  -1   9   37.95    2.46   1
   0  -1  10    0.40    0.69   1
   0  -1  10    0.59    0.49   1
   0  -1  11    7.67    1.00   1
   0  -1  12  855.56   46.22   1
   0  -1  12  750.21   37.80   1
   0  -1  13   20.70    1.64   1
   0  -1  13   22.00    1.78   1
   0  -1  14    4.71    0.91   1
   0  -1  14    7.51    0.88   1
   0  -1  15   15.13    1.48   1
   0  -1  15   14.67    1.76   1
   0  -1  16    6.20    1.10   1
   0  -1  16    5.62    1.09   1
   0  -1  17    3.69    1.19   1
   0  -1  17    2.89    1.39   1
   0  -1  18  122.99    6.65   1
   0  -1  18  111.09    6.11   1
   0  -1  19    6.10    1.38   1
   0  -1  20   22.56    2.09   1
   0  -1  21   21.81    2.43   1
   0  -1  28   21.34    2.40   1
   0  -1  32    4.49    1.78   1
   0  -1  32    3.80    2.42   1
   0  -1  36   69.72    5.34   1
   0  -1  40   -4.28    2.90   1
   0  -1  41    6.50    3.72   1
   0  -1  42    1.99    2.79   1
   0  -1  45   23.62    5.44   1
   0  -1  47    7.78    4.30   1
   0  -1  48    3.61    5.02   1
   0   0 -50    2.31    4.50   1
   0   0 -48   -7.18    4.29   1
   0   0  -8   -0.71    0.50   1
   0   0  -6   13.62    1.11   1
   0   0  -6   15.52    1.34   1
   0   0  16    9.99    0.82   1
   0   0  18   20.79    2.01   1
   0   0  18   23.81    1.66   1
   0   0  32   49.00    4.76   1
   0   0  40   15.13    4.43   1
   0   0  42  100.00    8.20   1
   0   0  44   -0.90    4.10   1
   0   0  44    5.20    4.20   1
   0   0  46   57.30    6.96   1
   0   0  48   -4.71    4.90   1
   0   0  48    5.38    3.48   1
   0   1 -50   -5.62    4.50   1
   0   1 -49   16.32    4.77   1
   0   1  -7    7.02    0.80   1
   0   1  -5   17.39    1.17   1
   0   1  -5   10.11    0.89   1
   0   1   5   14.21    0.98   1
   0   1   6 3853.93  188.72   1
   0   1   7    5.71    0.72   1
   0   1   7    6.40    0.71   1
   0   1   8    0.59    0.49   1
   0   1   8    0.00    1.00   1
   0   1   9   38.56    2.61   1
   0   1   9   33.76    1.86   1
   0   1  10    0.00    1.00   1
   0   1  10   -0.10    0.40   1
   0   1  11    7.29    1.03   1
   0   1  11    7.40    0.92   1
   0   1  12  806.56   45.44   1
   0   1  13   17.64    1.51   1
   0   1  13   21.34    1.85   1
   0   1  14    4.58    0.90   1
   0   1  14    5.52    0.80   1
   0   1  15   14.59    1.30   1
   0   1  15   13.40    1.68   1
   0   1  16    7.78    1.39   1
   0   1  16    6.00    1.32   1
   0   1  17    6.40    1.42   1
   0   1  18  125.89    6.06   1
   0   1  19    6.20    1.49   1
   0   1  21   19.98    2.06   1
   0   1  22    6.60    1.59   1
   0   1  25    6.71    1.61   1
   0   1  30  319.69   15.02   1
   0   1  31   49.84    4.24   1
   0   1  36   82.81    5.82   1
   0   1  37   19.98    3.49   1
   0   1  37   11.02    2.59   1
   0   1  40    0.20    3.62   1
   0   1  41    3.20    4.30   1
   0   1  45   25.10    5.91   1
   0   1  47    5.62    4.41   1
   0   1  48    3.10    3.91   1
   0   2  -5  134.33    7.19   1
   0   2  -4   34.22    2.22   1
   0   2   2    6.71    0.52   1
   0   2   7   49.14    2.66   1
   0   2   8   14.36    1.21   1
   0   2   9  250.27   10.44   1
   0   2  10    7.78    1.00   1
   0   2  11   24.90    1.90   1
   0   2  12  274.56   15.58   1
   0   2  13   12.39    1.41   1
   0   2  14    5.29    1.10   1
   0   2  15  205.35   10.03   1
   0   2  16    3.50    1.01   1
   0   2  17   -1.00    1.00   1
   0   2  18  251.86   10.47   1
   0   2  20    2.19    1.60   1
   0   2  22   14.59    1.99   1
   0   2  22   19.54    2.21   1
   0   2  23    1.10    1.70   1
   0   2  23    2.69    1.61   1
   0   2  24   21.90    2.53   1
   0   2  24   15.60    1.98   1
   0   2  25    6.30    1.51   1
   0   2  25    4.80    1.88   1
   0   2  26   -0.90    1.90   1
   0   2  26   -0.59    1.69   1
   0   2  27  571.69   23.91   1
   0   2  28   20.79    2.92   1
   0   2  31   25.91    3.16   1
   0   2  32    6.71    3.78   1
   0   2  34   52.56    4.06   1
   0   2  37    0.59    2.09   1
   0   2  46    6.10    4.10   1
   0   3   2    0.79    0.30   1
   0   3   3  175.83    7.96   1
   0   3   4   19.10    0.79   1
   0   3   9 1089.66   55.46   1
   0   3  10    3.61    0.80   1
   0   3  11   14.29    1.29   1
   0   3  12  513.02   30.80   1
   0   3  13   73.27    3.77   1
   0   3  14    6.20    1.20   1
   0   3  15    8.18    1.37   1
   0   3  16    1.49    2.49   1
   0   3  17    1.21    2.11   1
   0   3  18   -0.10    1.01   1
   0   3  19    0.10    1.22   1
   0   3  20    1.00    1.40   1
   0   3  21  482.24   20.64   1
   0   3  22    3.10    1.58   1
   0   3  23    2.79    1.80   1
   0   3  24   24.60    2.38   1
   0   3  25   18.92    2.44   1
   0   3  26    7.40    2.28   1
   0   3  27   90.44    5.71   1
   0   3  30    4.20    2.58   1
   0   3  39   22.09    3.10   1
   0   3  42    8.58    2.99   1
   0   3  45    8.41    3.31   1
   0   3  49    2.10    5.39   1
   0   4   2    8.53    0.82   1
   0   4   3    0.10    0.40   1
   0   4   4   -0.40    0.30   1
   0   4   5   52.71    2.18   1
   0   4  11    6.60    1.28   1
   0   4  12  611.08   31.64   1
   0   4  13   48.72    3.35   1
   0   4  14   18.49    1.81   1
   0   4  15 1004.26   50.07   1
   0   4  16   21.07    2.20   1
   0   4  17   72.93    4.27   1
   0   4  18  356.45   16.61   1
   0   4  19  114.06    5.98   1
   0   4  20    1.30    1.39   1
   0   4  21  426.01   20.23   1
   0   4  22    1.49    1.49   1
   0   4  23   19.80    2.58   1
   0   4  24  229.52   10.60   1
   0   4  25   14.82    2.23   1
   0   4  26   20.61    3.09   1
   0   4  27  414.53   17.51   1
   0   4  28    0.40    1.99   1
   0   4  29    3.88    2.21   1
   0   4  31   19.01    2.88   1
   0   4  32   30.25    3.96   1
   0   4  33   10.11    2.99   1
   0   4  34   40.32    4.44   1
   0   4  35   29.27    4.11   1
   0   4  46   -3.31    3.31   1
   0   4  49   -1.69    6.47   1
   0   5   1    2.40    0.59   1
   0   5   2   21.53    1.48   1
   0   5   3   65.29    3.07   1
   0   5   4   22.09    1.13   1
   0   5   5   10.69    0.72   1
   0   5   6   13.18    0.73   1
   0   5  13   -0.40    1.10   1
   0   5  14    1.69    1.09   1
   0   5  15    5.38    1.30   1
   0   5  16    8.18    1.49   1
   0   5  17    3.20    1.50   1
   0   5  18  309.76   14.43   1
   0   5  19    1.59    1.49   1
   0   5  20   20.98    2.29   1
   0   5  21    3.20    1.72   1
   0   5  22   31.36    2.91   1
   0   5  23    5.81    1.88   1
   0   5  24   98.41    6.75   1
   0   5  25    4.71    2.30   1
   0   5  26   42.64    3.79   1
   0   5  27   25.30    3.32   1
   0   5  28   31.70    3.83   1
   0   5  29   -0.40    2.29   1
   0   5  30  102.82    7.50   1
   0   5  31    8.12    2.91   1
   0   5  34   11.49    3.53   1
   0   5  35    5.52    2.91   1
   0   5  36   14.36    4.17   1
   0   5  37   -0.10    2.73   1
   0   5  38   16.16    3.46   1
   0   5  41    4.28    3.68   1
   0   5  42   18.40    3.52   1
   0   5  43    4.28    5.01   1
   0   5  45   27.98    5.92   1
   0   5  46   10.18    3.57   1
   0   5  47   -1.69    4.99   1
   0   5  48   13.18    4.72   1
   0   6   0 1112.22   44.69   1
   0   6   1    1.90    0.80   1
   0   6   2   13.91    1.12   1
   0   6   3  388.48   15.77   1
   0   6   4   37.58    1.96   1
   0   6   5   60.22    2.64   1
   0   6   6  132.02    5.29   1
   0   6   7   26.94    1.14   1
   0   6  14    3.88    1.38   1
   0   6  15    1.21    1.30   1
   0   6  16    2.79    1.20   1
   0   6  17    4.58    1.41   1
   0   6  18  305.20   12.93   1
   0   6  19   14.36    1.82   1
   0   6  20   30.25    2.75   1
   0   6  21  336.72   15.78   1
   0   6  22   26.63    3.10   1
   0   6  23   10.50    2.01   1
   0   6  24   26.42    3.08   1
   0   6  25    1.49    2.20   1
   0   6  26   -0.79    1.89   1
   0   6  27   22.18    3.11   1
   0   6  28   24.60    3.47   1
   0   6  29    2.69    2.49   1
   0   6  30    2.31    2.92   1
   0   6  31    1.39    2.10   1
   0   6  32   28.30    3.94   1
   0   6  33   -4.49    2.71   1
   0   6  34    1.59    1.99   1
   0   6  35    4.71    3.52   1
   0   6  36    0.79    3.38   1
   0   6  37   -1.90    3.39   1
   0   6  38   -0.30    3.52   1
   0   6  41    7.51    4.49   1
   0   6  44    8.70    5.07   1
   0   6  46   15.68    6.26   1
   0   7  -1    2.10    1.01   1
   0   7   1    0.79    0.80   1
   0   7   2    1.00    0.80   1
   0   7   3    5.90    1.12   1
   0   7   4    0.10    0.71   1
   0   7   5    0.79    0.69   1
   0   7   6  111.30    4.64   1
   0   7   7    0.00    1.00   1
   0   7  15   39.44    3.14   1
   0   7  16   26.11    2.86   1
   0   7  17    1.30    1.80   1
   0   7  18  103.23    6.30   1
   0   7  19    1.49    1.90   1
   0   7  20    9.99    2.21   1
   0   7  21    1.21    2.00   1
   0   7  22    7.02    2.28   1
   0   7  23    0.59    1.89   1
   0   7  24    7.18    2.20   1
   0   7  25    3.80    2.69   1
   0   7  26   16.08    2.57   1
   0   7  27   40.96    4.48   1
   0   7  28   29.05    3.45   1
   0   7  29   52.85    5.82   1
   0   7  30  172.66    8.41   1
   0   7  31    4.49    3.01   1
   0   7  32   -2.89    2.48   1
   0   7  33   15.37    3.68   1
   0   7  36   19.62    3.90   1
   0   7  37   -0.90    3.61   1
   0   7  38    2.89    3.98   1
   0   7  39   10.89    4.29   1
   0   7  40    1.10    4.09   1
   0   7  42   -5.62    4.41   1
   0   7  43   -5.11    4.79   1
   0   8  -3   -0.10    1.41   1
   0   8  -2   84.09    4.95   1
   0   8  -1    2.79    1.30   1
   0   8   0  269.62   11.17   1
   0   8   1    2.19    1.18   1
   0   8   2   84.09    4.03   1
   0   8   3    0.59    0.89   1
   0   8   4    6.92    1.00   1
   0   8   5    1.30    0.80   1
   0   8  16   -2.31    1.61   1
   0   8  17    7.51    1.92   1
   0   8  18  240.56   13.03   1
   0   8  19    9.80    2.19   1
   0   8  20    8.12    2.11   1
   0   8  21   93.12    6.18   1
   0   8  22   43.96    3.85   1
   0   8  23   33.76    3.60   1
   0   8  24   37.21    3.90   1
   0   8  25    3.80    2.61   1
   0   8  26   24.90    3.49   1
   0   8  27  127.92   10.18   1
   0   8  28   28.30    3.72   1
   0   8  29    7.62    3.31   1
   0   8  30    8.01    3.00   1
   0   8  31    5.81    2.80   1
   0   8  32   -1.90    3.20   1
   0   8  33   11.97    4.01   1
   0   8  34    6.10    3.41   1
   0   8  35   -2.69    3.08   1
   0   8  36    4.80    3.90   1
   0   9  -5    5.52    1.41   1
   0   9  -4   24.40    2.47   1
   0   9  -3  276.89   13.98   1
   0   9  -2   50.84    3.42   1
   0   9  -1    4.08    1.62   1
   0   9  17    4.28    2.19   1
   0   9  18   53.14    4.67   1
   0   9  19   -1.10    1.99   1
   0   9  20   44.22    3.99   1
   0   9  21   36.84    4.61   1
   0   9  22   15.92    2.79   1
   0   9  23   13.91    2.91   1
   0   9  24   16.73    3.52   1
   0   9  25    5.52    2.91   1
   0   9  26    0.00    1.00   1
   0   9  27   -0.90    2.60   1
   0  10  -8   38.94    3.87   1
   0  10  -7   13.18    2.32   1
   0  10  -6   81.36    6.67   1
   0  10  -5    2.50    1.49   1
   0  10  17   19.98    2.77   1
   0  11 -13   53.73    5.13   1
   0  11 -12   -0.79    2.49   1
   1 -15 -10   -0.20    5.83   1
   1 -15  -9   25.30    6.44   1
   1 -15  -8    9.61    5.02   1
   1 -15  -7   -1.21    5.63   1
   1 -15  -6    0.40    5.38   1
   1 -15  -5    3.50    4.90   1
   1 -15  -4    2.59    5.80   1
   1 -15  -3    7.90    3.99   1
   1 -15  -2   -2.89    5.20   1
   1 -15  -1   -1.99    5.78   1
   1 -15   0    3.31    6.41   1
   1 -15   1   10.63    6.13   1
   1 -15   2   -3.20    5.62   1
   1 -15   3    6.00    5.98   1
   1 -14 -20   15.60    6.48   1
   1 -14 -19    6.50    6.22   1
   1 -14 -18    1.49    5.78   1
   1 -14 -17    6.20    4.48   1
   1 -14 -16    9.92    6.93   1
   1 -14 -15   -1.21    4.62   1
   1 -14 -14   11.42    5.81   1
   1 -14 -13    0.00    1.00   1
   1 -14 -12   20.70    6.01   1
   1 -14 -11    3.50    5.20   1
   1 -14  -9    1.10    5.31   1
   1 -14  -8    7.08    4.68   1
   1 -14  -7   -9.80    5.01   1
   1 -14  -6   25.00    5.90   1
   1 -14  -5  -10.30    4.49   1
   1 -14  -4    2.89    4.59   1
   1 -14  -3   29.38    6.07   1
   1 -14  -2   24.90    5.59   1
   1 -14  -1    0.20    5.03   1
   1 -14   0   17.22    5.39   1
   1 -14   1    0.40    4.98   1
   1 -14   2    5.52    5.03   1
   1 -14   3   23.23    6.46   1
   1 -14   4   -4.08    4.00   1
   1 -14   5   -5.52    4.51   1
   1 -14   6   -1.10    5.31   1
   1 -14   7   -3.50    5.09   1
   1 -14   8    7.67    4.99   1
   1 -14   9    5.81    5.30   1
   1 -14  10   -0.90    5.02   1
   1 -13 -26    2.19    4.29   1
   1 -13 -25   -4.28    3.68   1
   1 -13 -24   17.31    6.49   1
   1 -13 -23    5.29    5.11   1
   1 -13 -22    9.18    5.51   1
   1 -13 -21    8.88    5.19   1
   1 -13 -20    1.59    5.19   1
   1 -13 -19    7.90    5.40   1
   1 -13 -18   85.75    9.26   1
   1 -13 -17   58.98    7.53   1
   1 -13 -16   -3.39    3.28   1
   1 -13 -15   36.60    6.41   1
   1 -13 -14    0.50    4.32   1
   1 -13 -13    4.20    3.32   1
   1 -13 -12    2.19    5.00   1
   1 -13 -11    4.49    4.49   1
   1 -13 -10   15.37    4.86   1
   1 -13  -9    1.80    4.10   1
   1 -13  -8    1.59    4.49   1
   1 -13  -7    0.10    4.45   1
   1 -13  -6   31.47    5.61   1
   1 -13  -5   20.79    4.83   1
   1 -13  -4   -2.89    3.60   1
   1 -13  -3   -1.10    4.01   1
   1 -13  -2   -0.40    3.98   1
   1 -13  -1    4.80    4.51   1
   1 -13   0   46.38    7.76   1
   1 -13   1   -4.08    4.08   1
   1 -13   2   -5.71    4.11   1
   1 -13   3   -1.90    2.82   1
   1 -13   4    3.10    4.08   1
   1 -13   5    4.58    4.19   1
   1 -13   6   -0.50    4.12   1
   1 -13   7    1.49    4.78   1
   1 -13   8    2.10    4.70   1
   1 -13   9    3.20    4.40   1
   1 -13  10    1.00    3.80   1
   1 -13  11    7.08    5.00   1
   1 -13  12    2.79    4.78   1
   1 -13  13   -0.90    3.10   1
   1 -13  14   21.53    5.66   1
   1 -13  15   -6.20    5.08   1
   1 -12 -31   -2.79    4.28   1
   1 -12 -30   38.94    5.99   1
   1 -12 -29    9.61    6.20   1
   1 -12 -28    1.21    5.21   1
   1 -12 -27   10.37    5.67   1
   1 -12 -26   -1.21    4.42   1
   1 -12 -25   10.11    3.88   1
   1 -12 -24   21.90    7.11   1
   1 -12 -23   39.44    6.28   1
   1 -12 -22   -1.80    4.50   1
   1 -12 -21   25.70    4.06   1
   1 -12 -20    5.20    4.61   1
   1 -12 -19    1.21    3.92   1
   1 -12 -18    6.50    4.28   1
   1 -12 -17   16.08    5.13   1
   1 -12 -16   23.43    5.13   1
   1 -12 -15   30.36    4.96   1
   1 -12 -14    2.50    3.19   1
   1 -12 -13   23.04    4.70   1
   1 -12 -12   44.36    5.99   1
   1 -12 -11    6.60    4.01   1
   1 -12 -10   -0.30    3.52   1
   1 -12  -9   27.14    4.58   1
   1 -12  -8    5.71    3.30   1
   1 -12  -7   10.18    3.76   1
   1 -12  -6   13.40    3.81   1
   1 -12  -5   -2.19    3.20   1
   1 -12  -4   -2.19    3.29   1
   1 -12  -3    5.29    3.50   1
   1 -12  -2    8.70    2.71   1
   1 -12  -1    2.31    3.31   1
   1 -12   0    2.19    3.29   1
   1 -12   1    2.19    3.70   1
   1 -12   2   -2.79    3.31   1
   1 -12   3    2.79    3.51   1
   1 -12   4   -0.40    3.39   1
   1 -12   5    0.79    3.08   1
   1 -12   6    5.62    2.51   1
   1 -12   7    5.62    3.41   1
   1 -12   8    8.29    3.97   1
   1 -12   9   57.15    6.35   1
   1 -12  10   53.73    5.42   1
   1 -12  11   16.73    3.44   1
   1 -12  12  169.00   11.18   1
   1 -12  13    5.02    4.30   1
   1 -12  14    8.18    4.18   1
   1 -12  15   51.84    6.77   1
   1 -12  16    6.00    4.02   1
   1 -12  17    4.28    4.18   1
   1 -12  18    1.49    4.17   1
   1 -12  19   17.64    5.12   1
   1 -11 -35    0.20    6.64   1
   1 -11 -34    2.31    5.72   1
   1 -11 -33   16.89    5.01   1
   1 -11 -32   19.89    5.89   1
   1 -11 -31    0.59    5.07   1
   1 -11 -30   -4.28    5.09   1
   1 -11 -29    3.20    4.69   1
   1 -11 -28    2.31    4.80   1
   1 -11 -27   10.18    4.59   1
   1 -11 -26    7.67    4.60   1
   1 -11 -25   10.30    5.01   1
   1 -11 -24   37.95    6.90   1
   1 -11 -23   19.71    4.00   1
   1 -11 -22    8.18    4.18   1
   1 -11 -21   16.00    4.48   1
   1 -11 -20    0.59    3.48   1
   1 -11 -19   16.00    4.40   1
   1 -11 -18   88.17    8.08   1
   1 -11 -17   11.70    3.63   1
   1 -11 -16   49.14    5.33   1
   1 -11 -15   -0.71    3.21   1
   1 -11 -14   -1.90    3.31   1
   1 -11 -13   17.14    3.89   1
   1 -11 -12    7.02    3.60   1
   1 -11 -11   -2.19    2.99   1
   1 -11 -10    5.02    3.00   1
   1 -11  -9   51.41    5.16   1
   1 -11  -8   15.68    3.72   1
   1 -11  -7    1.49    2.49   1
   1 -11  -6   17.14    3.39   1
   1 -11  -5    0.90    2.60   1
   1 -11  -4   21.53    3.80   1
   1 -11  -3   33.29    4.15   1
   1 -11  -2    0.50    3.11   1
   1 -11  -1    1.99    2.00   1
   1 -11   0    3.39    2.91   1
   1 -11   1   -0.79    2.69   1
   1 -11   2    1.69    2.18   1
   1 -11   3    3.61    3.12   1
   1 -11   4   14.21    3.32   1
   1 -11   5   40.20    5.33   1
   1 -11   6   45.56    4.46   1
   1 -11   7    9.18    3.51   1
   1 -11   8   -0.90    2.91   1
   1 -11   9   39.31    4.26   1
   1 -11  10    3.31    3.09   1
   1 -11  11    2.10    3.71   1
   1 -11  12   20.52    3.90   1
   1 -11  13   10.63    3.59   1
   1 -11  14   46.65    4.92   1
   1 -11  15    4.58    3.81   1
   1 -11  16    6.20    2.79   1
   1 -11  17   59.29    6.78   1
   1 -11  18  107.54    8.30   1
   1 -11  19   18.92    3.57   1
   1 -11  20    4.41    3.99   1
   1 -11  21   28.20    5.84   1
   1 -11  22   11.09    4.73   1
   1 -11  23    7.67    4.88   1
   1 -10 -38    9.42    6.08   1
   1 -10 -37   -1.49    3.20   1
   1 -10 -36    5.29    5.80   1
   1 -10 -35    2.79    3.41   1
   1 -10 -34    8.58    5.10   1
   1 -10 -33   84.46    9.37   1
   1 -10 -32   -0.40    3.39   1
   1 -10 -31   16.81    5.00   1
   1 -10 -30   28.62    5.35   1
   1 -10 -29    0.71    4.22   1
   1 -10 -28   -0.90    4.01   1
   1 -10 -27    2.69    3.71   1
   1 -10 -26   11.90    4.69   1
   1 -10 -25    4.71    3.91   1
   1 -10 -24   37.33    5.74   1
   1 -10 -23    2.59    3.51   1
   1 -10 -22   -1.59    3.58   1
   1 -10 -21  160.28   10.89   1
   1 -10 -20   36.84    5.58   1
   1 -10 -19    5.02    2.91   1
   1 -10 -18   20.88    4.30   1
   1 -10 -17    7.02    3.18   1
   1 -10 -16   -2.69    2.69   1
   1 -10 -15    2.50    3.10   1
   1 -10 -14   12.82    3.79   1
   1 -10 -13   -2.99    2.49   1
   1 -10 -12    2.19    2.60   1
   1 -10 -11    5.52    2.82   1
   1 -10 -10   33.29    4.39   1
   1 -10  -9   30.03    3.84   1
   1 -10  -8   -3.69    2.50   1
   1 -10  -7    1.59    2.39   1
   1 -10  -6    9.42    2.89   1
   1 -10  -5    6.60    2.72   1
   1 -10  -4    3.10    1.69   1
   1 -10  -3   68.23    5.62   1
   1 -10  -2   -0.59    2.39   1
   1 -10  -1    1.39    2.50   1
   1 -10   0    3.88    2.48   1
   1 -10   1    5.52    2.49   1
   1 -10   2   80.82    5.57   1
   1 -10   3  171.09    9.68   1
   1 -10   4   39.44    4.02   1
   1 -10   5    7.51    2.90   1
   1 -10   6    6.81    2.71   1
   1 -10   7    0.20    2.82   1
   1 -10   8    1.99    2.79   1
   1 -10   9   24.30    3.35   1
   1 -10  10    0.71    2.70   1
   1 -10  11   -0.10    2.43   1
   1 -10  12   96.04    7.25   1
   1 -10  13   78.32    5.84   1
   1 -10  14   20.07    3.67   1
   1 -10  15  646.68   30.52   1
   1 -10  16   46.24    5.71   1
   1 -10  17   31.36    4.14   1
   1 -10  18   52.27    5.35   1
   1 -10  19   34.22    4.91   1
   1 -10  20   -2.31    2.31   1
   1 -10  21   14.67    4.52   1
   1 -10  22    5.02    3.58   1
   1 -10  23    5.38    3.48   1
   1 -10  24   15.52    4.33   1
   1 -10  25    5.38    4.18   1
   1 -10  26    1.99    3.58   1
   1  -9 -41   -7.78    5.80   1
   1  -9 -40   -6.60    4.21   1
   1  -9 -39   -0.90    5.11   1
   1  -9 -38   -0.30    5.13   1
   1  -9 -37    5.90    4.08   1
   1  -9 -36   12.11    5.50   1
   1  -9 -35   22.00    4.69   1
   1  -9 -34    3.88    4.29   1
   1  -9 -33    6.81    4.23   1
   1  -9 -32   -2.19    4.20   1
   1  -9 -31   28.73    5.04   1
   1  -9 -30    5.81    4.10   1
   1  -9 -29   13.03    3.90   1
   1  -9 -28    1.00    3.40   1
   1  -9 -27   73.44    6.51   1
   1  -9 -26    7.08    3.40   1
   1  -9 -25    2.89    3.20   1
   1  -9 -24   -3.20    2.90   1
   1  -9 -23    7.40    2.61   1
   1  -9 -22   19.80    3.83   1
   1  -9 -21  122.77    7.98   1
   1  -9 -20    4.28    3.31   1
   1  -9 -19   18.32    2.82   1
   1  -9 -18   45.43    4.99   1
   1  -9 -17   -1.00    2.60   1
   1  -9 -16    7.90    3.09   1
   1  -9 -15   26.73    4.03   1
   1  -9 -14    0.71    2.50   1
   1  -9 -13    8.82    2.49   1
   1  -9 -12   32.38    3.64   1
   1  -9 -11    9.80    2.69   1
   1  -9 -10    8.41    3.07   1
   1  -9  -9  149.82    8.81   1
   1  -9  -8    1.69    1.59   1
   1  -9  -7    8.58    2.81   1
   1  -9  -6    3.20    2.18   1
   1  -9  -5   -1.90    2.10   1
   1  -9  -4   13.47    2.79   1
   1  -9  -3   72.08    5.09   1
   1  -9  -2    6.50    2.09   1
   1  -9  -1   12.60    2.41   1
   1  -9   0   13.32    2.48   1
   1  -9   1   13.18    2.69   1
   1  -9   2    0.59    2.19   1
   1  -9   3  108.16    6.66   1
   1  -9   4   22.56    3.14   1
   1  -9   5   32.95    3.67   1
   1  -9   6   51.27    4.44   1
   1  -9   7    2.69    2.30   1
   1  -9   8   80.64    5.57   1
   1  -9   9  253.76   12.43   1
   1  -9  10   66.42    4.73   1
   1  -9  11   23.04    2.69   1
   1  -9  12   27.35    9.31   1
   1  -9  13   18.32    3.17   1
   1  -9  14   16.81    3.20   1
   1  -9  15   -0.40    1.79   1
   1  -9  16   50.98    4.86   1
   1  -9  17   20.43    3.89   1
   1  -9  18   20.16    3.77   1
   1  -9  19   -1.30    2.80   1
   1  -9  20   -0.30    3.11   1
   1  -9  21   80.28    5.56   1
   1  -9  22   -3.39    2.91   1
   1  -9  23   13.18    3.92   1
   1  -9  24   -0.50    3.01   1
   1  -9  25   -1.49    1.90   1
   1  -9  26    9.67    3.92   1
   1  -9  27   76.56    6.47   1
   1  -9  28    4.80    3.99   1
   1  -9  29    3.20    4.12   1
   1  -8 -43   -4.08    5.09   1
   1  -8 -42   15.52    5.83   1
   1  -8 -41    5.29    5.01   1
   1  -8 -40   -2.99    2.60   1
   1  -8 -39    7.02    4.82   1
   1  -8 -38    7.29    5.02   1
   1  -8 -37    2.89    4.39   1
   1  -8 -36    1.39    4.39   1
   1  -8 -35    3.20    4.30   1
   1  -8 -34    7.40    4.30   1
   1  -8 -33    0.20    3.73   1
   1  -8 -32    0.40    3.49   1
   1  -8 -31    4.71    2.91   1
   1  -8 -30   22.09    4.23   1
   1  -8 -29   21.07    4.31   1
   1  -8 -28    4.71    2.99   1
   1  -8 -27   -1.80    3.00   1
   1  -8 -26    1.00    3.20   1
   1  -8 -25    0.79    2.99   1
   1  -8 -24   22.18    3.77   1
   1  -8 -23    9.67    3.17   1
   1  -8 -22    7.08    2.98   1
   1  -8 -21   -0.30    1.80   1
   1  -8 -20    1.49    2.49   1
   1  -8 -19   66.75    4.74   1
   1  -8 -18  102.01    6.06   1
   1  -8 -17   29.59    2.94   1
   1  -8 -16   -0.30    1.61   1
   1  -8 -15   89.11    5.29   1
   1  -8 -14    0.30    2.21   1
   1  -8 -13   -0.10    2.33   1
   1  -8 -12    2.19    1.30   1
   1  -8 -11   18.92    3.13   1
   1  -8 -10    9.99    2.40   1
   1  -8  -9    2.69    2.10   1
   1  -8  -8    5.38    1.81   1
   1  -8  -7    4.88    1.28   1
   1  -8  -6   10.50    2.40   1
   1  -8  -5    5.02    2.02   1
   1  -8  -4   99.80    6.99   1
   1  -8  -3  641.10   28.36   1
   1  -8  -2  198.81    9.59   1
   1  -8  -1    4.08    2.18   1
   1  -8   0   81.90    4.89   1
   1  -8   1    1.30    1.60   1
   1  -8   2    1.69    1.79   1
   1  -8   3  261.47   12.94   1
   1  -8   4    4.88    2.08   1
   1  -8   5    2.31    2.01   1
   1  -8   6   81.18    5.95   1
   1  -8   7    0.79    1.99   1
   1  -8   8    0.40    1.40   1
   1  -8   9   17.64    2.94   1
   1  -8  13    8.18    3.09   1
   1  -8  14    5.81    2.31   1
   1  -8  15   18.58    2.67   1
   1  -8  16   28.94    3.34   1
   1  -8  17    5.20    2.42   1
   1  -8  18  110.46    7.78   1
   1  -8  19   20.52    3.26   1
   1  -8  20   11.09    2.93   1
   1  -8  21   15.37    2.59   1
   1  -8  22   -1.30    2.69   1
   1  -8  23    2.10    2.00   1
   1  -8  24   -2.69    2.59   1
   1  -8  25    4.80    2.89   1
   1  -8  26   -0.30    3.11   1
   1  -8  28   10.37    3.28   1
   1  -8  29   43.43    4.22   1
   1  -8  30    6.10    4.30   1
   1  -8  30    1.10    2.10   1
   1  -8  31    3.80    3.12   1
   1  -8  31   -0.30    3.82   1
   1  -8  32    5.52    3.81   1
   1  -8  32   -1.90    4.31   1
   1  -8  33   70.06    6.36   1
   1  -8  34    6.30    4.02   1
   1  -8  35   20.88    4.11   1
   1  -8  36   36.48    5.07   1
   1  -8  37    1.49    3.29   1
   1  -8  38    1.80    4.21   1
   1  -8  39   12.67    5.48   1
   1  -8  40    6.60    4.78   1
   1  -8  41   -3.61    3.42   1
   1  -8  42   -2.79    3.31   1
   1  -7 -45    3.80    5.89   1
   1  -7 -44    2.40    4.99   1
   1  -7 -43    4.28    4.89   1
   1  -7 -42   27.88    6.55   1
   1  -7 -41    0.30    4.32   1
   1  -7 -40    4.00    4.08   1
   1  -7 -39   14.52    4.57   1
   1  -7 -38   -5.62    2.80   1
   1  -7 -37   -0.90    3.40   1
   1  -7 -36   10.50    4.02   1
   1  -7 -35    1.90    3.09   1
   1  -7 -34   19.80    4.54   1
   1  -7 -33   13.18    3.92   1
   1  -7 -32   -0.79    2.99   1
   1  -7 -31    6.00    2.11   1
   1  -7 -30   41.34    4.24   1
   1  -7 -29    4.28    3.39   1
   1  -7 -28   11.09    3.33   1
   1  -7 -27    4.28    2.82   1
   1  -7 -26   10.50    3.11   1
   1  -7 -25   45.56    4.59   1
   1  -7 -24    3.20    2.61   1
   1  -7 -23   23.91    3.72   1
   1  -7 -22   -0.59    1.69   1
   1  -7 -21   22.00    3.28   1
   1  -7 -20   14.21    2.19   1
   1  -7 -19    0.30    2.01   1
   1  -7 -18  135.72    7.69   1
   1  -7 -17    1.69    2.29   1
   1  -7 -16    4.58    2.18   1
   1  -7 -15    2.89    2.21   1
   1  -7 -14    1.59    2.09   1
   1  -7 -13   10.37    2.32   1
   1  -7 -12  101.81    6.26   1
   1  -7 -11   -0.30    1.41   1
   1  -7 -10    3.20    1.72   1
   1  -7  -9   62.25    4.58   1
   1  -7  -8    1.59    1.79   1
   1  -7  -7    8.41    1.68   1
   1  -7  -6  304.50   12.56   1
   1  -7  -5    1.49    1.59   1
   1  -7  -4    1.90    1.60   1
   1  -7  -3   70.90    4.38   1
   1  -7  -2   16.97    1.98   1
   1  -7  -1   -1.10    1.60   1
   1  -7   0  219.04   10.36   1
   1  -7   1    1.90    1.49   1
   1  -7   2   38.81    3.24   1
   1  -7   3  158.00    8.55   1
   1  -7   4   29.81    2.40   1
   1  -7   5   13.32    1.97   1
   1  -7   6   50.41    4.26   1
   1  -7   7    3.31    1.49   1
   1  -7   8   23.14    2.40   1
   1  -7   9  173.98   10.02   1
   1  -7  10   30.03    3.40   1
   1  -7  11   18.06    2.63   1
   1  -7  12   42.25    3.25   1
   1  -7  13    2.10    1.91   1
   1  -7  14    1.99    1.89   1
   1  -7  15   19.01    2.53   1
   1  -7  16   -0.20    1.21   1
   1  -7  17    1.69    2.00   1
   1  -7  18   -3.20    2.11   1
   1  -7  19    3.61    2.01   1
   1  -7  20   59.60    4.17   1
   1  -7  21   34.46    3.64   1
   1  -7  21   37.95    3.70   1
   1  -7  22   17.98    2.97   1
   1  -7  22   32.15    2.84   1
   1  -7  23    4.20    2.30   1
   1  -7  23    5.52    2.49   1
   1  -7  24   -4.41    2.60   1
   1  -7  24   -0.90    2.20   1
   1  -7  25    3.31    2.62   1
   1  -7  26   -0.40    2.19   1
   1  -7  26    1.49    1.68   1
   1  -7  27   30.58    3.98   1
   1  -7  27   25.60    4.05   1
   1  -7  28   23.14    4.33   1
   1  -7  28   21.62    3.91   1
   1  -7  29   10.50    3.18   1
   1  -7  29    7.02    3.18   1
   1  -7  30   42.90    4.19   1
   1  -7  31   10.37    3.99   1
   1  -7  31   15.68    3.80   1
   1  -7  32    3.39    3.61   1
   1  -7  32    0.79    3.28   1
   1  -7  33    9.92    4.41   1
   1  -7  33   12.32    4.07   1
   1  -7  34   -2.79    2.91   1
   1  -7  34   -5.11    3.89   1
   1  -7  35   33.06    4.26   1
   1  -7  36  104.04    9.79   1
   1  -7  37   11.97    4.43   1
   1  -7  38   24.80    5.18   1
   1  -7  39   19.36    5.10   1
   1  -7  40   32.26    5.45   1
   1  -7  41   38.94    5.87   1
   1  -7  42   43.56    7.26   1
   1  -7  43    1.59    3.78   1
   1  -7  44  -16.32    6.22   1
   1  -6 -46    3.50    5.01   1
   1  -6 -45    2.99    4.71   1
   1  -6 -44    9.67    5.16   1
   1  -6 -43    2.99    5.09   1
   1  -6 -42    9.92    4.41   1
   1  -6 -41    1.90    4.42   1
   1  -6 -40   10.63    4.30   1
   1  -6 -39    2.31    4.01   1
   1  -6 -38   -1.49    3.68   1
   1  -6 -37    6.92    4.00   1
   1  -6 -36   34.46    5.28   1
   1  -6 -35   10.50    3.37   1
   1  -6 -34   -2.19    2.90   1
   1  -6 -33    0.50    3.01   1
   1  -6 -32   -1.10    2.10   1
   1  -6 -31   -1.69    2.89   1
   1  -6 -30  146.41    8.95   1
   1  -6 -29    0.20    2.62   1
   1  -6 -28   -1.49    2.39   1
   1  -6 -27    1.49    2.39   1
   1  -6 -26   -0.10    2.53   1
   1  -6 -25    1.39    2.29   1
   1  -6 -24   48.02    4.16   1
   1  -6 -23    4.80    2.28   1
   1  -6 -22   11.63    2.52   1
   1  -6 -21    7.02    1.70   1
   1  -6 -20   30.69    3.21   1
   1  -6 -19   31.92    3.50   1
   1  -6 -18    0.40    1.50   1
   1  -6 -17    1.49    1.29   1
   1  -6 -16    8.88    1.79   1
   1  -6 -15  110.04    6.50   1
   1  -6 -14   30.58    1.77   1
   1  -6 -14   27.67    3.05   1
   1  -6 -13   13.69    2.00   1
   1  -6 -13   10.69    0.98   1
   1  -6 -12    2.19    1.51   1
   1  -6 -12    4.28    0.70   1
   1  -6 -11   23.91    3.03   1
   1  -6 -11   20.07    1.25   1
   1  -6 -10    0.50    1.60   1
   1  -6 -10    0.79    0.50   1
   1  -6  -9   12.89    1.87   1
   1  -6  -8    0.71    1.51   1
   1  -6  -7    4.08    1.41   1
   1  -6  -6   24.80    2.69   1
   1  -6  -5    0.71    1.41   1
   1  -6  -4   15.21    2.18   1
   1  -6  -3  408.85   18.60   1
   1  -6  -2   15.37    2.20   1
   1  -6  -1    0.71    1.21   1
   1  -6   0  543.82   25.19   1
   1  -6   1   16.00    1.76   1
   1  -6   2   94.67    5.25   1
   1  -6   3  288.66   15.97   1
   1  -6   4   91.20    6.30   1
   1  -6   5   19.10    2.01   1
   1  -6   6    0.00    1.00   1
   1  -6   7    5.11    1.31   1
   1  -6   8    2.31    1.31   1
   1  -6   9   20.88    2.38   1
   1  -6  10    4.88    1.41   1
   1  -6  11    7.08    1.81   1
   1  -6  12   72.93    4.27   1
   1  -6  13   -0.90    1.50   1
   1  -6  14    9.12    1.99   1
   1  -6  15   16.00    2.00   1
   1  -6  15   13.47    1.69   1
   1  -6  16    2.10    1.19   1
   1  -6  16    2.99    1.80   1
   1  -6  17   -2.31    1.61   1
   1  -6  17    0.20    1.61   1
   1  -6  18   94.87    5.06   1
   1  -6  18  106.09    5.97   1
   1  -6  19   13.32    2.19   1
   1  -6  19   11.90    2.28   1
   1  -6  20   19.98    2.50   1
   1  -6  20   19.98    2.32   1
   1  -6  21    2.79    2.10   1
   1  -6  21    2.99    2.01   1
   1  -6  22   10.37    2.51   1
   1  -6  22    9.12    2.48   1
   1  -6  23   28.73    3.00   1
   1  -6  23   25.70    2.94   1
   1  -6  24  214.62   10.55   1
   1  -6  24  168.74    8.83   1
   1  -6  25   16.73    3.11   1
   1  -6  25   21.72    3.17   1
   1  -6  26    0.79    2.30   1
   1  -6  26    0.40    2.19   1
   1  -6  27    4.28    2.82   1
   1  -6  27    1.21    2.31   1
   1  -6  28   -1.59    1.59   1
   1  -6  28   -1.00    2.60   1
   1  -6  29   43.69    4.36   1
   1  -6  29   57.15    4.84   1
   1  -6  30  435.14   17.11   1
   1  -6  30  375.97   20.17   1
   1  -6  31   20.52    3.90   1
   1  -6  31   17.72    3.54   1
   1  -6  32    7.18    3.22   1
   1  -6  33   -1.49    2.98   1
   1  -6  33   -1.00    2.70   1
   1  -6  34   40.32    4.70   1
   1  -6  34   45.16    5.78   1
   1  -6  35   14.06    3.30   1
   1  -6  35   13.18    3.70   1
   1  -6  36    4.71    3.60   1
   1  -6  36    3.20    3.01   1
   1  -6  38   23.14    4.71   1
   1  -6  39   29.16    5.94   1
   1  -6  40    5.20    3.01   1
   1  -6  41   -1.80    4.29   1
   1  -6  42   17.98    5.43   1
   1  -6  43    6.30    3.61   1
   1  -6  44    3.31    5.10   1
   1  -6  45   28.09    6.57   1
   1  -5 -48   -3.10    5.91   1
   1  -5 -47    9.80    4.82   1
   1  -5 -46    0.59    4.97   1
   1  -5 -45   40.83    7.41   1
   1  -5 -44    5.38    4.78   1
   1  -5 -43   12.67    3.70   1
   1  -5 -42   20.61    5.08   1
   1  -5 -41   -0.20    3.62   1
   1  -5 -40    8.70    3.72   1
   1  -5 -39   39.19    5.76   1
   1  -5 -38    4.41    3.32   1
   1  -5 -37    0.10    3.34   1
   1  -5 -36  126.79    9.23   1
   1  -5 -35    7.02    2.92   1
   1  -5 -34   -1.30    2.80   1
   1  -5 -33    1.00    2.00   1
   1  -5 -32   12.11    3.20   1
   1  -5 -31   16.08    3.29   1
   1  -5 -30    4.00    1.88   1
   1  -5 -29    8.12    2.62   1
   1  -5 -28   34.57    3.06   1
   1  -5 -27   30.80    3.55   1
   1  -5 -26    0.50    2.31   1
   1  -5 -25    7.40    2.50   1
   1  -5 -24   13.18    3.19   1
   1  -5 -23    1.59    1.99   1
   1  -5 -22   38.19    3.58   1
   1  -5 -21   -1.49    1.78   1
   1  -5 -20   57.30    4.24   1
   1  -5 -19   76.56    5.78   1
   1  -5 -18    5.62    1.99   1
   1  -5 -17    4.71    1.91   1
   1  -5 -16    3.31    1.71   1
   1  -5 -16    5.11    0.90   1
   1  -5 -15    0.10    1.72   1
   1  -5 -15    0.00    1.00   1
   1  -5 -14   18.58    2.07   1
   1  -5 -14   16.97    1.32   1
   1  -5 -13   24.30    1.48   1
   1  -5 -13   25.50    2.53   1
   1  -5 -12  296.87   15.16   1
   1  -5 -12  365.19   13.38   1
   1  -5 -11   32.15    1.81   1
   1  -5 -11   25.91    2.85   1
   1  -5 -10    5.20    0.68   1
   1  -5 -10    5.62    1.18   1
   1  -5  -9  109.62    4.82   1
   1  -5  -9  103.02    6.70   1
   1  -5  -8    2.79    0.60   1
   1  -5  -8    2.79    1.30   1
   1  -5  -7    4.71    0.69   1
   1  -5  -7    4.28    0.99   1
   1  -5  -6   23.23    1.93   1
   1  -5  -6   26.42    2.06   1
   1  -5  -5   22.66    2.19   1
   1  -5  -4   51.27    3.15   1
   1  -5  -3  421.07   18.47   1
   1  -5  -2   66.26    5.05   1
   1  -5  -1   -0.20    1.01   1
   1  -5   0  184.42    8.96   1
   1  -5   1    5.20    1.09   1
   1  -5   2   30.25    2.09   1
   1  -5   3  324.00   16.92   1
   1  -5   4   23.04    1.82   1
   1  -5   5    6.10    1.28   1
   1  -5   6   80.46    4.13   1
   1  -5   7    1.39    0.80   1
   1  -5   8    5.29    1.29   1
   1  -5   9   13.40    1.46   1
   1  -5  10    4.49    1.19   1
   1  -5  10    8.88    1.19   1
   1  -5  11    7.67    1.50   1
   1  -5  11   12.32    1.47   1
   1  -5  12  117.51    5.85   1
   1  -5  13   45.56    2.83   1
   1  -5  13   36.84    3.16   1
   1  -5  14   53.00    2.91   1
   1  -5  14   29.38    2.93   1
   1  -5  15    1.10    1.41   1
   1  -5  15   -0.10    1.52   1
   1  -5  16    9.67    1.68   1
   1  -5  16    7.62    1.49   1
   1  -5  17    4.58    1.80   1
   1  -5  17    7.08    1.60   1
   1  -5  18   11.09    2.00   1
   1  -5  18   12.18    1.88   1
   1  -5  19    3.69    1.80   1
   1  -5  19    3.10    1.58   1
   1  -5  20   27.88    2.85   1
   1  -5  20   36.84    3.04   1
   1  -5  21   33.52    3.01   1
   1  -5  21   41.47    3.35   1
   1  -5  22   10.37    2.19   1
   1  -5  22    9.49    2.22   1
   1  -5  23    2.79    1.90   1
   1  -5  23   -0.59    1.89   1
   1  -5  24   18.84    3.04   1
   1  -5  24   20.79    3.01   1
   1  -5  25    4.88    2.21   1
   1  -5  25   -1.30    1.89   1
   1  -5  26    0.90    2.11   1
   1  -5  26    1.30    1.71   1
   1  -5  27   31.92    3.73   1
   1  -5  28    4.20    2.79   1
   1  -5  29   12.32    3.02   1
   1  -5  29   10.18    2.17   1
   1  -5  30  153.02    8.91   1
   1  -5  30  136.66    7.72   1
   1  -5  31    9.49    3.08   1
   1  -5  32   10.89    3.17   1
   1  -5  33   79.39    6.77   1
   1  -5  33   73.44    5.14   1
   1  -5  34    4.08    2.50   1
   1  -5  35   16.56    3.58   1
   1  -5  35   21.90    3.93   1
   1  -5  36  197.96   11.82   1
   1  -5  37   34.46    4.93   1
   1  -5  37   37.45    5.14   1
   1  -5  38   20.88    3.66   1
   1  -5  38   16.00    4.48   1
   1  -5  39   71.57    6.60   1
   1  -5  40   14.59    4.97   1
   1  -5  41   16.40    5.02   1
   1  -5  42   37.33    6.60   1
   1  -5  43    1.00    4.60   1
   1  -5  44    6.71    5.39   1
   1  -5  45   25.40    5.24   1
   1  -5  46   -7.67    4.71   1
   1  -4 -49    9.49    5.61   1
   1  -4 -41    6.92    3.68   1
   1  -4 -38   35.28    4.51   1
   1  -4 -37    5.62    2.89   1
   1  -4 -36    0.00    1.00   1
   1  -4 -35    0.10    3.03   1
   1  -4 -34  117.94    8.04   1
   1  -4 -33   10.82    2.63   1
   1  -4 -30  309.06   15.47   1
   1  -4 -29    4.20    2.50   1
   1  -4 -28    3.69    1.61   1
   1  -4 -27   25.91    2.85   1
   1  -4 -26   25.60    2.53   1
   1  -4 -25   27.98    3.60   1
   1  -4 -24  122.54    7.08   1
   1  -4 -23   10.89    1.78   1
   1  -4 -22   48.58    4.04   1
   1  -4 -21   50.55    3.98   1
   1  -4 -20    6.30    1.91   1
   1  -4 -19   19.01    2.27   1
   1  -4 -18  194.04    9.19   1
   1  -4 -17   51.70    3.45   1
   1  -4 -16    7.51    1.48   1
   1  -4 -15    0.10    1.52   1
   1  -4 -14    0.90    1.31   1
   1  -4 -14    0.40    0.69   1
   1  -4 -13   19.54    2.12   1
   1  -4 -13   22.56    1.52   1
   1  -4 -12   19.71    2.13   1
   1  -4 -12   27.88    1.58   1
   1  -4 -11   21.90    1.31   1
   1  -4 -11   17.14    1.82   1
   1  -4 -10   19.36    1.32   1
   1  -4 -10   16.56    1.71   1
   1  -4  -9  342.25   14.06   1
   1  -4  -8   22.47    1.90   1
   1  -4  -8   32.72    1.60   1
   1  -4  -7    0.20    0.40   1
   1  -4  -7    0.40    1.00   1
   1  -4  -6  166.93    8.27   1
   1  -4  -6  160.02    8.85   1
   1  -4  -5    3.39    0.59   1
   1  -4  -5    7.29    1.08   1
   1  -4  -4   25.10    2.10   1
   1  -4  -4   25.10    1.80   1
   1  -4  -3  584.67   27.08   1
   1  -4  -3  638.07   54.56   1
   1  -4  -2   11.42    1.28   1
   1  -4  -1   42.12    2.60   1
   1  -4   0  222.01   11.62   1
   1  -4   1   32.83    2.52   1
   1  -4   2   39.44    2.64   1
   1  -4   3    5.52    0.99   1
   1  -4   4   52.85    3.34   1
   1  -4   5   68.72    3.65   1
   1  -4   6  108.37    5.20   1
   1  -4   7    6.10    1.09   1
   1  -4   7    4.80    1.01   1
   1  -4   8   14.82    1.39   1
   1  -4   8    8.82    1.19   1
   1  -4   9  320.77   11.82   1
   1  -4  10    0.40    0.89   1
   1  -4  10    0.30    1.00   1
   1  -4  11   24.80    1.79   1
   1  -4  11   19.18    1.93   1
   1  -4  12  333.06   12.77   1
   1  -4  12  407.23   17.35   1
   1  -4  13    3.39    1.29   1
   1  -4  13    4.80    1.31   1
   1  -4  14   17.89    2.03   1
   1  -4  14   16.40    1.78   1
   1  -4  15  531.30   21.67   1
   1  -4  15  438.90   21.37   1
   1  -4  16    0.50    1.11   1
   1  -4  16    1.00    1.20   1
   1  -4  17   19.80    2.49   1
   1  -4  17   16.40    2.03   1
   1  -4  18  166.41    8.51   1
   1  -4  19    8.82    1.90   1
   1  -4  19   10.37    1.61   1
   1  -4  20   11.97    2.21   1
   1  -4  20   10.50    1.88   1
   1  -4  21   25.00    2.70   1
   1  -4  21   17.72    2.27   1
   1  -4  22    1.99    1.49   1
   1  -4  22    0.20    1.61   1
   1  -4  23    2.31    1.79   1
   1  -4  23    6.81    1.98   1
   1  -4  24   36.36    3.38   1
   1  -4  24   27.56    3.15   1
   1  -4  25   22.09    2.91   1
   1  -4  25   29.59    3.05   1
   1  -4  26   23.04    3.07   1
   1  -4  26   16.32    2.91   1
   1  -4  27   12.18    2.37   1
   1  -4  28    3.80    2.18   1
   1  -4  29    0.10    1.62   1
   1  -4  30  169.52    9.37   1
   1  -4  31    1.69    2.60   1
   1  -4  31   -0.59    1.99   1
   1  -4  32   47.33    5.09   1
   1  -4  33  208.80   11.27   1
   1  -4  34    4.80    2.72   1
   1  -4  34    6.00    2.99   1
   1  -4  36  191.82   14.68   1
   1  -4  37   13.03    3.83   1
   1  -4  38   31.81    5.30   1
   1  -4  39   35.05    5.56   1
   1  -4  43   29.92    5.47   1
   1  -4  44   12.18    3.70   1
   1  -4  45    3.20    4.62   1
   1  -3 -49   20.07    5.91   1
   1  -3 -46   -0.30    4.42   1
   1  -3 -45    2.10    2.90   1
   1  -3 -44   -0.30    3.92   1
   1  -3 -43   -1.30    2.69   1
   1  -3 -42   -2.99    3.91   1
   1  -3 -41    0.79    2.58   1
   1  -3 -35    2.69    2.49   1
   1  -3 -28    4.00    2.08   1
   1  -3 -27  289.68   14.64   1
   1  -3 -26    0.20    0.80   1
   1  -3 -25   15.68    1.27   1
   1  -3 -24   90.44    4.18   1
   1  -3 -24   90.82    5.34   1
   1  -3 -23   10.18    1.28   1
   1  -3 -23    9.92    1.83   1
   1  -3 -22    9.30    1.40   1
   1  -3 -22   12.18    2.16   1
   1  -3 -21  171.35    7.85   1
   1  -3 -20    6.40    1.72   1
   1  -3 -19   19.10    2.10   1
   1  -3 -18   72.25    4.42   1
   1  -3 -17   36.36    3.14   1
   1  -3 -16   36.97    2.92   1
   1  -3 -15  665.64   27.35   1
   1  -3 -14   48.02    3.33   1
   1  -3 -13    4.20    1.31   1
   1  -3 -12   56.25    3.30   1
   1  -3 -11    2.69    0.59   1
   1  -3 -11    1.90    0.91   1
   1  -3 -10   23.23    1.83   1
   1  -3 -10   19.89    1.87   1
   1  -3  -9   37.95    2.09   1
   1  -3  -9   33.18    2.30   1
   1  -3  -8    5.90    0.58   1
   1  -3  -8    3.39    1.10   1
   1  -3  -7   65.12    3.23   1
   1  -3  -7   86.12    3.53   1
   1  -3  -6   37.33    2.08   1
   1  -3  -6   34.46    2.35   1
   1  -3  -5   58.52    2.30   1
   1  -3  -4    1.30    0.50   1
   1  -3  -4   -0.59    0.60   1
   1  -3  -3  232.87    9.16   1
   1  -3  -3  264.71   12.69   1
   1  -3  -2    1.59    0.81   1
   1  -3  -2    0.79    0.50   1
   1  -3  -1   49.00    5.46   1
   1  -3  -1   55.20    2.82   1
   1  -3   1   47.75    2.76   1
   1  -3   2   34.34    2.11   1
   1  -3   3 3477.46  154.50   1
   1  -3   4  240.25    8.37   1
   1  -3   5  361.38   11.79   1
   1  -3   6    5.81    0.82   1
   1  -3   6    2.69    0.89   1
   1  -3   7    5.11    0.90   1
   1  -3   7    7.78    0.89   1
   1  -3   8    7.90    1.01   1
   1  -3   8    6.81    0.99   1
   1  -3   9  411.68   16.23   1
   1  -3   9  322.56   18.32   1
   1  -3  10    7.40    1.20   1
   1  -3  10    8.53    1.23   1
   1  -3  11    0.40    0.89   1
   1  -3  11    0.40    0.89   1
   1  -3  12  111.30    6.12   1
   1  -3  12  142.80    6.45   1
   1  -3  13   12.60    1.49   1
   1  -3  13    7.51    1.32   1
   1  -3  14   65.61    3.24   1
   1  -3  14   54.02    2.94   1
   1  -3  15   30.03    2.41   1
   1  -3  16   34.69    2.94   1
   1  -3  16   50.98    3.14   1
   1  -3  17    6.92    1.53   1
   1  -3  17    6.10    1.48   1
   1  -3  18  121.00    6.16   1
   1  -3  19   12.67    2.28   1
   1  -3  19   16.73    1.88   1
   1  -3  20   30.58    2.65   1
   1  -3  20   29.05    2.59   1
   1  -3  21    3.31    1.49   1
   1  -3  21    1.30    1.60   1
   1  -3  22    8.82    1.72   1
   1  -3  23    2.89    1.29   1
   1  -3  24   -0.20    1.11   1
   1  -3  24    3.39    1.80   1
   1  -3  25   -1.39    1.70   1
   1  -3  26   -2.10    1.80   1
   1  -3  28   10.11    1.97   1
   1  -3  30    7.18    2.52   1
   1  -3  31  121.00    6.60   1
   1  -3  32   32.15    4.20   1
   1  -3  33   77.62    5.81   1
   1  -3  35    3.80    2.61   1
   1  -3  35   -3.50    2.92   1
   1  -3  38    0.71    3.11   1
   1  -3  38    7.51    3.62   1
   1  -3  39   28.94    3.34   1
   1  -3  39   16.97    3.46   1
   1  -3  40    6.40    4.20   1
   1  -3  40   -0.50    3.72   1
   1  -3  41    1.69    3.90   1
   1  -3  44    2.89    4.18   1
   1  -3  45  107.95   10.60   1
   1  -3  46    5.20    3.51   1
   1  -3  47    5.52    4.51   1
   1  -3  48  -16.73    5.48   1
   1  -2 -50    6.40    5.52   1
   1  -2 -49    5.38    4.78   1
   1  -2 -46    2.69    4.49   1
   1  -2 -43    7.40    3.21   1
   1  -2 -24  248.06   11.97   1
   1  -2 -23    8.88    1.07   1
   1  -2 -22   14.82    1.23   1
   1  -2 -21    2.79    1.50   1
   1  -2 -21    6.30    0.90   1
   1  -2 -20    7.67    1.88   1
   1  -2 -20   16.16    1.37   1
   1  -2 -19   47.06    2.33   1
   1  -2 -19   48.30    3.34   1
   1  -2 -18  287.64   12.21   1
   1  -2 -18  287.30   13.22   1
   1  -2 -17   12.82    1.79   1
   1  -2 -17   12.82    1.00   1
   1  -2 -16   17.47    1.92   1
   1  -2 -15  253.45   13.69   1
   1  -2 -14   41.47    2.83   1
   1  -2 -13    1.10    0.90   1
   1  -2 -12  151.29    6.89   1
   1  -2 -11    0.00    1.00   1
   1  -2 -10    4.71    1.00   1
   1  -2  -9    2.31    0.61   1
   1  -2  -9    1.00    0.70   1
   1  -2  -8   72.93    5.64   1
   1  -2  -8   64.80    3.86   1
   1  -2  -7   51.27    3.01   1
   1  -2  -7   45.70    2.70   1
   1  -2  -7   59.29    3.54   1
   1  -2  -6   71.23    4.22   1
   1  -2  -6   96.83    5.12   1
   1  -2  -5   28.09    1.91   1
   1  -2  -5   36.24    2.05   1
   1  -2  -4    4.28    0.58   1
   1  -2  -4    3.69    0.50   1
   1  -2  -3 1568.16   58.61   1
   1  -2  -2    3.39    0.59   1
   1  -2  -2    3.69    0.61   1
   1  -2  -1   54.17    3.09   1
   1  -2  -1   49.84    2.54   1
   1  -2   0   98.80    5.37   1
   1  -2   0  108.78    8.34   1
   1  -2   1   70.22    3.02   1
   1  -2   1   43.96    2.39   1
   1  -2   2   22.09    1.32   1
   1  -2   2   14.52    1.07   1
   1  -2   3 2744.71  126.78   1
   1  -2   4  107.12    5.59   1
   1  -2   4  155.75    5.99   1
   1  -2   5  191.55    8.03   1
   1  -2   5  138.53    6.59   1
   1  -2   6  162.05    7.38   1
   1  -2   6  120.12    5.70   1
   1  -2   7   52.56    3.04   1
   1  -2   7   69.39    2.83   1
   1  -2   8    0.59    0.60   1
   1  -2   8    0.59    0.60   1
   1  -2   9  364.05   12.59   1
   1  -2  10   15.76    1.19   1
   1  -2  10   17.39    1.58   1
   1  -2  11    5.29    1.01   1
   1  -2  11    5.62    1.09   1
   1  -2  12  534.07   22.19   1
   1  -2  12  624.50   23.99   1
   1  -2  13    1.49    1.10   1
   1  -2  13    1.69    0.91   1
   1  -2  14   11.42    1.49   1
   1  -2  14    8.01    1.30   1
   1  -2  15  946.18   36.91   1
   1  -2  15  835.21   30.63   1
   1  -2  16    0.10    0.71   1
   1  -2  16    0.20    1.91   1
   1  -2  17    5.29    0.92   1
   1  -2  18    8.70    1.48   1
   1  -2  19    2.10    1.19   1
   1  -2  20   -1.00    1.20   1
   1  -2  21  166.15    8.51   1
   1  -2  22   15.13    1.79   1
   1  -2  23   13.10    2.17   1
   1  -2  24  341.14   17.36   1
   1  -2  25    5.62    1.80   1
   1  -2  26    3.39    1.99   1
   1  -2  27  153.51    7.68   1
   1  -2  29   26.83    3.32   1
   1  -2  30    3.10    2.39   1
   1  -2  31   46.65    3.96   1
   1  -2  32   41.86    4.14   1
   1  -2  32   46.24    3.94   1
   1  -2  33   10.89    2.97   1
   1  -2  33    5.20    2.19   1
   1  -2  38    0.30    2.01   1
   1  -2  41   18.40    4.29   1
   1  -2  41    7.90    3.09   1
   1  -2  42    5.20    3.92   1
   1  -2  43   13.91    4.63   1
   1  -2  47   -4.58    4.49   1
   1  -2  48   41.86    6.99   1
   1  -1 -50   -0.90    3.61   1
   1  -1 -49   19.18    5.17   1
   1  -1 -46   17.14    4.47   1
   1  -1 -45   30.80    5.88   1
   1  -1 -19   70.90    3.20   1
   1  -1 -18 1149.21   52.21   1
   1  -1 -17   23.52    1.36   1
   1  -1 -16    1.39    0.50   1
   1  -1 -15  106.09    4.53   1
   1  -1 -14    4.28    0.70   1
   1  -1 -13   23.23    1.64   1
   1  -1 -12   60.06    3.41   1
   1  -1 -11    2.19    0.50   1
   1  -1  -9    7.08    1.12   1
   1  -1  -8   27.67    1.79   1
   1  -1  -7    9.80    1.00   1
   1  -1  -6    1.30    0.41   1
   1  -1  -5    1.99    0.51   1
   1  -1  -5    1.30    0.41   1
   1  -1  -4   45.16    2.55   1
   1  -1  -4   37.95    1.97   1
   1  -1  -3  691.69   38.40   1
   1  -1  -3 1074.53   51.14   1
   1  -1   3    6.92    0.79   1
   1  -1   3    0.10    0.30   1
   1  -1   4    0.00    1.00   1
   1  -1   5    0.40    0.30   1
   1  -1   6   38.56    2.11   1
   1  -1   7    8.70    0.83   1
   1  -1   8   30.25    2.09   1
   1  -1   9  694.85   25.83   1
   1  -1  10   13.03    1.30   1
   1  -1  11    7.67    1.11   1
   1  -1  12  443.10   22.73   1
   1  -1  13    9.18    1.27   1
   1  -1  14    2.79    0.90   1
   1  -1  15  701.72   25.96   1
   1  -1  16    1.30    1.39   1
   1  -1  17    1.21    1.10   1
   1  -1  18 1385.33   58.81   1
   1  -1  19   22.37    3.59   1
   1  -1  20   25.30    1.91   1
   1  -1  21   27.25    2.51   1
   1  -1  22    0.90    1.10   1
   1  -1  25    8.53    1.69   1
   1  -1  26    2.31    1.61   1
   1  -1  32   60.06    4.65   1
   1  -1  37    1.49    2.00   1
   1  -1  43    1.59    2.80   1
   1  -1  44    1.90    2.90   1
   1  -1  45   10.11    3.63   1
   1  -1  46   -0.10    2.73   1
   1  -1  47    0.90    3.21   1
   1  -1  48    4.88    3.71   1
   1  -1  49   -7.02    4.61   1
   1   0 -50    4.00    5.00   1
   1   0 -10    7.90    0.79   1
   1   0  -8    3.69    0.61   1
   1   0  -8    3.20    0.39   1
   1   0  -6  495.51   23.60   1
   1   0  -6  441.84   21.02   1
   1   0   6  522.58   19.20   1
   1   0   6  490.62   27.91   1
   1   0   8    5.52    0.70   1
   1   0   8    7.08    0.90   1
   1   0  10    6.60    0.93   1
   1   0  12 1015.70   50.99   1
   1   0  14    4.28    0.99   1
   1   0  14    8.12    1.20   1
   1   0  16    3.20    0.89   1
   1   0  18  243.05   11.85   1
   1   0  20    7.78    0.50   1
   1   0  22   28.62    1.18   1
   1   0  24  852.06   34.44   1
   1   0  28    0.30    1.51   1
   1   0  34  222.90   12.24   1
   1   0  38   -1.39    2.90   1
   1   0  40   11.63    4.09   1
   1   0  42    0.30    2.92   1
   1   0  46   16.81    6.23   1
   1   0  48   -0.40    5.08   1
   1   1  -6    1.30    0.59   1
   1   1  -5    1.39    0.50   1
   1   1   3    6.10    0.49   1
   1   1   3   -0.71    0.40   1
   1   1   4    0.20    0.31   1
   1   1   5   -0.20    0.31   1
   1   1   7    7.51    0.71   1
   1   1   8   29.05    1.94   1
   1   1   9  731.16   25.42   1
   1   1  10    7.29    1.03   1
   1   1  11    7.62    1.21   1
   1   1  11    6.60    1.18   1
   1   1  12  454.12   16.62   1
   1   1  12  430.15   20.33   1
   1   1  13   10.11    1.27   1
   1   1  13   10.37    1.29   1
   1   1  14    0.59    0.80   1
   1   1  14    3.80    0.90   1
   1   1  15  707.56   25.54   1
   1   1  15  699.60   33.86   1
   1   1  16    0.30    0.70   1
   1   1  16    2.31    1.00   1
   1   1  17    1.21    1.21   1
   1   1  17    1.59    1.18   1
   1   1  18 1359.40   55.31   1
   1   1  18 1407.00   54.01   1
   1   1  19   13.91    2.01   1
   1   1  19   16.73    2.13   1
   1   1  20   25.50    2.32   1
   1   1  20   25.91    2.34   1
   1   1  21   27.04    2.29   1
   1   1  21   31.25    2.46   1
   1   1  22    1.30    1.39   1
   1   1  22   -0.40    1.30   1
   1   1  23   39.82    3.41   1
   1   1  23   32.15    2.95   1
   1   1  24    0.40    1.89   1
   1   1  24    0.00    1.00   1
   1   1  25    5.11    1.81   1
   1   1  26    3.61    1.90   1
   1   1  27   56.55    4.36   1
   1   1  27   47.06    3.84   1
   1   1  28   41.09    3.85   1
   1   1  29   17.22    2.08   1
   1   1  30  377.52   18.26   1
   1   1  31    2.79    1.60   1
   1   1  34   -2.31    1.70   1
   1   1  34    5.29    3.17   1
   1   1  37    1.59    2.09   1
   1   1  37    1.90    2.70   1
   1   1  40    2.79    3.71   1
   1   1  41   -0.40    2.49   1
   1   1  46   -1.21    3.10   1
   1   2   2   21.44    1.11   1
   1   2   4  117.29    5.85   1
   1   2   9  315.77   14.93   1
   1   2  10   15.60    1.42   1
   1   2  11    8.01    1.19   1
   1   2  12  567.39   22.39   1
   1   2  13   -0.50    0.81   1
   1   2  14   10.50    1.62   1
   1   2  15  894.61   36.49   1
   1   2  16    0.50    1.21   1
   1   2  17    5.38    1.48   1
   1   2  18   10.18    1.79   1
   1   2  19    2.99    1.38   1
   1   2  20    1.00    1.50   1
   1   2  21  200.79   10.77   1
   1   2  22   11.09    1.80   1
   1   2  23   13.47    1.61   1
   1   2  24  366.34   16.84   1
   1   2  25    5.20    2.10   1
   1   2  26    2.31    1.61   1
   1   2  27  157.50    8.53   1
   1   2  28    6.60    2.31   1
   1   2  29   27.77    3.27   1
   1   2  30    1.39    1.70   1
   1   2  31   47.06    4.25   1
   1   2  40   13.62    3.47   1
   1   2  43    7.40    3.21   1
   1   3   4  196.56    7.57   1
   1   3  11    0.40    0.69   1
   1   3  12  121.44    7.05   1
   1   3  13   10.89    1.32   1
   1   3  14   57.46    3.64   1
   1   3  15   17.64    2.10   1
   1   3  16   47.75    3.87   1
   1   3  17    6.10    1.28   1
   1   3  18  144.00    7.20   1
   1   3  19   14.82    2.23   1
   1   3  20   31.47    2.58   1
   1   3  21    2.10    1.60   1
   1   3  22    9.92    1.51   1
   1   3  23    1.39    1.79   1
   1   3  24    1.59    1.59   1
   1   3  25   -1.30    1.21   1
   1   3  26    0.79    1.80   1
   1   3  27  333.06   13.87   1
   1   3  28    7.40    2.39   1
   1   3  29   12.53    2.48   1
   1   3  31  113.00    7.23   1
   1   3  32   40.58    4.33   1
   1   3  33   74.48    5.52   1
   1   3  36    5.02    3.32   1
   1   3  37    0.59    2.39   1
   1   3  38    4.58    3.00   1
   1   3  40    3.39    3.68   1
   1   3  43   14.98    3.72   1
   1   3  44    1.99    3.89   1
   1   3  48    2.79    4.11   1
   1   4   4   72.42    3.06   1
   1   4   5   94.28    3.69   1
   1   4  13    6.92    1.42   1
   1   4  14   17.72    1.94   1
   1   4  15  475.24   21.80   1
   1   4  16    1.39    1.20   1
   1   4  17   15.60    1.98   1
   1   4  18  203.06   10.26   1
   1   4  19    9.49    1.79   1
   1   4  20    5.52    1.79   1
   1   4  21   13.18    2.47   1
   1   4  22   -1.80    1.61   1
   1   4  23   -1.00    1.70   1
   1   4  24   22.56    2.66   1
   1   4  25   33.52    3.36   1
   1   4  26    9.12    1.99   1
   1   4  27   10.50    2.40   1
   1   4  28   -0.20    2.11   1
   1   4  29    6.20    2.39   1
   1   4  30  174.77   13.22   1
   1   4  31    1.69    2.29   1
   1   4  32   33.29    4.04   1
   1   4  33  217.56   10.62   1
   1   4  34   12.18    3.00   1
   1   4  35   12.60    3.83   1
   1   4  36  184.96   13.60   1
   1   4  37   15.21    3.43   1
   1   4  38   34.46    5.05   1
   1   4  39   48.44    4.59   1
   1   4  40   11.90    3.93   1
   1   4  43   33.76    5.46   1
   1   4  44    7.08    3.62   1
   1   4  45    2.31    4.41   1
   1   4  46    3.39    3.28   1
   1   4  47   -4.20    5.08   1
   1   5   5    6.20    0.50   1
   1   5  15    0.71    1.31   1
   1   5  16   10.50    1.62   1
   1   5  17    7.29    1.62   1
   1   5  18    5.02    1.52   1
   1   5  19    5.52    1.79   1
   1   5  20   37.09    3.65   1
   1   5  21   31.47    4.15   1
   1   5  22    9.30    2.07   1
   1   5  23    0.10    1.92   1
   1   5  24   16.08    2.41   1
   1   5  25    5.52    2.02   1
   1   5  26    0.10    1.92   1
   1   5  27   39.82    4.04   1
   1   5  28    4.58    2.31   1
   1   5  29   13.91    3.28   1
   1   5  30  147.38   12.38   1
   1   5  31   11.97    3.18   1
   1   5  32    9.67    3.17   1
   1   5  33   86.86    6.71   1
   1   5  34    1.10    3.00   1
   1   5  35   34.46    5.17   1
   1   5  36  218.74   15.97   1
   1   5  37   56.55    5.11   1
   1   5  38   22.94    4.60   1
   1   5  39   44.09    5.31   1
   1   5  42   38.94    5.99   1
   1   5  45   44.62    7.48   1
   1   5  46    0.71    3.31   1
   1   5  47    6.00    5.59   1
   1   6   5   22.94    1.05   1
   1   6  16   -1.00    1.40   1
   1   6  17   -0.20    1.51   1
   1   6  18   84.27    5.88   1
   1   6  19   11.70    2.19   1
   1   6  20   21.72    2.70   1
   1   6  21    0.20    1.61   1
   1   6  22    8.12    2.22   1
   1   6  23   30.47    3.31   1
   1   6  24  198.53   12.12   1
   1   6  25   17.89    3.30   1
   1   6  26    3.50    2.28   1
   1   6  27    2.10    2.29   1
   1   6  28   -1.21    2.31   1
   1   6  29   51.70    4.31   1
   1   6  30  395.61   25.06   1
   1   6  31   17.98    3.39   1
   1   6  32    8.88    3.87   1
   1   6  33   -1.39    2.50   1
   1   6  34   50.55    4.83   1
   1   6  35   10.37    3.80   1
   1   6  36    6.50    3.62   1
   1   6  37   -0.71    3.51   1
   1   6  38   22.47    4.55   1
   1   6  39   35.05    5.45   1
   1   6  41   -0.79    4.27   1
   1   6  42   22.09    4.89   1
   1   6  43    1.80    4.90   1
   1   6  44   10.30    4.11   1
   1   6  45   13.10    6.08   1
   1   6  46   24.11    6.87   1
   1   7   4   28.41    1.60   1
   1   7   5   16.08    0.96   1
   1   7   6   70.39    2.35   1
   1   7   6   57.30    2.27   1
   1   7  17   -0.71    1.61   1
   1   7  18   -0.40    1.89   1
   1   7  19    1.99    1.80   1
   1   7  20   63.04    4.29   1
   1   7  21   26.83    3.21   1
   1   7  22   23.52    3.20   1
   1   7  23    6.10    2.42   1
   1   7  24    1.90    2.21   1
   1   7  25    1.69    2.29   1
   1   7  26   -0.59    2.39   1
   1   7  27   24.50    3.76   1
   1   7  28   33.18    4.26   1
   1   7  29    8.88    3.52   1
   1   7  30   27.88    4.33   1
   1   7  31   10.69    3.20   1
   1   7  32    1.99    2.90   1
   1   7  33   13.62    4.13   1
   1   7  34    3.20    2.79   1
   1   7  35   17.72    4.29   1
   1   7  36   90.44    7.42   1
   1   7  37    8.29    3.80   1
   1   7  38   32.15    5.22   1
   1   7  39   12.60    4.19   1
   1   7  40   24.80    5.28   1
   1   7  41   43.56    5.81   1
   1   7  42   36.00    6.36   1
   1   7  43    3.39    3.50   1
   1   7  44    0.50    5.42   1
   1   8   2    1.10    1.01   1
   1   8   3  281.23   12.07   1
   1   8   4    1.99    0.79   1
   1   8  18  138.53    8.95   1
   1   8  19   25.91    2.85   1
   1   8  20   16.56    2.52   1
   1   8  21   20.43    3.16   1
   1   8  22   -0.71    2.02   1
   1   8  23   -0.59    2.19   1
   1   8  24    1.59    2.49   1
   1   8  25    6.40    2.58   1
   1   8  26    0.90    2.51   1
   1   8  27    0.71    2.91   1
   1   8  28    7.08    3.51   1
   1   8  29   50.13    5.10   1
   1   8  30    1.21    2.90   1
   1   8  31   -0.59    3.28   1
   1   8  32    3.50    3.52   1
   1   8  33   55.06    5.94   1
   1   8  34   -4.28    3.81   1
   1   8  35   15.21    4.37   1
   1   8  36   32.83    4.93   1
   1   8  37   -2.69    4.00   1
   1   8  38    0.79    4.18   1
   1   8  39    9.67    5.47   1
   1   8  40    4.20    5.00   1
   1   8  41    2.10    5.10   1
   1   8  42   -8.82    4.63   1
   1   9  19    2.40    2.60   1
   1   9  20    2.99    2.70   1
   1   9  21   88.17    6.39   1
   1   9  22    1.49    2.49   1
   1   9  23   11.09    2.93   1
   1   9  24    0.71    2.60   1
   1   9  25    3.69    2.88   1
   1   9  26    6.40    3.19   1
   1   9  27   66.26    6.19   1
   1   9  28   -0.79    2.88   1
   1   9  29    8.18    3.49   1
   1   9  30    1.39    3.40   1
   1   9  31   12.18    3.91   1
   1   9  32   21.62    3.91   1
   1   9  33   15.29    4.93   1
   1   9  34    4.49    4.58   1
   1   9  35   -2.89    4.08   1
   1  10  19   43.56    4.75   1
   1  10  20    0.59    2.68   1
   1  10  21    8.88    3.22   1
   1  10  22    1.21    2.90   1
   1  10  23   -5.20    2.60   1
   1  10  24   12.32    3.51   1
   1  10  25    9.30    3.60   1
   1  10  26    3.10    3.91   1
   1  10  27    5.11    3.71   1
   2 -14 -19   10.30    6.68   1
   2 -14 -18   -0.10    6.17   1
   2 -14 -16    1.10    6.91   1
   2 -14 -15   38.44    8.43   1
   2 -14 -14    7.29    6.91   1
   2 -14 -13    6.60    5.81   1
   2 -14 -12   -0.20    3.32   1
   2 -14 -11   15.52    6.30   1
   2 -14 -10   15.92    6.30   1
   2 -14  -9    0.71    5.53   1
   2 -14  -7   -0.50    3.62   1
   2 -14  -6   10.82    5.53   1
   2 -14  -5    6.81    5.43   1
   2 -14  -4    2.59    4.80   1
   2 -14  -3   -3.20    4.69   1
   2 -13 -26    3.39    6.00   1
   2 -13 -25   -6.30    4.32   1
   2 -13 -24   43.16    9.20   1
   2 -13 -23    2.19    5.98   1
   2 -13 -22    2.79    5.08   1
   2 -13 -21   51.12    7.01   1
   2 -13 -20    3.31    5.71   1
   2 -13 -19   22.66    6.28   1
   2 -13 -18   14.90    4.48   1
   2 -13 -17    4.00    5.20   1
   2 -13 -16   -5.52    4.89   1
   2 -13 -15    9.12    5.68   1
   2 -13 -14   -2.50    4.99   1
   2 -13 -13    7.29    5.29   1
   2 -13 -12    1.21    3.32   1
   2 -13 -11   16.16    5.23   1
   2 -13 -10   13.40    5.42   1
   2 -13  -9   30.80    5.11   1
   2 -13  -8    5.81    4.48   1
   2 -13  -7   19.54    5.22   1
   2 -13  -6   37.82    5.66   1
   2 -13  -5   12.60    4.61   1
   2 -13  -4   -1.21    3.61   1
   2 -13  -3    4.80    2.89   1
   2 -13  -2   -0.71    4.32   1
   2 -13  -1   -4.00    3.80   1
   2 -13   0    7.90    4.27   1
   2 -13   1    1.69    4.39   1
   2 -13   2   -3.69    4.30   1
   2 -13   3    6.20    4.28   1
   2 -13   4    4.88    4.20   1
   2 -12 -31   -0.79    5.96   1
   2 -12 -30   -3.31    5.82   1
   2 -12 -29   -5.52    5.83   1
   2 -12 -28   13.18    6.17   1
   2 -12 -27    7.29    6.21   1
   2 -12 -26    0.90    5.02   1
   2 -12 -25    6.50    5.41   1
   2 -12 -24   14.82    4.47   1
   2 -12 -23    6.40    4.81   1
   2 -12 -22   20.88    5.48   1
   2 -12 -21   38.94    6.86   1
   2 -12 -20   -1.69    4.68   1
   2 -12 -19   29.27    6.06   1
   2 -12 -18   87.61    7.86   1
   2 -12 -17    9.80    4.57   1
   2 -12 -16   12.39    4.93   1
   2 -12 -15   -0.20    4.02   1
   2 -12 -14    2.10    3.19   1
   2 -12 -13    3.50    4.60   1
   2 -12 -12   -0.79    3.68   1
   2 -12 -11    3.31    3.89   1
   2 -12 -10   29.48    4.56   1
   2 -12  -9   42.90    6.16   1
   2 -12  -8   39.56    5.28   1
   2 -12  -7    7.78    2.79   1
   2 -12  -6    5.38    3.99   1
   2 -12  -5    4.20    3.40   1
   2 -12  -4    6.92    3.79   1
   2 -12  -3    1.99    3.38   1
   2 -12  -2    9.80    3.38   1
   2 -12  -1   22.56    3.99   1
   2 -12   0  125.89    8.30   1
   2 -12   1    7.78    2.62   1
   2 -12   2    2.79    3.41   1
   2 -12   3    3.20    3.29   1
   2 -12   4    9.99    3.73   1
   2 -12   5   22.37    4.64   1
   2 -12   6   11.49    3.80   1
   2 -12   7    9.67    3.98   1
   2 -12   8   14.52    4.57   1
   2 -12   9    4.28    4.18   1
   2 -12  10    6.50    3.88   1
   2 -11 -34   11.49    5.83   1
   2 -11 -33    5.81    5.59   1
   2 -11 -32   -5.02    5.69   1
   2 -11 -31   12.11    6.12   1
   2 -11 -30   60.37    8.24   1
   2 -11 -29    7.62    4.08   1
   2 -11 -28    3.80    3.78   1
   2 -11 -27   17.72    3.87   1
   2 -11 -26   13.18    3.70   1
   2 -11 -25    6.10    4.59   1
   2 -11 -24   67.73    7.41   1
   2 -11 -23   10.11    4.39   1
   2 -11 -22   -0.90    2.91   1
   2 -11 -21   17.14    4.47   1
   2 -11 -20   11.70    4.38   1
   2 -11 -19    7.08    4.47   1
   2 -11 -18   24.90    4.09   1
   2 -11 -17   40.45    6.11   1
   2 -11 -16   11.42    4.19   1
   2 -11 -15   81.36    7.04   1
   2 -11 -14   18.84    3.30   1
   2 -11 -13    0.59    2.39   1
   2 -11 -12    5.62    2.80   1
   2 -11 -11    5.20    3.69   1
   2 -11 -10    1.69    2.60   1
   2 -11  -9    2.19    3.11   1
   2 -11  -8    1.00    3.10   1
   2 -11  -7    7.18    3.27   1
   2 -11  -6   10.30    2.89   1
   2 -11  -5    1.21    2.31   1
   2 -11  -4    5.81    3.18   1
   2 -11  -3   58.83    7.36   1
   2 -11  -2   30.14    4.50   1
   2 -11  -1    3.61    2.89   1
   2 -11   0    6.30    3.21   1
   2 -11   1    3.61    3.12   1
   2 -11   2   39.56    4.65   1
   2 -11   3   43.43    4.35   1
   2 -11   4   14.82    3.70   1
   2 -11   5    2.69    2.98   1
   2 -11   6    8.29    2.30   1
   2 -11  10   -0.10    3.24   1
   2 -11  11    5.81    3.42   1
   2 -11  12  379.86   17.15   1
   2 -11  13    8.53    3.91   1
   2 -11  14   -0.50    2.22   1
   2 -11  15    8.29    3.92   1
   2 -10 -38   -9.00    6.18   1
   2 -10 -37    0.20    5.53   1
   2 -10 -36   -1.21    4.03   1
   2 -10 -35    2.89    4.69   1
   2 -10 -34   -2.79    5.28   1
   2 -10 -33   23.52    5.72   1
   2 -10 -32   20.98    5.50   1
   2 -10 -31    0.79    4.38   1
   2 -10 -30   14.36    5.08   1
   2 -10 -29   -1.80    3.19   1
   2 -10 -28    7.29    4.81   1
   2 -10 -27   75.34    7.64   1
   2 -10 -26   37.70    6.14   1
   2 -10 -25   10.11    4.32   1
   2 -10 -24   12.60    4.19   1
   2 -10 -23    0.30    3.82   1
   2 -10 -22    2.79    3.61   1
   2 -10 -21    2.59    3.38   1
   2 -10 -20    7.78    3.07   1
   2 -10 -19    4.88    3.71   1
   2 -10 -18    4.80    3.42   1
   2 -10 -17   11.63    3.89   1
   2 -10 -16   31.25    3.69   1
   2 -10 -15   23.14    4.62   1
   2 -10 -14   24.50    4.45   1
   2 -10 -13    8.41    2.78   1
   2 -10 -12   34.11    4.56   1
   2 -10 -11    3.39    3.09   1
   2 -10 -10   53.29    4.96   1
   2 -10  -9  105.06    7.38   1
   2 -10  -8   20.70    3.09   1
   2 -10  -7   14.21    2.79   1
   2 -10  -6   16.97    2.88   1
   2 -10  -5    1.39    2.50   1
   2 -10  -4    3.80    2.69   1
   2 -10  -3   59.60    4.94   1
   2 -10  -2   -0.71    2.60   1
   2 -10  -1   28.41    4.16   1
   2 -10   0  180.90   12.37   1
   2 -10   1    0.59    2.39   1
   2 -10   2   53.14    4.96   1
   2 -10   3   51.27    5.16   1
   2 -10   4    2.59    2.00   1
   2 -10   5    5.29    2.71   1
   2 -10   6   80.10    5.91   1
   2 -10   7    2.79    2.50   1
   2 -10   8   26.83    3.73   1
   2 -10   9  275.23   14.27   1
   2 -10  10    5.11    3.12   1
   2 -10  11   10.30    3.40   1
   2 -10  12   19.27    3.51   1
   2 -10  13    2.99    3.39   1
   2 -10  14  196.00   11.20   1
   2 -10  15   10.69    3.07   1
   2 -10  16   67.08    5.73   1
   2 -10  17   30.47    4.42   1
   2 -10  18    7.67    3.38   1
   2 -10  19   -4.58    3.00   1
   2  -9 -40    4.00    5.80   1
   2  -9 -39    7.78    6.42   1
   2  -9 -38   -0.79    4.98   1
   2  -9 -37    1.21    5.13   1
   2  -9 -36    1.90    4.11   1
   2  -9 -35    3.39    4.60   1
   2  -9 -34    8.70    3.72   1
   2  -9 -33    8.53    4.38   1
   2  -9 -32   -5.81    4.29   1
   2  -9 -31    4.20    4.10   1
   2  -9 -30   -0.20    2.11   1
   2  -9 -29   10.18    4.40   1
   2  -9 -28    7.08    3.88   1
   2  -9 -27    4.80    3.90   1
   2  -9 -26   -1.69    2.70   1
   2  -9 -25    2.40    3.01   1
   2  -9 -24    6.60    2.62   1
   2  -9 -23    1.21    2.90   1
   2  -9 -22   41.86    4.92   1
   2  -9 -21  332.70   16.78   1
   2  -9 -20  106.50    7.43   1
   2  -9 -19    1.90    3.01   1
   2  -9 -18   22.94    3.74   1
   2  -9 -17   11.63    2.73   1
   2  -9 -16    5.52    2.59   1
   2  -9 -15    1.90    2.29   1
   2  -9 -14   -2.19    1.69   1
   2  -9 -13    2.89    2.58   1
   2  -9 -12   -0.79    2.49   1
   2  -9 -11    0.00    1.00   1
   2  -9 -10   19.01    3.31   1
   2  -9  -9   11.09    2.60   1
   2  -9  -8    4.80    2.41   1
   2  -9  -7   -0.40    2.29   1
   2  -9  -6    3.20    2.40   1
   2  -9  -5   -0.20    2.41   1
   2  -9  -4   12.32    2.67   1
   2  -9  -3  165.89    8.76   1
   2  -9  -2   20.88    3.11   1
   2  -9  -1    2.31    1.61   1
   2  -9   0  145.68    7.24   1
   2  -9   1    4.20    2.30   1
   2  -9   2   26.83    3.00   1
   2  -9   3  351.94   15.01   1
   2  -9   4    1.00    1.60   1
   2  -9   5    2.40    2.11   1
   2  -9   6   37.58    4.29   1
   2  -9   7    1.90    2.29   1
   2  -9   8   97.61    6.13   1
   2  -9   9  132.94    6.92   1
   2  -9  10    1.80    2.60   1
   2  -9  11    1.69    2.60   1
   2  -9  12   19.01    3.31   1
   2  -9  13   20.52    3.71   1
   2  -9  14   42.25    3.90   1
   2  -9  15  733.87   39.55   1
   2  -9  16   45.56    4.32   1
   2  -9  17    7.02    2.70   1
   2  -9  18    3.80    2.81   1
   2  -9  19   14.52    3.28   1
   2  -9  20   10.11    3.50   1
   2  -9  21   19.54    3.89   1
   2  -9  22    1.21    3.01   1
   2  -8 -43   -4.08    4.00   1
   2  -8 -42   18.40    7.12   1
   2  -8 -41    5.38    5.80   1
   2  -8 -40    6.40    5.01   1
   2  -8 -39   14.21    5.73   1
   2  -8 -38    5.29    3.50   1
   2  -8 -37   -3.31    4.51   1
   2  -8 -36   32.04    5.66   1
   2  -8 -35    1.90    4.42   1
   2  -8 -34   -1.00    3.80   1
   2  -8 -33    9.92    4.54   1
   2  -8 -32    2.10    3.80   1
   2  -8 -31   -1.21    4.03   1
   2  -8 -30    1.49    3.88   1
   2  -8 -29   -2.31    2.10   1
   2  -8 -28    3.61    3.61   1
   2  -8 -27   33.18    4.26   1
   2  -8 -26    4.08    2.79   1
   2  -8 -25   46.79    4.65   1
   2  -8 -24   36.72    4.24   1
   2  -8 -23   32.04    3.96   1
   2  -8 -22   29.05    4.10   1
   2  -8 -21  164.61    9.75   1
   2  -8 -20   13.40    3.59   1
   2  -8 -19   32.26    4.09   1
   2  -8 -18   64.00    5.12   1
   2  -8 -17    1.99    2.48   1
   2  -8 -16   27.46    3.77   1
   2  -8 -15   49.84    3.95   1
   2  -8 -14    1.30    2.39   1
   2  -8 -13   17.22    3.07   1
   2  -8 -12   71.06    5.73   1
   2  -8 -11    1.30    2.10   1
   2  -8 -10   17.81    2.70   1
   2  -8  -9    0.90    1.99   1
   2  -8  -8    2.31    2.01   1
   2  -8  -7    7.29    2.21   1
   2  -8  -6  127.24    6.77   1
   2  -8  -5   18.66    2.59   1
   2  -8  -4   40.70    3.19   1
   2  -8  -3   21.53    2.88   1
   2  -8  -2    2.99    1.90   1
   2  -8  -1    0.59    1.79   1
   2  -8   0   88.55    5.46   1
   2  -8   1   -0.59    1.89   1
   2  -8   2    5.20    1.92   1
   2  -8   3  183.33    8.94   1
   2  -8   4   28.84    3.11   1
   2  -8   5   19.89    2.94   1
   2  -8   6   11.22    2.21   1
   2  -8   7    6.00    1.91   1
   2  -8   8    0.90    1.41   1
   2  -8   9  287.98   14.25   1
   2  -8  10   10.37    2.13   1
   2  -8  11    9.49    2.28   1
   2  -8  12   38.44    3.35   1
   2  -8  13   -0.90    1.99   1
   2  -8  14    3.31    2.11   1
   2  -8  15   43.43    3.43   1
   2  -8  16    9.18    2.73   1
   2  -8  17  179.02   10.44   1
   2  -8  18  115.78    7.10   1
   2  -8  19   41.60    4.64   1
   2  -8  20   29.16    3.67   1
   2  -8  21  131.10    8.01   1
   2  -8  22   11.49    3.39   1
   2  -8  23    2.40    2.29   1
   2  -8  23   -0.40    2.60   1
   2  -8  24    5.81    2.80   1
   2  -8  24   11.49    3.39   1
   2  -8  25    4.28    2.69   1
   2  -8  25    4.28    2.69   1
   2  -8  26   32.04   10.75   1
   2  -8  28    4.71    3.08   1
   2  -8  29    4.80    3.50   1
   2  -8  30    2.59    3.09   1
   2  -8  31    9.49    3.39   1
   2  -8  32    0.20    2.11   1
   2  -8  33   20.34    4.24   1
   2  -8  34    2.99    3.81   1
   2  -8  35   -1.39    3.49   1
   2  -8  36   12.60    4.61   1
   2  -8  37   21.62    5.02   1
   2  -8  38   -1.99    4.17   1
   2  -8  39    5.81    4.92   1
   2  -8  40   -2.19    4.20   1
   2  -8  41   56.55    7.97   1
   2  -8  42    1.49    4.78   1
   2  -7 -44   -4.58    3.38   1
   2  -7 -43   -0.40    3.69   1
   2  -7 -42    5.29    3.17   1
   2  -7 -41    1.39    3.99   1
   2  -7 -40    8.41    5.22   1
   2  -7 -39   -1.99    4.09   1
   2  -7 -38    9.30    4.51   1
   2  -7 -37    7.51    4.38   1
   2  -7 -36   39.44    5.15   1
   2  -7 -35   34.11    5.02   1
   2  -7 -34    2.79    4.11   1
   2  -7 -33    0.79    3.58   1
   2  -7 -32    4.08    3.68   1
   2  -7 -31   26.11    4.70   1
   2  -7 -30   46.65    4.23   1
   2  -7 -29   -1.00    3.00   1
   2  -7 -28    0.59    3.19   1
   2  -7 -27    6.92    3.21   1
   2  -7 -26    5.38    2.88   1
   2  -7 -25    5.20    2.60   1
   2  -7 -24  310.82   15.51   1
   2  -7 -23    8.12    2.62   1
   2  -7 -22    2.40    2.60   1
   2  -7 -21    9.99    2.91   1
   2  -7 -20   15.68    3.17   1
   2  -7 -19   15.13    3.03   1
   2  -7 -18  249.01   12.31   1
   2  -7 -17   79.39    4.45   1
   2  -7 -16   37.95    4.07   1
   2  -7 -15   41.34    4.37   1
   2  -7 -14   59.60    5.25   1
   2  -7 -13    7.51    2.19   1
   2  -7 -12   71.23    4.22   1
   2  -7 -11    0.79    1.39   1
   2  -7 -10   10.37    2.00   1
   2  -7  -9    1.80    1.10   1
   2  -7  -8    3.50    1.61   1
   2  -7  -7    0.50    1.80   1
   2  -7  -6   17.98    2.12   1
   2  -7  -5   14.98    2.09   1
   2  -7  -4   11.09    1.80   1
   2  -7  -3  359.10   15.16   1
   2  -7  -2   11.42    2.03   1
   2  -7  -1    2.19    1.10   1
   2  -7   0   70.06    4.52   1
   2  -7   1    8.58    1.99   1
   2  -7   2   13.32    1.83   1
   2  -7   3    9.18    1.82   1
   2  -7   4   11.02    1.59   1
   2  -7   5   33.76    3.02   1
   2  -7   6   82.45    5.63   1
   2  -7   7   20.61    2.27   1
   2  -7   8   14.06    1.88   1
   2  -7   9   -1.39    1.60   1
   2  -7  10    9.80    1.88   1
   2  -7  11   41.86    3.49   1
   2  -7  12  246.18   12.87   1
   2  -7  13   47.61    4.14   1
   2  -7  14    3.50    1.68   1
   2  -7  15   55.65    4.18   1
   2  -7  16    1.99    1.80   1
   2  -7  16    6.10    1.78   1
   2  -7  17   -0.40    1.89   1
   2  -7  17   -1.21    1.61   1
   2  -7  18   98.01    5.74   1
   2  -7  19    8.01    2.32   1
   2  -7  19    5.29    2.30   1
   2  -7  20   38.56    3.60   1
   2  -7  20   28.94    3.66   1
   2  -7  21   51.41    3.87   1
   2  -7  21   50.84    4.14   1
   2  -7  22   16.16    2.89   1
   2  -7  22    8.41    2.32   1
   2  -7  23    8.12    2.79   1
   2  -7  23    3.61    2.51   1
   2  -7  24   64.64    5.15   1
   2  -7  24   54.61    4.58   1
   2  -7  25    7.18    2.79   1
   2  -7  25    3.39    2.61   1
   2  -7  26    8.88    2.21   1
   2  -7  26   16.89    3.37   1
   2  -7  27    6.71    3.21   1
   2  -7  27    9.99    2.78   1
   2  -7  28   31.25    5.03   1
   2  -7  28   25.60    3.85   1
   2  -7  29   58.37    5.65   1
   2  -7  30   45.83    4.47   1
   2  -7  31    2.79    3.01   1
   2  -7  32   25.10    4.61   1
   2  -7  33  165.38   11.06   1
   2  -7  35    4.71    4.60   1
   2  -7  36    2.19    3.79   1
   2  -7  37    2.50    3.89   1
   2  -7  38   -0.10    4.04   1
   2  -7  39   52.56    6.67   1
   2  -7  40   24.40    5.14   1
   2  -7  41    8.70    5.02   1
   2  -7  42   28.20    5.84   1
   2  -7  43    3.10    5.32   1
   2  -7  44   -7.78    4.30   1
   2  -6 -46    7.62    6.29   1
   2  -6 -45    6.20    5.98   1
   2  -6 -44   -0.59    4.17   1
   2  -6 -43    8.70    6.31   1
   2  -6 -42   26.73    6.20   1
   2  -6 -41    3.69    4.88   1
   2  -6 -40    4.08    4.20   1
   2  -6 -39   -2.50    4.30   1
   2  -6 -38    9.42    3.93   1
   2  -6 -37    5.20    3.51   1
   2  -6 -36   10.30    3.72   1
   2  -6 -35   -1.00    3.30   1
   2  -6 -34    1.21    4.31   1
   2  -6 -33    2.40    2.51   1
   2  -6 -32   20.34    4.51   1
   2  -6 -31    9.12    2.90   1
   2  -6 -30   22.28    3.59   1
   2  -6 -29    2.50    2.09   1
   2  -6 -28    4.88    2.61   1
   2  -6 -27    0.79    2.58   1
   2  -6 -26   11.09    2.93   1
   2  -6 -25    2.99    2.39   1
   2  -6 -24  145.44    7.72   1
   2  -6 -23   15.13    3.27   1
   2  -6 -22   41.47    4.12   1
   2  -6 -21    2.50    1.90   1
   2  -6 -20    1.30    2.19   1
   2  -6 -19   95.06    4.88   1
   2  -6 -18  453.69   20.87   1
   2  -6 -17   75.86    5.23   1
   2  -6 -16    3.20    2.11   1
   2  -6 -15  222.31   12.23   1
   2  -6 -14   28.84    2.47   1
   2  -6 -13   68.72    4.64   1
   2  -6 -12   22.37    2.74   1
   2  -6 -11   48.72    3.77   1
   2  -6 -10    8.58    1.29   1
   2  -6  -9   16.56    2.52   1
   2  -6  -8   13.10    2.10   1
   2  -6  -7   14.98    1.93   1
   2  -6  -6  715.56   30.49   1
   2  -6  -5   25.40    2.12   1
   2  -6  -4    9.42    1.72   1
   2  -6  -3  208.51   11.26   1
   2  -6  -2   16.56    2.20   1
   2  -6  -1   57.76    3.34   1
   2  -6   0  171.09    7.59   1
   2  -6   1   11.42    1.69   1
   2  -6   2   -0.71    1.11   1
   2  -6   3    3.20    1.50   1
   2  -6   4    4.08    1.49   1
   2  -6   5   14.82    1.69   1
   2  -6   6    1.90    1.30   1
   2  -6   7    1.99    1.18   1
   2  -6   8  102.01    5.45   1
   2  -6   9   32.95    2.76   1
   2  -6  10    4.08    1.62   1
   2  -6  11    9.80    1.82   1
   2  -6  11   10.89    1.78   1
   2  -6  12   11.02    1.79   1
   2  -6  12    9.99    1.90   1
   2  -6  13    0.71    1.71   1
   2  -6  13   -0.50    1.31   1
   2  -6  14   20.98    2.20   1
   2  -6  15  212.87   10.21   1
   2  -6  16    5.02    1.70   1
   2  -6  16   12.60    2.20   1
   2  -6  17   -0.20    1.51   1
   2  -6  17   -1.21    1.61   1
   2  -6  18    5.38    1.72   1
   2  -6  18   -1.30    1.60   1
   2  -6  19    3.50    1.68   1
   2  -6  19    0.59    1.89   1
   2  -6  20   -0.40    1.79   1
   2  -6  20    3.31    2.11   1
   2  -6  21   36.36    3.74   1
   2  -6  21   49.70    3.53   1
   2  -6  22    7.90    2.30   1
   2  -6  22    6.00    2.11   1
   2  -6  23   21.72    2.89   1
   2  -6  23   26.42    3.80   1
   2  -6  24  123.21    6.88   1
   2  -6  25   13.18    2.61   1
   2  -6  26    1.49    2.49   1
   2  -6  27    7.78    2.79   1
   2  -6  27   12.67    2.71   1
   2  -6  28   31.70    3.38   1
   2  -6  28   20.61    3.90   1
   2  -6  29   15.76    3.49   1
   2  -6  29   19.89    3.66   1
   2  -6  30   -2.99    2.60   1
   2  -6  30    2.79    2.91   1
   2  -6  31    3.61    3.00   1
   2  -6  32   26.73    3.83   1
   2  -6  33   29.81    4.37   1
   2  -6  34    5.52    3.38   1
   2  -6  35   62.25    6.63   1
   2  -6  36  159.01   10.34   1
   2  -6  37   38.19    5.69   1
   2  -6  38   36.48    5.07   1
   2  -6  39    2.89    3.60   1
   2  -6  40   13.03    5.13   1
   2  -6  41    7.29    5.08   1
   2  -6  42   57.00    6.64   1
   2  -6  43   -1.80    4.40   1
   2  -6  44    3.88    4.10   1
   2  -5 -47    3.61    6.19   1
   2  -5 -46    4.28    5.88   1
   2  -5 -45    0.20    3.62   1
   2  -5 -44    1.21    4.62   1
   2  -5 -43    6.20    4.38   1
   2  -5 -42    2.89    4.59   1
   2  -5 -41    1.80    2.39   1
   2  -5 -40    7.62    3.20   1
   2  -5 -39   15.52    4.33   1
   2  -5 -38    5.02    3.40   1
   2  -5 -37    4.41    3.91   1
   2  -5 -36   67.24    7.22   1
   2  -5 -35    0.10    2.33   1
   2  -5 -34   39.44    4.65   1
   2  -5 -33    9.92    3.21   1
   2  -5 -32   15.92    3.51   1
   2  -5 -29   19.27    3.51   1
   2  -5 -28   51.27    4.58   1
   2  -5 -27   15.13    2.72   1
   2  -5 -26   37.45    4.28   1
   2  -5 -25   11.90    2.97   1
   2  -5 -24    9.99    2.21   1
   2  -5 -23    8.88    2.09   1
   2  -5 -21  377.52   16.71   1
   2  -5 -20   36.12    3.25   1
   2  -5 -19   12.82    2.22   1
   2  -5 -18   51.55    3.88   1
   2  -5 -17   10.69    2.29   1
   2  -5 -16   35.52    3.10   1
   2  -5 -15   51.27    3.44   1
   2  -5 -14   26.32    2.36   1
   2  -5 -13   64.64    3.86   1
   2  -5 -12  259.85   15.80   1
   2  -5 -11   24.90    2.69   1
   2  -5 -10    3.20    1.40   1
   2  -5  -9  192.38    9.99   1
   2  -5  -8   25.20    2.41   1
   2  -5  -7   43.30    3.16   1
   2  -5  -6  341.14   14.78   1
   2  -5  -5   19.98    1.97   1
   2  -5  -4    1.90    0.99   1
   2  -5  -3  229.83   11.22   1
   2  -5  -2   11.90    1.52   1
   2  -5  -1   13.76    1.63   1
   2  -5   0  588.55   26.69   1
   2  -5   1   36.84    2.43   1
   2  -5   2   39.56    3.02   1
   2  -5   3  129.05    6.82   1
   2  -5   4   27.04    2.08   1
   2  -5   5    3.31    1.09   1
   2  -5   6  251.22   17.75   1
   2  -5   7   34.46    2.35   1
   2  -5   8   49.56    2.68   1
   2  -5   9  327.97   14.49   1
   2  -5  10   10.63    1.50   1
   2  -5  10   10.50    1.68   1
   2  -5  11   95.26    4.88   1
   2  -5  12  847.97   39.60   1
   2  -5  12 1116.23   48.78   1
   2  -5  13    5.71    1.63   1
   2  -5  13   13.76    1.78   1
   2  -5  14    1.39    1.39   1
   2  -5  14    2.50    1.49   1
   2  -5  15   72.59    4.43   1
   2  -5  15   60.53    3.89   1
   2  -5  16   -1.69    1.40   1
   2  -5  16   -0.20    1.51   1
   2  -5  17   13.18    2.11   1
   2  -5  17   17.31    2.33   1
   2  -5  18  126.56    6.30   1
   2  -5  18   90.25    6.08   1
   2  -5  19    2.79    1.50   1
   2  -5  20    1.30    1.50   1
   2  -5  20   -2.69    1.61   1
   2  -5  21   61.00    4.37   1
   2  -5  21   66.10    4.55   1
   2  -5  22    4.08    2.18   1
   2  -5  22    1.49    1.90   1
   2  -5  23   -1.21    1.72   1
   2  -5  23   -0.40    1.79   1
   2  -5  24    3.20    2.00   1
   2  -5  24    4.88    1.68   1
   2  -5  25   -0.71    1.92   1
   2  -5  26    8.18    2.57   1
   2  -5  27   31.92    3.84   1
   2  -5  27   43.82    4.10   1
   2  -5  28   18.23    3.07   1
   2  -5  28    6.00    2.70   1
   2  -5  29   -1.39    1.60   1
   2  -5  29    1.69    2.00   1
   2  -5  30  212.58   11.08   1
   2  -5  31   12.32    3.37   1
   2  -5  31    7.90    3.20   1
   2  -5  32    8.18    2.97   1
   2  -5  32    8.53    3.21   1
   2  -5  33  110.04    8.39   1
   2  -5  34   13.47    3.52   1
   2  -5  35   62.09    5.67   1
   2  -5  36   72.42    6.47   1
   2  -5  39   65.93    6.82   1
   2  -5  40    6.00    4.70   1
   2  -5  41   19.71    4.80   1
   2  -5  42   29.16    5.94   1
   2  -5  43   30.14    5.49   1
   2  -5  44   26.42    4.83   1
   2  -5  45   -7.78    4.69   1
   2  -4 -48   -0.59    6.07   1
   2  -4 -43   -1.49    3.39   1
   2  -4 -40  102.21    8.49   1
   2  -4 -35    6.30    3.71   1
   2  -4 -32   31.58    4.95   1
   2  -4 -31    0.20    2.52   1
   2  -4 -30  110.04    7.55   1
   2  -4 -27  244.61   10.32   1
   2  -4 -27  242.74   11.84   1
   2  -4 -26   35.40    3.09   1
   2  -4 -26   29.92    3.50   1
   2  -4 -25   14.59    3.21   1
   2  -4 -24   35.05    4.14   1
   2  -4 -23   -1.69    1.79   1
   2  -4 -22   16.40    2.51   1
   2  -4 -21   51.27    4.44   1
   2  -4 -20    4.00    1.80   1
   2  -4 -19   -1.90    1.60   1
   2  -4 -18    5.62    1.61   1
   2  -4 -17    3.61    1.52   1
   2  -4 -16    7.51    1.32   1
   2  -4 -15   37.70    2.95   1
   2  -4 -14    0.50    1.31   1
   2  -4 -13   11.22    1.81   1
   2  -4 -12   48.72    3.35   1
   2  -4 -11   35.16    2.61   1
   2  -4 -10    9.12    1.63   1
   2  -4  -9   50.84    2.85   1
   2  -4  -8    5.29    1.20   1
   2  -4  -7    8.88    1.31   1
   2  -4  -6    5.20    1.09   1
   2  -4  -5   15.92    1.44   1
   2  -4  -4    5.02    1.12   1
   2  -4  -3   90.25    4.56   1
   2  -4  -2    9.42    1.29   1
   2  -4  -1   52.42    3.04   1
   2  -4   0  465.26   20.71   1
   2  -4   1    2.19    0.89   1
   2  -4   2   66.59    3.75   1
   2  -4   3  573.12   24.42   1
   2  -4   4   56.85    2.87   1
   2  -4   5    9.67    1.00   1
   2  -4   5    7.18    1.07   1
   2  -4   6  535.00   18.04   1
   2  -4   7   25.40    1.81   1
   2  -4   8    4.08    0.89   1
   2  -4   8    2.10    1.01   1
   2  -4   9  128.37    6.12   1
   2  -4   9   89.49    5.30   1
   2  -4  10    1.39    0.80   1
   2  -4  10    0.50    1.01   1
   2  -4  11   33.52    1.97   1
   2  -4  11   22.00    1.69   1
   2  -4  12   30.69    2.55   1
   2  -4  12   51.84    2.88   1
   2  -4  13    9.18    1.51   1
   2  -4  13   10.63    1.43   1
   2  -4  14    6.50    1.48   1
   2  -4  14    5.62    1.42   1
   2  -4  15   45.43    2.97   1
   2  -4  15   48.02    3.74   1
   2  -4  16   -0.90    1.20   1
   2  -4  16    0.00    1.00   1
   2  -4  17    8.29    1.90   1
   2  -4  17    3.69    1.38   1
   2  -4  18    1.59    1.49   1
   2  -4  18    1.49    1.59   1
   2  -4  19   20.70    2.37   1
   2  -4  19    9.92    2.02   1
   2  -4  20    1.99    1.61   1
   2  -4  20    1.49    1.39   1
   2  -4  21    9.99    1.90   1
   2  -4  21   16.56    2.28   1
   2  -4  22    0.30    1.41   1
   2  -4  22    2.40    1.71   1
   2  -4  23    0.40    1.40   1
   2  -4  23    0.30    1.51   1
   2  -4  24   92.54    5.19   1
   2  -4  24   87.05    6.16   1
   2  -4  25    4.00    2.00   1
   2  -4  26   11.83    2.48   1
   2  -4  27  155.50    8.73   1
   2  -4  28   -0.30    1.51   1
   2  -4  29    6.50    2.29   1
   2  -4  30   11.70    2.80   1
   2  -4  30   14.21    2.79   1
   2  -4  31   27.46    3.56   1
   2  -4  32   72.93    5.12   1
   2  -4  33  216.38   11.47   1
   2  -4  37    2.59    3.70   1
   2  -4  40    1.59    4.08   1
   2  -4  41    0.79    2.79   1
   2  -4  42   46.51    6.68   1
   2  -4  43    3.50    4.30   1
   2  -4  46   -7.18    4.72   1
   2  -3 -49    3.31    3.20   1
   2  -3 -48    9.30    5.49   1
   2  -3 -45   25.91    5.50   1
   2  -3 -44    7.51    3.62   1
   2  -3 -43    6.00    4.02   1
   2  -3 -42    2.59    2.80   1
   2  -3 -37   -2.69    2.39   1
   2  -3 -34   10.50    2.59   1
   2  -3 -28    1.39    2.29   1
   2  -3 -27   35.76    2.27   1
   2  -3 -25   67.08    3.77   1
   2  -3 -25   60.06    4.65   1
   2  -3 -24   -0.40    0.89   1
   2  -3 -24   -0.50    1.60   1
   2  -3 -23   21.62    2.79   1
   2  -3 -23   16.56    1.71   1
   2  -3 -22   53.29    3.50   1
   2  -3 -22   41.47    3.09   1
   2  -3 -21  357.97   17.03   1
   2  -3 -20   24.50    2.57   1
   2  -3 -19   18.06    1.87   1
   2  -3 -18    1.21    1.41   1
   2  -3 -16   23.23    2.22   1
   2  -3 -15  419.43   22.53   1
   2  -3 -14    5.02    1.30   1
   2  -3 -13   -1.00    0.70   1
   2  -3 -12   54.02    3.53   1
   2  -3 -11   10.63    1.17   1
   2  -3 -10   15.13    1.32   1
   2  -3 -10   12.39    1.48   1
   2  -3  -9    9.61    0.93   1
   2  -3  -9    9.12    1.33   1
   2  -3  -8    0.90    0.80   1
   2  -3  -7    4.88    1.11   1
   2  -3  -6    4.71    0.78   1
   2  -3  -5  100.80    4.62   1
   2  -3  -4   72.25    3.57   1
   2  -3  -3 1066.68   41.80   1
   2  -3  -2    4.00    0.80   1
   2  -3  -1  796.37   33.30   1
   2  -3   0    1.59    0.81   1
   2  -3   1  468.72   19.05   1
   2  -3   2  595.85   20.99   1
   2  -3   3 1278.78   52.92   1
   2  -3   4  252.49   11.76   1
   2  -3   4  390.06   15.80   1
   2  -3   5   50.55    2.28   1
   2  -3   5   35.40    2.02   1
   2  -3   6    8.41    1.22   1
   2  -3   6    8.88    1.01   1
   2  -3   7    2.89    0.78   1
   2  -3   7    5.20    0.82   1
   2  -3   8    4.71    0.78   1
   2  -3   8    5.20    1.00   1
   2  -3   9   41.34    2.06   1
   2  -3   9   36.36    2.29   1
   2  -3  10    1.00    0.80   1
   2  -3  10   -0.40    0.69   1
   2  -3  11   -0.59    0.89   1
   2  -3  11    0.00    1.00   1
   2  -3  12  333.79   14.62   1
   2  -3  12  281.23   12.41   1
   2  -3  13    1.21    1.10   1
   2  -3  13    2.59    1.09   1
   2  -3  14    1.39    1.09   1
   2  -3  14    1.59    1.01   1
   2  -3  15  210.83    9.00   1
   2  -3  15  188.79    9.89   1
   2  -3  16    0.20    1.11   1
   2  -3  17    5.38    1.30   1
   2  -3  18 1102.90   47.16   1
   2  -3  19   -0.71    1.31   1
   2  -3  20   11.83    1.31   1
   2  -3  21   37.95    2.96   1
   2  -3  22    1.99    1.30   1
   2  -3  23    1.80    1.61   1
   2  -3  24   59.75    4.95   1
   2  -3  25   20.43    2.89   1
   2  -3  26    7.29    2.00   1
   2  -3  27    1.39    2.10   1
   2  -3  28    0.90    1.90   1
   2  -3  28   -0.90    1.99   1
   2  -3  29   -2.19    1.98   1
   2  -3  30    1.80    2.20   1
   2  -3  31   -2.10    2.49   1
   2  -3  33   61.47    4.86   1
   2  -3  34    0.30    2.71   1
   2  -3  39  186.87   11.76   1
   2  -3  43   15.37    5.10   1
   2  -3  44    1.99    4.29   1
   2  -3  45   51.41    6.60   1
   2  -2 -50    1.59    3.98   1
   2  -2 -49   32.15    7.14   1
   2  -2 -48    0.90    5.30   1
   2  -2 -45   27.88    5.70   1
   2  -2 -44   -2.19    3.88   1
   2  -2 -28    8.82    1.49   1
   2  -2 -27  298.94   13.49   1
   2  -2 -26   -0.20    0.91   1
   2  -2 -25   17.81    1.77   1
   2  -2 -24    2.79    1.00   1
   2  -2 -23    7.18    1.07   1
   2  -2 -22   94.67    5.25   1
   2  -2 -21  748.57   29.55   1
   2  -2 -21  816.24   39.43   1
   2  -2 -20   50.98    3.43   1
   2  -2 -20   48.16    3.47   1
   2  -2 -19   59.14    3.38   1
   2  -2 -19   53.88    3.96   1
   2  -2 -18  107.95    5.82   1
   2  -2 -18  120.78    7.47   1
   2  -2 -17    1.30    0.89   1
   2  -2 -17    0.90    0.70   1
   2  -2 -16    7.90    1.52   1
   2  -2 -15  157.50    8.78   1
   2  -2 -14    0.90    0.80   1
   2  -2 -13   11.09    1.60   1
   2  -2 -12  407.23   15.74   1
   2  -2 -11    1.69    0.99   1
   2  -2 -10   25.91    1.83   1
   2  -2 -10   26.11    1.84   1
   2  -2  -9   42.64    2.61   1
   2  -2  -9   37.95    2.71   1
   2  -2  -8    2.69    0.49   1
   2  -2  -8    0.00    1.00   1
   2  -2  -7  353.44   13.54   1
   2  -2  -6  993.51   44.13   1
   2  -2  -5  310.11   13.03   1
   2  -2  -4    9.49    0.49   1
   2  -2  -4    5.02    0.81   1
   2  -2  -3  302.41   15.30   1
   2  -2  -2   82.81    4.19   1
   2  -2  -1  272.58   10.57   1
   2  -2   1  113.64    5.33   1
   2  -2   2   -0.10    0.40   1
   2  -2   2   -0.90    0.40   1
   2  -2   3  629.01   26.08   1
   2  -2   3  486.20   18.52   1
   2  -2   4   37.70    1.84   1
   2  -2   4   52.56    2.18   1
   2  -2   5  252.49   10.17   1
   2  -2   5  318.98   11.07   1
   2  -2   6  530.38   23.49   1
   2  -2   7   48.44    2.09   1
   2  -2   8   27.35    1.57   1
   2  -2   9  162.31    7.90   1
   2  -2  10   53.73    2.93   1
   2  -2  11    4.20    0.82   1
   2  -2  12  445.63   23.22   1
   2  -2  13   66.42    3.10   1
   2  -2  14    3.50    1.08   1
   2  -2  15  447.32   17.34   1
   2  -2  16    8.41    1.28   1
   2  -2  17   13.76    1.63   1
   2  -2  18   10.63    1.43   1
   2  -2  19    0.50    1.21   1
   2  -2  20    4.00    1.40   1
   2  -2  21   40.83    2.81   1
   2  -2  22   14.52    1.90   1
   2  -2  23    3.10    1.69   1
   2  -2  24   -1.10    1.70   1
   2  -2  27  822.54   36.71   1
   2  -2  34   14.59    2.83   1
   2  -2  43    6.81    3.08   1
   2  -2  44    5.11    3.12   1
   2  -2  45   16.00    4.40   1
   2  -2  46   19.01    4.36   1
   2  -2  47   -1.30    3.49   1
   2  -2  48   -5.20    3.19   1
   2  -1 -50    2.19    5.09   1
   2  -1 -49    0.59    5.17   1
   2  -1 -48   41.47    6.70   1
   2  -1 -47   -4.28    3.31   1
   2  -1 -43   -4.88    3.58   1
   2  -1 -23    3.50    1.08   1
   2  -1 -22   24.50    1.98   1
   2  -1 -21   73.79    5.33   1
   2  -1 -20   51.84    3.74   1
   2  -1 -19  122.32    7.30   1
   2  -1 -18  349.69   17.95   1
   2  -1 -17   18.58    1.47   1
   2  -1 -16    6.81    1.10   1
   2  -1 -15  613.06   37.14   1
   2  -1 -14    1.59    0.71   1
   2  -1 -13   48.16    3.19   1
   2  -1 -12  200.79    9.64   1
   2  -1 -11    0.79    0.50   1
   2  -1 -10    1.00    0.60   1
   2  -1  -9  355.70   26.03   1
   2  -1  -8   71.23    3.54   1
   2  -1  -7  305.20   12.23   1
   2  -1  -5   50.84    2.14   1
   2  -1  -4   58.06    2.29   1
   2  -1  -3  661.00   28.28   1
   2  -1  -3  714.49   35.28   1
   2  -1  -2    3.69    0.50   1
   2  -1  -2    3.20    0.79   1
   2  -1  -1  100.00    6.20   1
   2  -1  -1   73.79    4.12   1
   2  -1   0   40.70    2.30   1
   2  -1   0   37.45    1.84   1
   2  -1   1   37.82    1.97   1
   2  -1   2   11.29    0.67   1
   2  -1   2   15.29    1.09   1
   2  -1   3    2.99    0.31   1
   2  -1   3    3.61    0.49   1
   2  -1   4   31.92    1.47   1
   2  -1   4   28.20    2.02   1
   2  -1   5  128.82    4.99   1
   2  -1   5  136.89    6.08   1
   2  -1   7   40.32    1.65   1
   2  -1   7   39.31    2.26   1
   2  -1   8    3.80    0.70   1
   2  -1   8    3.39    0.70   1
   2  -1   9 1283.07   52.30   1
   2  -1  10    8.53    0.99   1
   2  -1  10    7.51    0.82   1
   2  -1  11    6.20    1.20   1
   2  -1  11    2.40    0.71   1
   2  -1  12  726.84   31.81   1
   2  -1  12  694.85   31.63   1
   2  -1  13    1.69    0.99   1
   2  -1  13    0.30    0.80   1
   2  -1  14    0.71    1.11   1
   2  -1  15  718.24   29.48   1
   2  -1  16    8.12    1.71   1
   2  -1  17    2.99    1.49   1
   2  -1  18  177.42    7.99   1
   2  -1  24   41.34    3.09   1
   2  -1  28   93.12    7.14   1
   2  -1  31    1.39    1.60   1
   2  -1  35   16.16    3.30   1
   2  -1  36   25.91    3.46   1
   2  -1  45    4.08    3.27   1
   2  -1  46    2.19    3.11   1
   2  -1  47    3.69    4.19   1
   2   0 -16  123.65    6.23   1
   2   0 -14  100.20    5.61   1
   2   0 -12    4.20    0.82   1
   2   0 -10  215.21   11.15   1
   2   0  -8  236.85   13.54   1
   2   0  -4    1.30    0.59   1
   2   0  -4    2.40    0.59   1
   2   0  -2    5.02    0.72   1
   2   0  -2    7.62    0.83   1
   2   0  -2    3.20    0.39   1
   2   0   0  359.86   14.04   1
   2   0   0  289.34   14.63   1
   2   0   0  365.57   16.44   1
   2   0   2    3.61    0.68   1
   2   0   4   21.34    1.48   1
   2   0   8    7.51    0.99   1
   2   0  10    4.41    1.01   1
   2   0  10    3.69    0.69   1
   2   0  12  308.70   11.60   1
   2   0  12  308.00   12.64   1
   2   0  14   35.64    2.51   1
   2   0  14   37.58    2.08   1
   2   0  16    2.69    1.08   1
   2   0  16    2.19    1.18   1
   2   0  18    2.79    1.20   1
   2   0  18    1.21    1.01   1
   2   0  20   50.27    3.40   1
   2   0  22   -0.59    1.49   1
   2   0  24   25.00    2.90   1
   2   0  30  242.11   14.94   1
   2   0  36    1.80    2.49   1
   2   0  36    0.30    3.11   1
   2   0  40   -0.10    2.53   1
   2   0  44   -0.20    3.22   1
   2   0  46    9.99    4.87   1
   2   1  -7  250.27   11.39   1
   2   1  -5   39.44    2.14   1
   2   1  -4   45.16    2.42   1
   2   1  -3  668.22   25.33   1
   2   1  -3  814.53   42.24   1
   2   1  -2    4.41    0.71   1
   2   1  -1  100.80    4.42   1
   2   1   0   47.33    2.06   1
   2   1   0   46.10    1.77   1
   2   1   1   48.86    1.54   1
   2   1   1   51.55    2.30   1
   2   1   2   12.18    0.91   1
   2   1   2   14.67    0.92   1
   2   1   3    3.80    0.59   1
   2   1   3    3.61    0.49   1
   2   1   4   32.95    1.61   1
   2   1   4   27.88    1.90   1
   2   1   5  113.42    6.39   1
   2   1   5  139.24    5.90   1
   2   1   7   40.96    4.35   1
   2   1   7   31.92    2.15   1
   2   1   8    3.61    0.80   1
   2   1   9 1230.61   51.92   1
   2   1  10    5.52    1.08   1
   2   1  11    1.99    0.90   1
   2   1  12  680.69   27.13   1
   2   1  12  659.46   30.82   1
   2   1  13    1.10    1.01   1
   2   1  14    1.10    1.01   1
   2   1  15  750.21   32.87   1
   2   1  16    6.00    1.32   1
   2   1  16    6.00    1.42   1
   2   1  17    4.08    1.29   1
   2   1  17    4.80    1.62   1
   2   1  18  173.19    7.63   1
   2   1  18  172.66    8.94   1
   2   1  19   10.30    1.67   1
   2   1  19    6.10    1.58   1
   2   1  20    4.49    1.10   1
   2   1  20    3.88    1.62   1
   2   1  21  754.05   32.95   1
   2   1  21  752.95   30.73   1
   2   1  22    7.51    1.48   1
   2   1  22    7.67    1.88   1
   2   1  23    7.51    1.81   1
   2   1  23   11.83    2.13   1
   2   1  24   50.13    3.54   1
   2   1  24   54.76    3.70   1
   2   1  25   -0.30    1.90   1
   2   1  25   -1.69    1.69   1
   2   1  26    6.40    1.72   1
   2   1  26   11.42    2.64   1
   2   1  27  121.66    7.72   1
   2   1  28  112.57    6.58   1
   2   1  28   87.05    5.97   1
   2   1  29  105.68    6.78   1
   2   1  29   96.43    5.89   1
   2   1  30  273.90   17.54   1
   2   1  32   13.03    3.32   1
   2   1  40   13.62    2.88   1
   2   1  43   -0.40    2.68   1
   2   1  46    0.50    3.01   1
   2   2  -1  279.22   12.37   1
   2   2   1  154.01    7.94   1
   2   2   2    0.79    0.50   1
   2   2   3  593.90   26.32   1
   2   2   4   47.06    2.47   1
   2   2   5  261.47   11.97   1
   2   2   6  582.74   28.97   1
   2   2   7   42.77    2.62   1
   2   2   8   28.20    1.81   1
   2   2   9  147.38    6.56   1
   2   2  11    6.20    1.20   1
   2   2  12  449.86   22.48   1
   2   2  13   68.06    4.29   1
   2   2  14    8.70    1.48   1
   2   2  15  444.37   22.77   1
   2   2  16   12.32    1.61   1
   2   2  17   11.42    1.62   1
   2   2  18   15.76    1.91   1
   2   2  19    2.10    1.60   1
   2   2  20    4.08    1.21   1
   2   2  21   39.44    3.14   1
   2   2  22    9.30    1.71   1
   2   2  23   11.63    1.98   1
   2   2  24   -0.30    2.01   1
   2   2  25    5.81    1.69   1
   2   2  26   31.58    3.15   1
   2   2  27  725.22   30.16   1
   2   2  28    6.00    2.20   1
   2   2  29    5.11    1.99   1
   2   2  30   61.47    5.49   1
   2   2  31   30.25    3.74   1
   2   2  32    5.29    2.71   1
   2   2  33    6.81    1.98   1
   2   2  34   16.56    3.26   1
   2   2  35    3.39    3.20   1
   2   2  36   74.65    6.91   1
   2   2  37   35.88    4.43   1
   2   2  44    1.30    3.60   1
   2   3   0    2.10    0.70   1
   2   3   1  426.84   15.29   1
   2   3   2  580.33   23.13   1
   2   3   3 1188.87   53.10   1
   2   3   4  338.19   13.24   1
   2   3   5   43.43    2.11   1
   2   3   6    9.99    0.82   1
   2   3   7    2.69    0.69   1
   2   3   8    1.80    0.59   1
   2   3   9   28.62    1.71   1
   2   3  13    2.19    1.10   1
   2   3  14    3.69    1.38   1
   2   3  15  192.10    9.98   1
   2   3  16    0.90    0.89   1
   2   3  17    9.99    1.77   1
   2   3  18  997.93   48.02   1
   2   3  19    0.10    1.11   1
   2   3  20    8.01    1.41   1
   2   3  21   49.56    3.24   1
   2   3  22    6.20    2.09   1
   2   3  23    2.50    1.80   1
   2   3  24   57.30    3.63   1
   2   3  25   19.27    2.81   1
   2   3  26    7.40    2.28   1
   2   3  27    4.20    2.58   1
   2   3  28   -0.79    1.19   1
   2   3  29    1.39    1.70   1
   2   3  30    1.49    1.68   1
   2   3  31    2.50    2.09   1
   2   3  32    3.20    2.51   1
   2   3  33   66.59    5.55   1
   2   3  34   -0.71    3.01   1
   2   3  35   64.64    5.47   1
   2   3  36    4.71    3.21   1
   2   3  38   10.50    3.63   1
   2   3  41    0.79    3.77   1
   2   3  42   36.60    4.72   1
   2   3  43   14.82    5.00   1
   2   3  44   -2.31    2.71   1
   2   3  45   35.40    6.66   1
   2   3  46   -5.29    3.31   1
   2   3  47    6.40    5.31   1
   2   3  48  -11.02    5.11   1
   2   4   1    1.80    0.70   1
   2   4   3  778.41   29.57   1
   2   4   4   49.98    2.26   1
   2   4   5    8.18    0.97   1
   2   4   6  450.71   16.98   1
   2   4   7   17.47    1.09   1
   2   4   9  107.12    4.55   1
   2   4  15   57.00    3.93   1
   2   4  16    0.30    1.31   1
   2   4  17    8.01    1.98   1
   2   4  18    1.90    1.60   1
   2   4  19   13.76    1.93   1
   2   4  20   -0.79    1.50   1
   2   4  21   11.09    2.00   1
   2   4  22    2.31    1.61   1
   2   4  23   -0.90    1.20   1
   2   4  24   89.30    5.67   1
   2   4  25    6.10    2.22   1
   2   4  26    7.02    2.60   1
   2   4  27  161.80    9.41   1
   2   4  28    0.20    2.31   1
   2   4  29    1.39    2.29   1
   2   4  30   19.98    3.31   1
   2   4  31   26.63    3.10   1
   2   4  32   68.89    5.15   1
   2   4  33  199.37   12.14   1
   2   4  34    5.20    2.28   1
   2   4  35   54.17    5.15   1
   2   4  36   59.75    5.26   1
   2   4  37   -1.59    3.58   1
   2   4  38    0.79    3.08   1
   2   4  39   11.09    4.99   1
   2   4  41    3.88    3.70   1
   2   4  42   49.56    6.05   1
   2   4  44    1.21    5.02   1
   2   5   2   60.22    2.95   1
   2   5   3  182.52    9.73   1
   2   5   4   37.70    1.84   1
   2   5   5    4.49    0.68   1
   2   5   6  339.30   12.89   1
   2   5   7   26.63    1.34   1
   2   5  17   16.00    1.92   1
   2   5  18  107.12    6.21   1
   2   5  19    5.20    1.78   1
   2   5  20    1.00    1.60   1
   2   5  21   61.62    4.40   1
   2   5  22    4.49    1.99   1
   2   5  23    1.80    1.90   1
   2   5  24    4.88    2.08   1
   2   5  25    0.20    2.21   1
   2   5  26    6.20    2.29   1
   2   5  27   30.14    3.51   1
   2   5  28    9.12    2.90   1
   2   5  29    0.10    2.73   1
   2   5  30  216.68   10.01   1
   2   5  31   13.18    3.27   1
   2   5  32    7.90    2.98   1
   2   5  33   89.87    7.58   1
   2   5  34   14.52    3.20   1
   2   5  35   55.06    4.60   1
   2   5  36   47.33    4.13   1
   2   5  37   -1.99    3.19   1
   2   5  38   -3.69    3.80   1
   2   5  39   74.48    6.90   1
   2   5  40    7.90    4.38   1
   2   5  41   28.20    6.05   1
   2   5  42   25.40    4.44   1
   2   5  43   34.46    6.22   1
   2   5  44   26.52    5.97   1
   2   5  45   -2.59    3.80   1
   2   5  46   -6.40    5.41   1
   2   6   3    5.81    0.92   1
   2   6   4    2.89    0.78   1
   2   6   5   18.92    1.22   1
   2   6   6    1.59    0.60   1
   2   6   7    1.59    0.50   1
   2   6  18    1.21    2.00   1
   2   6  19    0.00    1.00   1
   2   6  20    6.60    2.00   1
   2   6  21   38.94    3.37   1
   2   6  22    5.52    2.40   1
   2   6  23   26.94    3.11   1
   2   6  24  132.94   10.61   1
   2   6  25    8.18    2.40   1
   2   6  26   -1.21    2.62   1
   2   6  27    6.81    2.71   1
   2   6  28   34.46    4.70   1
   2   6  29   21.81    3.36   1
   2   6  30   -1.21    2.71   1
   2   6  31    3.80    3.12   1
   2   6  32   22.09    3.48   1
   2   6  33   20.88    4.02   1
   2   6  34    4.80    3.90   1
   2   6  35   70.56    5.88   1
   2   6  36  133.63    9.25   1
   2   6  37   36.97    5.23   1
   2   6  38   31.81    4.96   1
   2   6  39    3.88    3.98   1
   2   6  40    5.62    4.22   1
   2   6  41    2.50    4.39   1
   2   6  43    3.50    5.09   1
   2   6  44   -2.10    5.71   1
   2   6  45   -4.58    4.49   1
   2   7   4   11.49    1.08   1
   2   7   5   38.32    1.86   1
   2   7   6  110.46    3.99   1
   2   7  19    5.38    2.00   1
   2   7  20   35.28    3.45   1
   2   7  21   40.70    3.70   1
   2   7  22    6.30    2.91   1
   2   7  23    9.49    2.71   1
   2   7  24   54.76    5.03   1
   2   7  25    4.41    2.69   1
   2   7  26    9.92    3.02   1
   2   7  27    4.20    2.71   1
   2   7  28   31.25    3.80   1
   2   7  29   51.55    4.88   1
   2   7  30   38.44    4.46   1
   2   7  31    6.92    3.31   1
   2   7  32   20.07    3.85   1
   2   7  33  183.60   10.84   1
   2   7  34   33.87    4.77   1
   2   7  35    7.40    3.70   1
   2   7  36   10.11    5.53   1
   2   7  37   -1.99    3.78   1
   2   7  38    1.80    4.40   1
   2   7  39   46.10    6.11   1
   2   7  40   15.92    5.99   1
   2   7  41   13.32    5.40   1
   2   7  42   18.23    5.81   1
   2   7  43   -8.01    4.92   1
   2   7  44    8.58    6.27   1
   2   8  20   43.16    3.94   1
   2   8  21  125.22    7.16   1
   2   8  22   14.59    3.13   1
   2   8  23   -0.59    2.68   1
   2   8  24   11.09    3.20   1
   2   8  25    9.12    2.90   1
   2   8  26   21.07    3.58   1
   2   8  27  275.56   15.94   1
   2   8  28    4.58    3.30   1
   2   8  29    3.88    3.07   1
   2   8  30    6.92    3.21   1
   2   8  31   14.59    3.82   1
   2   8  32   -1.10    3.51   1
   2   8  33   18.58    5.09   1
   2   8  34   -0.10    4.04   1
   2   8  35    3.31    4.40   1
   2   8  36   21.53    4.73   1
   2   8  37   12.89    4.52   1
   2   8  38   -4.08    4.81   1
   2   8  39    4.71    4.60   1
   2   8  40   14.21    4.90   1
   2   8  41   61.94    8.34   1
   2   8  42   13.91    5.52   1
   2   9  20   10.82    3.62   1
   2   9  21   28.20    4.25   1
   2   9  22    4.80    2.89   1
   2   9  23   -1.21    2.62   1
   2   9  24    9.80    3.13   1
   2   9  25    7.08    3.51   1
   2   9  26   -4.41    2.90   1
   2   9  27   47.33    4.54   1
   2   9  28    0.79    2.19   1
   2   9  29    7.40    4.08   1
   2   9  30    7.51    3.12   1
   2   9  31    0.30    3.62   1
   2   9  32    3.69    4.11   1
   2   9  33   35.64    5.13   1
   2   9  34    6.50    4.18   1
   2   9  35    8.53    4.61   1
   2   9  36    3.31    4.22   1
   2   9  37    0.79    3.38   1
   2   9  38    1.39    4.70   1
   2   9  39   10.82    6.19   1
   2   9  40   -1.69    5.98   1
   2  10  20   12.67    3.20   1
   2  10  21   10.82    3.29   1
   2  10  22    9.92    3.28   1
   2  10  24    1.21    3.01   1
   2  10  25    6.00    3.58   1
   2  10  26   23.23    4.72   1
   2  10  27   13.10    3.69   1
   2  10  28    4.28    3.68   1
   2  10  29    4.71    4.21   1
   2  10  30    4.00    4.00   1
   2  10  31    4.41    4.41   1
   2  10  32   16.48    5.03   1
   2  10  33   11.09    3.80   1
   2  11  20   21.90    4.31   1
   2  11  21   49.98    4.95   1
   2  11  22    1.21    4.11   1
   2  11  23   -0.30    3.11   1
   2  11  24   13.18    3.70   1
   2  11  25    7.90    3.32   1
   3 -13 -25    6.20    5.68   1
   3 -13 -24   18.06    6.38   1
   3 -13 -23   47.75    8.29   1
   3 -13 -22    6.40    4.50   1
   3 -13 -20   -1.80    6.41   1
   3 -13 -19    2.79    6.18   1
   3 -13 -18   12.60    6.04   1
   3 -13 -17   -1.59    5.57   1
   3 -13 -16    6.81    5.12   1
   3 -12 -30    4.71    4.82   1
   3 -12 -29    3.61    4.29   1
   3 -12 -28   11.49    4.41   1
   3 -12 -27    2.89    3.71   1
   3 -12 -26    3.31    4.00   1
   3 -12 -25   15.76    5.80   1
   3 -12 -24   78.50    8.51   1
   3 -12 -23    5.29    4.78   1
   3 -12 -22   27.25    6.58   1
   3 -12 -21    9.49    5.67   1
   3 -12 -20   -2.59    4.60   1
   3 -12 -19    5.71    4.59   1
   3 -12 -18   10.89    5.02   1
   3 -12 -17   -1.59    4.69   1
   3 -12 -16   -1.80    3.40   1
   3 -12 -15   -1.59    4.38   1
   3 -12 -14    7.08    4.42   1
   3 -12 -13    4.00    4.08   1
   3 -12 -12   40.70    5.49   1
   3 -12 -11    2.69    4.40   1
   3 -12 -10   15.13    4.59   1
   3 -12  -9   -2.69    4.00   1
   3 -12  -8   -2.79    4.01   1
   3 -12  -7    5.62    3.79   1
   3 -12  -6   23.23    4.05   1
   3 -12  -5    0.79    4.18   1
   3 -12  -4    4.88    3.71   1
   3 -11 -34   12.60    6.60   1
   3 -11 -33    3.69    4.11   1
   3 -11 -32    6.92    5.68   1
   3 -11 -31    6.40    6.02   1
   3 -11 -30   13.32    5.18   1
   3 -11 -29    1.00    4.70   1
   3 -11 -28   -1.99    5.70   1
   3 -11 -27   -1.49    4.98   1
   3 -11 -26   -1.00    4.90   1
   3 -11 -25    2.69    4.59   1
   3 -11 -24    6.40    5.11   1
   3 -11 -23   -1.21    3.41   1
   3 -11 -22   -3.61    3.72   1
   3 -11 -21   14.21    4.83   1
   3 -11 -20    5.81    5.11   1
   3 -11 -19   36.36    6.03   1
   3 -11 -18  158.00   10.81   1
   3 -11 -17   64.96    5.16   1
   3 -11 -16   32.49    4.33   1
   3 -11 -15   -1.00    3.50   1
   3 -11 -14    2.59    3.61   1
   3 -11 -13   -3.80    3.39   1
   3 -11 -12    2.79    3.71   1
   3 -11 -11   -1.39    3.68   1
   3 -11 -10    2.79    3.61   1
   3 -11  -9   23.62    4.37   1
   3 -11  -8   11.63    4.43   1
   3 -11  -6   -0.71    3.21   1
   3 -11  -5    6.20    3.39   1
   3 -11  -4    0.00    1.00   1
   3 -11  -2   -0.10    3.14   1
   3 -11  -1    0.79    3.49   1
   3 -11   0   89.87    6.45   1
   3 -11   1    0.10    2.94   1
   3 -11   2    0.71    3.31   1
   3 -11   3    1.21    2.62   1
   3 -11   4   -1.90    2.70   1
   3 -10 -37   -1.90    6.32   1
   3 -10 -36   12.82    5.87   1
   3 -10 -35   -3.50    5.68   1
   3 -10 -34    8.70    5.31   1
   3 -10 -33    7.18    4.40   1
   3 -10 -32    4.08    4.69   1
   3 -10 -31    6.50    5.20   1
   3 -10 -30   35.40    5.83   1
   3 -10 -29    4.00    4.48   1
   3 -10 -28    7.90    4.89   1
   3 -10 -27    2.79    4.28   1
   3 -10 -26   -1.80    4.21   1
   3 -10 -25   16.97    4.53   1
   3 -10 -24   46.24    5.44   1
   3 -10 -23    3.50    3.70   1
   3 -10 -22   16.00    4.00   1
   3 -10 -21    9.99    4.11   1
   3 -10 -20    0.90    3.61   1
   3 -10 -19    3.20    3.90   1
   3 -10 -18   30.14    5.05   1
   3 -10 -17   17.14    4.31   1
   3 -10 -16    7.67    3.88   1
   3 -10 -15   92.54    6.35   1
   3 -10 -14    1.21    3.41   1
   3 -10 -13   -3.20    3.19   1
   3 -10 -12   -2.40    3.10   1
   3 -10 -11    2.31    2.92   1
   3 -10 -10   19.54    3.36   1
   3 -10  -9   12.53    3.40   1
   3 -10  -8    1.80    2.09   1
   3 -10  -7    5.52    2.91   1
   3 -10  -6   -3.10    2.50   1
   3 -10  -5    7.29    3.02   1
   3 -10  -4   14.21    3.32   1
   3 -10  -3   60.68    5.30   1
   3 -10  -2   51.98    5.19   1
   3 -10  -1    2.19    2.40   1
   3 -10   0   37.45    4.16   1
   3 -10   1    3.20    2.61   1
   3 -10   2    3.88    2.68   1
   3 -10   3   40.96    4.35   1
   3 -10   4    4.88    2.78   1
   3 -10   5   -2.40    2.51   1
   3 -10   6   13.03    3.54   1
   3 -10   7   19.18    3.50   1
   3 -10   8   -0.20    3.01   1
   3 -10   9   41.86    4.66   1
   3 -10  10    5.02    2.51   1
   3  -9 -40    1.00    6.20   1
   3  -9 -39    5.29    3.59   1
   3  -9 -38   -0.79    5.46   1
   3  -9 -37    6.71    5.49   1
   3  -9 -36    1.59    5.09   1
   3  -9 -35    3.88    5.00   1
   3  -9 -34   -4.20    4.30   1
   3  -9 -33   73.96    8.77   1
   3  -9 -32   10.82    4.47   1
   3  -9 -31    4.00    4.40   1
   3  -9 -30   10.11    2.67   1
   3  -9 -29    2.59    4.19   1
   3  -9 -28   -4.49    3.48   1
   3  -9 -27   71.06    8.26   1
   3  -9 -26    4.00    3.80   1
   3  -9 -25    9.99    3.10   1
   3  -9 -24   36.84    4.86   1
   3  -9 -23    4.58    3.30   1
   3  -9 -22    1.59    3.28   1
   3  -9 -21   35.64    4.42   1
   3  -9 -20    3.50    2.92   1
   3  -9 -19    1.10    2.79   1
   3  -9 -18    8.58    3.81   1
   3  -9 -17   -1.49    2.78   1
   3  -9 -16    2.10    2.29   1
   3  -9 -15   11.42    3.38   1
   3  -9 -14   29.81    4.15   1
   3  -9 -13    3.50    2.58   1
   3  -9 -12   18.92    3.13   1
   3  -9 -11   -1.39    2.38   1
   3  -9 -10    9.67    2.67   1
   3  -9  -9   86.86    5.41   1
   3  -9  -8    0.00    1.00   1
   3  -9  -7    4.88    2.21   1
   3  -9  -6    6.20    1.79   1
   3  -9  -5    5.11    1.49   1
   3  -9  -4    8.53    2.28   1
   3  -9  -3  125.66    7.85   1
   3  -9  -2    2.79    2.40   1
   3  -9  -1   -0.40    2.09   1
   3  -9   0   90.82    5.53   1
   3  -9   1   -0.50    2.22   1
   3  -9   2   60.53    4.51   1
   3  -9   3   75.34    6.77   1
   3  -9   4   31.47    3.48   1
   3  -9   5    8.70    2.42   1
   3  -9   6   17.14    2.98   1
   3  -9   7    6.92    2.52   1
   3  -9   8   59.14    4.92   1
   3  -9   9  374.04   16.63   1
   3  -9  10   26.32    3.69   1
   3  -9  11   -1.80    2.39   1
   3  -9  12   62.88    5.08   1
   3  -9  13    0.20    2.52   1
   3  -9  28   22.18    3.58   1
   3  -9  29   17.39    4.09   1
   3  -9  30   13.76    4.38   1
   3  -9  32   33.06    5.17   1
   3  -9  33   94.48    8.55   1
   3  -9  34   -1.49    2.59   1
   3  -9  35   -7.90    4.22   1
   3  -9  36    4.08    4.69   1
   3  -9  38    1.69    4.68   1
   3  -9  39   13.91    5.52   1
   3  -8 -42   -2.79    6.38   1
   3  -8 -41   -4.88    5.70   1
   3  -8 -40   -1.00    5.10   1
   3  -8 -39   -4.00    4.60   1
   3  -8 -38   10.11    4.13   1
   3  -8 -37   10.82    5.20   1
   3  -8 -36    1.30    4.31   1
   3  -8 -35   -3.61    4.60   1
   3  -8 -34    8.88    5.19   1
   3  -8 -33    1.21    4.03   1
   3  -8 -32   -0.50    3.82   1
   3  -8 -31    8.58    3.98   1
   3  -8 -30   11.29    4.17   1
   3  -8 -29    5.20    2.51   1
   3  -8 -28    0.00    1.00   1
   3  -8 -27    4.00    3.20   1
   3  -8 -26    3.80    3.20   1
   3  -8 -25   24.11    3.93   1
   3  -8 -24    8.70    3.42   1
   3  -8 -23    1.49    3.10   1
   3  -8 -22    6.92    2.89   1
   3  -8 -21  295.15   14.43   1
   3  -8 -20   46.51    5.05   1
   3  -8 -19    1.10    3.00   1
   3  -8 -18   15.37    3.53   1
   3  -8 -17    8.70    2.77   1
   3  -8 -16   12.18    6.91   1
   3  -8 -15   25.00    6.30   1
   3  -8 -14    1.30    2.10   1
   3  -8 -13   16.48    2.92   1
   3  -8 -12   31.02    3.56   1
   3  -8 -11    4.58    1.88   1
   3  -8 -10    9.80    2.63   1
   3  -8  -9   21.81    2.71   1
   3  -8  -8   30.36    3.09   1
   3  -8  -7    1.21    2.00   1
   3  -8  -6   52.13    4.91   1
   3  -8  -5   -0.30    1.80   1
   3  -8  -4    8.18    2.00   1
   3  -8  -3  345.96   15.25   1
   3  -8  -2    6.40    2.02   1
   3  -8  -1   27.67    3.37   1
   3  -8   0    4.28    1.99   1
   3  -8   1   -2.19    1.81   1
   3  -8   2   69.56    4.34   1
   3  -8   3  398.40   19.56   1
   3  -8   4   35.40    3.45   1
   3  -8   5   14.90    2.70   1
   3  -8   6    7.29    2.38   1
   3  -8   7   11.02    2.12   1
   3  -8   8    3.10    1.51   1
   3  -8   9   67.24    4.76   1
   3  -8  10    5.71    2.10   1
   3  -8  11   12.18    2.72   1
   3  -8  12   10.89    2.31   1
   3  -8  13   32.72    3.43   1
   3  -8  14   42.25    4.03   1
   3  -8  15  463.97   28.00   1
   3  -8  16   14.67    2.68   1
   3  -8  17   60.06    4.65   1
   3  -8  18   66.75    5.07   1
   3  -8  19    9.80    2.13   1
   3  -8  20    8.70    2.48   1
   3  -8  21   12.11    2.71   1
   3  -8  22    7.08    2.61   1
   3  -8  23   18.40    3.52   1
   3  -8  24   59.91    4.80   1
   3  -8  25    2.99    2.60   1
   3  -8  26    2.40    2.60   1
   3  -8  27    8.82    2.38   1
   3  -8  28    2.31    3.22   1
   3  -8  29   14.36    3.26   1
   3  -8  30   58.52    6.58   1
   3  -8  31   -0.30    3.31   1
   3  -8  32   18.92    4.18   1
   3  -8  33  124.32    8.92   1
   3  -8  34   57.30    6.21   1
   3  -8  35    0.40    4.49   1
   3  -8  36    5.90    4.52   1
   3  -8  37    9.42    4.79   1
   3  -8  38   15.92    4.79   1
   3  -8  39   84.82    7.74   1
   3  -8  40   15.76    5.48   1
   3  -8  41    0.90    5.11   1
   3  -7 -44   13.40    5.78   1
   3  -7 -43    4.58    4.49   1
   3  -7 -42    5.62    5.92   1
   3  -7 -41    1.49    5.17   1
   3  -7 -40   -3.39    4.78   1
   3  -7 -39    1.80    4.69   1
   3  -7 -38    2.19    4.59   1
   3  -7 -37   -1.59    3.88   1
   3  -7 -36   91.97   10.74   1
   3  -7 -35   10.89    4.09   1
   3  -7 -34    2.31    4.10   1
   3  -7 -33    4.00    4.20   1
   3  -7 -32    3.39    3.79   1
   3  -7 -31    1.10    3.51   1
   3  -7 -30    2.19    2.49   1
   3  -7 -29   15.21    3.82   1
   3  -7 -28    1.10    3.30   1
   3  -7 -27    1.69    2.99   1
   3  -7 -26    0.79    2.49   1
   3  -7 -25   12.11    3.48   1
   3  -7 -24  184.96   10.34   1
   3  -7 -23   38.44    4.22   1
   3  -7 -22    4.88    1.68   1
   3  -7 -21   25.91    4.07   1
   3  -7 -20   23.43    3.29   1
   3  -7 -19    9.00    2.88   1
   3  -7 -18    7.51    2.52   1
   3  -7 -17    8.53    2.51   1
   3  -7 -16   35.28    4.04   1
   3  -7 -14    7.02    1.70   1
   3  -7 -13   -0.79    2.08   1
   3  -7 -12   34.11    4.09   1
   3  -7 -11   -2.10    1.71   1
   3  -7 -10    3.69    1.69   1
   3  -7  -9  225.30   11.41   1
   3  -7  -8   14.59    2.52   1
   3  -7  -7   14.29    2.42   1
   3  -7  -6  140.90    6.88   1
   3  -7  -5    1.90    1.71   1
   3  -7  -4   13.62    2.29   1
   3  -7  -3   31.47    2.81   1
   3  -7  -2    6.40    2.02   1
   3  -7  -1   10.11    1.91   1
   3  -7   0  338.93   19.51   1
   3  -7   1    1.30    1.60   1
   3  -7   2   86.68    5.96   1
   3  -7   3  202.49   10.53   1
   3  -7   4   50.27    3.69   1
   3  -7   5   36.12    3.85   1
   3  -7   6   65.12    4.52   1
   3  -7   7    2.59    1.61   1
   3  -7   8   15.68    2.38   1
   3  -7   9  372.88   15.45   1
   3  -7  10   55.35    4.76   1
   3  -7  11   29.92    2.95   1
   3  -7  12    2.10    1.91   1
   3  -7  12    3.20    1.40   1
   3  -7  13    1.49    1.29   1
   3  -7  13    0.71    2.10   1
   3  -7  14    1.10    1.81   1
   3  -7  14   -0.79    1.80   1
   3  -7  15   16.73    2.62   1
   3  -7  15   11.02    2.72   1
   3  -7  16    0.00    1.00   1
   3  -7  16    1.39    1.79   1
   3  -7  17   81.36    5.23   1
   3  -7  18  254.08   11.16   1
   3  -7  19   23.43    3.39   1
   3  -7  19   31.47    3.37   1
   3  -7  20   -0.71    1.92   1
   3  -7  20    3.20    2.00   1
   3  -7  21    4.20    2.42   1
   3  -7  22    1.80    2.01   1
   3  -7  23    2.40    2.51   1
   3  -7  24    2.19    2.40   1
   3  -7  25    8.12    2.51   1
   3  -7  26   -0.40    2.29   1
   3  -7  27  112.15   18.21   1
   3  -7  29   19.27    3.60   1
   3  -7  30    5.90    3.11   1
   3  -7  31    1.69    3.30   1
   3  -7  32    2.99    3.81   1
   3  -7  33   14.36    4.09   1
   3  -7  34    6.71    3.78   1
   3  -7  35   69.22    6.66   1
   3  -7  36  164.61   10.01   1
   3  -7  37   -4.20    3.49   1
   3  -7  38    8.82    4.63   1
   3  -7  39    2.31    4.10   1
   3  -7  40    9.80    5.07   1
   3  -7  41   -3.50    3.22   1
   3  -7  42   47.20    7.01   1
   3  -7  43   -8.12    5.19   1
   3  -6 -45    2.50    5.69   1
   3  -6 -44    1.30    3.31   1
   3  -6 -43    4.00    5.52   1
   3  -6 -42   -4.28    4.51   1
   3  -6 -41   -2.19    4.68   1
   3  -6 -40    7.08    4.20   1
   3  -6 -39    4.41    4.12   1
   3  -6 -38   -0.50    3.92   1
   3  -6 -37    5.11    2.98   1
   3  -6 -36   44.89    4.82   1
   3  -6 -35   16.56    4.72   1
   3  -6 -34   38.94    5.62   1
   3  -6 -33   40.58    4.71   1
   3  -6 -32    7.02    3.50   1
   3  -6 -31    6.81    3.50   1
   3  -6 -30  115.99    7.11   1
   3  -6 -29    4.49    3.01   1
   3  -6 -28   -0.71    3.01   1
   3  -6 -27    6.40    2.68   1
   3  -6 -26   13.40    3.29   1
   3  -6 -25  104.24    6.33   1
   3  -6 -24  230.13   12.74   1
   3  -6 -23    8.88    3.10   1
   3  -6 -22   39.82    4.42   1
   3  -6 -21   87.42    5.98   1
   3  -6 -20    2.19    2.10   1
   3  -6 -19   13.10    2.61   1
   3  -6 -18  241.18   11.18   1
   3  -6 -17    1.90    2.10   1
   3  -6 -16    7.78    2.12   1
   3  -6 -15   29.16    3.13   1
   3  -6 -14    4.41    2.02   1
   3  -6 -13   75.86    4.36   1
   3  -6 -12   55.65    4.18   1
   3  -6 -11   27.98    2.86   1
   3  -6 -10   11.97    2.21   1
   3  -6  -9   88.55    5.65   1
   3  -6  -8   15.92    2.23   1
   3  -6  -7    0.71    1.41   1
   3  -6  -6   88.74    5.28   1
   3  -6  -5   -0.20    1.31   1
   3  -6  -4   -0.90    1.31   1
   3  -6  -3  206.78    9.49   1
   3  -6  -2    1.69    1.40   1
   3  -6  -1    1.49    1.29   1
   3  -6   0   38.94    3.00   1
   3  -6   1   23.91    2.44   1
   3  -6   2  184.69   10.33   1
   3  -6   3   71.23    4.05   1
   3  -6   4   75.17    4.34   1
   3  -6   5    0.71    1.31   1
   3  -6   6  489.29   27.87   1
   3  -6   7   45.16    2.69   1
   3  -6   8   50.27    3.26   1
   3  -6   8   62.41    3.16   1
   3  -6   9   47.89    3.04   1
   3  -6  10    5.81    1.30   1
   3  -6  10    3.31    1.60   1
   3  -6  11   14.36    2.12   1
   3  -6  11   19.18    1.84   1
   3  -6  12  270.27   12.82   1
   3  -6  13    0.79    1.50   1
   3  -6  13    1.49    1.68   1
   3  -6  14   19.71    2.40   1
   3  -6  14   24.90    2.20   1
   3  -6  15  123.65    6.45   1
   3  -6  15  166.93    7.49   1
   3  -6  16    4.20    1.60   1
   3  -6  17    5.62    1.80   1
   3  -6  17    6.92    1.58   1
   3  -6  18  204.49    8.87   1
   3  -6  19    6.50    1.89   1
   3  -6  19    0.79    1.80   1
   3  -6  20   31.14    3.12   1
   3  -6  20   24.30    3.06   1
   3  -6  21    5.20    2.28   1
   3  -6  21    5.29    1.98   1
   3  -6  22   -0.10    2.02   1
   3  -6  22    0.59    2.09   1
   3  -6  23   -0.50    2.31   1
   3  -6  23    2.31    2.10   1
   3  -6  24  122.10    7.07   1
   3  -6  25   12.60    2.77   1
   3  -6  26    2.31    2.22   1
   3  -6  27    6.20    2.79   1
   3  -6  28   36.72    4.00   1
   3  -6  29   33.87    3.84   1
   3  -6  31   22.56    3.61   1
   3  -6  32   -0.79    1.99   1
   3  -6  33   26.32    4.21   1
   3  -6  34    0.30    2.92   1
   3  -6  35   55.06    5.64   1
   3  -6  36   96.83    8.07   1
   3  -6  37    0.30    4.21   1
   3  -6  38    2.31    2.92   1
   3  -6  39    5.90    4.52   1
   3  -6  40   13.91    4.77   1
   3  -6  41   14.82    4.62   1
   3  -6  42   48.86    7.27   1
   3  -6  43    7.40    5.22   1
   3  -5 -47    9.92    5.29   1
   3  -5 -46   -0.40    4.98   1
   3  -5 -45    3.80    3.12   1
   3  -5 -44   -1.90    5.30   1
   3  -5 -43    2.99    4.88   1
   3  -5 -42   27.25    5.53   1
   3  -5 -41   -1.59    4.59   1
   3  -5 -40   31.70    4.95   1
   3  -5 -39    7.40    4.41   1
   3  -5 -38    9.12    4.29   1
   3  -5 -37    3.31    4.30   1
   3  -5 -36   39.44    5.53   1
   3  -5 -35   -1.49    3.20   1
   3  -5 -34   61.62    6.28   1
   3  -5 -33  122.10    8.62   1
   3  -5 -32    3.88    3.07   1
   3  -5 -31    1.80    2.79   1
   3  -5 -30   10.30    2.70   1
   3  -5 -29    3.39    2.91   1
   3  -5 -28   64.64    5.63   1
   3  -5 -27   63.52    5.42   1
   3  -5 -26   10.89    2.97   1
   3  -5 -25   10.82    2.50   1
   3  -5 -24   74.65    4.84   1
   3  -5 -23    0.79    2.19   1
   3  -5 -22    9.67    2.43   1
   3  -5 -21    4.71    2.21   1
   3  -5 -20   11.22    2.41   1
   3  -5 -19   27.25    2.82   1
   3  -5 -18  111.94    6.56   1
   3  -5 -17   13.03    2.24   1
   3  -5 -16    4.49    1.91   1
   3  -5 -15  200.79   10.20   1
   3  -5 -14   11.49    1.90   1
   3  -5 -13   15.76    2.22   1
   3  -5 -12    3.50    1.61   1
   3  -5 -11   27.88    2.75   1
   3  -5 -10   50.84    3.28   1
   3  -5  -9   -0.30    1.31   1
   3  -5  -8   14.90    1.93   1
   3  -5  -7   77.97    4.24   1
   3  -5  -6  143.04    7.42   1
   3  -5  -5   37.95    2.71   1
   3  -5  -4   24.30    1.97   1
   3  -5  -3  196.00    8.68   1
   3  -5  -2    4.00    1.28   1
   3  -5  -1   33.64    2.55   1
   3  -5   0  230.43    9.41   1
   3  -5   1   30.25    2.42   1
   3  -5   2  278.89   10.69   1
   3  -5   3  598.78   26.43   1
   3  -5   4  199.66    8.20   1
   3  -5   5  135.02    5.81   1
   3  -5   6  228.61    8.47   1
   3  -5   7    8.53    1.58   1
   3  -5   7   15.76    1.51   1
   3  -5   8  206.50    9.20   1
   3  -5   9  269.62    9.52   1
   3  -5  10   51.41    3.59   1
   3  -5  11   27.14    1.98   1
   3  -5  12  172.92    8.68   1
   3  -5  12  219.93    9.49   1
   3  -5  13    6.50    1.58   1
   3  -5  13    4.00    1.60   1
   3  -5  14    0.30    1.41   1
   3  -5  14    3.10    1.51   1
   3  -5  15    4.80    1.49   1
   3  -5  15    3.31    1.49   1
   3  -5  16   16.08    2.17   1
   3  -5  16   21.53    2.23   1
   3  -5  17    6.50    1.78   1
   3  -5  17   12.89    1.72   1
   3  -5  18   40.45    3.18   1
   3  -5  18   25.91    3.05   1
   3  -5  19    2.10    1.71   1
   3  -5  19    1.00    1.70   1
   3  -5  20   -1.30    1.71   1
   3  -5  20   -0.40    1.50   1
   3  -5  21   31.70    3.38   1
   3  -5  22    1.21    1.72   1
   3  -5  22   -2.40    1.80   1
   3  -5  23   -0.59    1.89   1
   3  -5  23    1.39    2.01   1
   3  -5  24   37.82    3.57   1
   3  -5  24   39.31    4.14   1
   3  -5  25    4.88    1.81   1
   3  -5  25    3.50    1.98   1
   3  -5  26   33.87    3.61   1
   3  -5  27  105.68    6.37   1
   3  -5  32   12.89    2.80   1
   3  -5  37   18.58    4.22   1
   3  -5  38    1.00    2.80   1
   3  -5  39   -9.18    3.51   1
   3  -5  42  193.49   11.96   1
   3  -5  43    7.18    3.81   1
   3  -5  44    0.20    5.23   1
   3  -5  45   51.12    7.29   1
   3  -4 -48   38.81    7.23   1
   3  -4 -47    4.49    5.60   1
   3  -4 -46   31.70    5.86   1
   3  -4 -43    0.30    3.52   1
   3  -4 -40   27.25    5.32   1
   3  -4 -39   63.52    7.17   1
   3  -4 -35    9.61    3.29   1
   3  -4 -34   -1.69    3.20   1
   3  -4 -33    1.00    3.00   1
   3  -4 -32   49.14    4.77   1
   3  -4 -31   25.91    4.07   1
   3  -4 -30  343.36   17.79   1
   3  -4 -29    8.12    2.68   1
   3  -4 -28   25.10    3.21   1
   3  -4 -28   30.47    2.65   1
   3  -4 -27   84.09    5.50   1
   3  -4 -27   84.09    5.87   1
   3  -4 -26   19.36    2.99   1
   3  -4 -26   18.92    2.00   1
   3  -4 -25   -1.21    2.11   1
   3  -4 -25    1.00    1.40   1
   3  -4 -23   -0.30    2.11   1
   3  -4 -22    2.40    2.01   1
   3  -4 -21  497.29   24.08   1
   3  -4 -20   12.53    2.12   1
   3  -4 -19   11.42    2.30   1
   3  -4 -18   21.62    2.60   1
   3  -4 -17   -0.30    1.51   1
   3  -4 -16    3.50    1.68   1
   3  -4 -15   53.73    3.23   1
   3  -4 -14    0.59    1.29   1
   3  -4 -13   -0.59    1.39   1
   3  -4 -12  240.87   11.17   1
   3  -4 -11    4.41    1.30   1
   3  -4 -10   69.56    4.50   1
   3  -4  -9  107.54    5.81   1
   3  -4  -8    1.59    1.08   1
   3  -4  -7   26.63    1.86   1
   3  -4  -6  249.32   12.95   1
   3  -4  -5    5.71    1.20   1
   3  -4  -4    2.89    0.88   1
   3  -4  -3  750.76   32.88   1
   3  -4  -2    0.79    0.89   1
   3  -4  -1   10.37    1.42   1
   3  -4   0  432.22   22.04   1
   3  -4   1    1.00    0.90   1
   3  -4   1    2.31    0.49   1
   3  -4   2  156.75    6.76   1
   3  -4   3  466.99   16.86   1
   3  -4   4   49.28    2.67   1
   3  -4   5   39.44    2.64   1
   3  -4   5   51.70    3.16   1
   3  -4   6   12.67    1.21   1
   3  -4   6   21.53    1.76   1
   3  -4   7    2.99    1.00   1
   3  -4   7    3.39    0.88   1
   3  -4   8   59.14    2.92   1
   3  -4   8   40.32    2.54   1
   3  -4   9  138.77    6.13   1
   3  -4   9  177.42    7.73   1
   3  -4  10   96.24    5.30   1
   3  -4  10  103.84    4.69   1
   3  -4  11   15.92    1.92   1
   3  -4  11   22.66    2.09   1
   3  -4  12   59.44    3.08   1
   3  -4  12   40.96    3.07   1
   3  -4  13    5.29    1.20   1
   3  -4  13   12.67    1.92   1
   3  -4  14    0.59    1.00   1
   3  -4  14   -0.59    1.29   1
   3  -4  15    7.08    1.60   1
   3  -4  15    7.08    1.70   1
   3  -4  16   12.18    1.61   1
   3  -4  17    4.71    1.69   1
   3  -4  18    0.71    1.11   1
   3  -4  18    0.79    1.30   1
   3  -4  19   21.81    2.05   1
   3  -4  19   27.56    2.94   1
   3  -4  20    0.79    1.50   1
   3  -4  21    5.38    1.81   1
   3  -4  22    2.79    1.40   1
   3  -4  22    0.10    1.62   1
   3  -4  23   13.62    2.21   1
   3  -4  24   89.87    6.07   1
   3  -4  25   15.21    2.26   1
   3  -4  26   19.36    2.73   1
   3  -4  27   -1.49    2.20   1
   3  -4  33   25.00    3.60   1
   3  -4  34    5.38    2.69   1
   3  -4  37    5.90    3.40   1
   3  -4  40   -0.50    3.92   1
   3  -4  41    2.69    4.10   1
   3  -4  44   -6.00    4.61   1
   3  -4  45   11.83    5.02   1
   3  -3 -49   17.81    4.98   1
   3  -3 -48   -4.49    5.98   1
   3  -3 -37    1.30    2.39   1
   3  -3 -34    1.80    2.20   1
   3  -3 -28   48.86    3.63   1
   3  -3 -27   86.86    6.52   1
   3  -3 -27  103.84    6.11   1
   3  -3 -26   11.42    1.89   1
   3  -3 -26    7.40    2.28   1
   3  -3 -25   19.27    2.19   1
   3  -3 -24   10.69    1.90   1
   3  -3 -23    6.50    2.40   1
   3  -3 -23    6.71    1.50   1
   3  -3 -22    2.19    1.81   1
   3  -3 -22    2.40    1.21   1
   3  -3 -21   10.69    2.09   1
   3  -3 -21   10.18    1.60   1
   3  -3 -20    6.00    2.01   1
   3  -3 -19   36.36    3.26   1
   3  -3 -18   38.56    2.86   1
   3  -3 -17    9.61    1.67   1
   3  -3 -16    2.31    1.40   1
   3  -3 -15    9.12    1.69   1
   3  -3 -14   -0.30    1.21   1
   3  -3 -13   52.42    3.04   1
   3  -3 -12    0.50    1.11   1
   3  -3 -11   19.27    2.02   1
   3  -3 -11   23.43    3.78   1
   3  -3 -10   61.78    3.93   1
   3  -3  -9  152.52    6.67   1
   3  -3  -9  128.37    6.34   1
   3  -3  -8   37.95    2.34   1
   3  -3  -8   47.33    2.20   1
   3  -3  -7    0.90    1.10   1
   3  -3  -7    0.20    0.31   1
   3  -3  -6  187.69    8.49   1
   3  -3  -5    1.49    0.90   1
   3  -3  -4   14.82    1.23   1
   3  -3  -3 1081.09   53.27   1
   3  -3  -2   47.47    2.62   1
   3  -3  -1   60.53    2.96   1
   3  -3   0 2591.83   94.69   1
   3  -3   1   11.29    0.81   1
   3  -3   2   11.97    0.90   1
   3  -3   2    8.82    0.89   1
   3  -3   3   33.41    2.08   1
   3  -3   3   21.81    1.59   1
   3  -3   4   20.34    1.53   1
   3  -3   4   28.41    1.71   1
   3  -3   5   11.29    1.01   1
   3  -3   6   12.32    1.19   1
   3  -3   6   11.49    1.22   1
   3  -3   7    0.30    0.61   1
   3  -3   8   -0.50    0.81   1
   3  -3   8    0.50    1.11   1
   3  -3   9  821.97   32.68   1
   3  -3  10   34.22    2.34   1
   3  -3  11   14.21    1.43   1
   3  -3  12  772.84   33.92   1
   3  -3  13    0.71    0.91   1
   3  -3  14    6.50    1.22   1
   3  -3  15   53.14    3.06   1
   3  -3  16    6.50    1.27   1
   3  -3  17    1.99    1.18   1
   3  -3  18  283.92   13.82   1
   3  -3  19   -0.10    1.22   1
   3  -3  20   10.50    1.81   1
   3  -3  21   47.89    3.04   1
   3  -3  22    2.31    1.49   1
   3  -3  23    0.71    1.61   1
   3  -3  24    1.39    1.70   1
   3  -3  25    5.11    1.90   1
   3  -3  26    2.40    2.01   1
   3  -3  27   21.53    2.97   1
   3  -3  28    0.50    2.10   1
   3  -3  31   16.89    2.96   1
   3  -3  38    9.30    3.60   1
   3  -3  39   -5.11    3.48   1
   3  -3  40   -1.21    4.03   1
   3  -3  41   15.60    4.90   1
   3  -3  44    9.18    3.58   1
   3  -3  45   91.97    8.06   1
   3  -3  47  -11.63    6.82   1
   3  -2 -49    8.29    5.59   1
   3  -2 -48   41.34    6.94   1
   3  -2 -45   -4.00    4.00   1
   3  -2 -42    0.20    3.82   1
   3  -2 -37    0.10    3.44   1
   3  -2 -28    6.20    1.49   1
   3  -2 -27   94.09    6.98   1
   3  -2 -26   17.31    1.91   1
   3  -2 -25    0.30    1.00   1
   3  -2 -24   -1.00    1.20   1
   3  -2 -24    2.19    1.81   1
   3  -2 -23   17.39    1.67   1
   3  -2 -22   16.00    1.76   1
   3  -2 -21  106.30    4.95   1
   3  -2 -21   88.17    5.07   1
   3  -2 -20   29.81    2.29   1
   3  -2 -20   33.06    2.99   1
   3  -2 -19   32.72    2.97   1
   3  -2 -19   32.15    2.49   1
   3  -2 -18    3.80    1.01   1
   3  -2 -18    1.59    1.49   1
   3  -2 -17    2.40    1.21   1
   3  -2 -17    2.40    0.99   1
   3  -2 -16   18.66    1.99   1
   3  -2 -16   23.52    1.84   1
   3  -2 -15  314.00   13.82   1
   3  -2 -14    9.61    1.43   1
   3  -2 -13   -0.59    1.00   1
   3  -2 -12   65.61    4.21   1
   3  -2 -11    6.20    1.10   1
   3  -2 -10    4.28    0.99   1
   3  -2 -10    3.39    0.70   1
   3  -2  -9   14.82    1.08   1
   3  -2  -9   12.82    1.43   1
   3  -2  -8   -0.40    0.69   1
   3  -2  -8   -0.20    0.50   1
   3  -2  -7   11.63    0.82   1
   3  -2  -6 1664.64   70.18   1
   3  -2  -5   42.51    1.56   1
   3  -2  -4  289.34   13.27   1
   3  -2  -3 2115.08   98.42   1
   3  -2  -2   24.11    1.57   1
   3  -2  -1 1066.68   37.89   1
   3  -2   0  493.73   20.44   1
   3  -2   0  629.51   25.59   1
   3  -2   1  205.35    9.46   1
   3  -2   1  280.90   11.06   1
   3  -2   2  200.79    8.22   1
   3  -2   2  153.51    7.68   1
   3  -2   3  201.92    9.09   1
   3  -2   4   54.32    2.95   1
   3  -2   4   38.94    2.00   1
   3  -2   5    3.88    0.59   1
   3  -2   5    5.81    1.01   1
   3  -2   6 1018.25   37.02   1
   3  -2   6  877.94   40.30   1
   3  -2   7    1.49    0.71   1
   3  -2   8   -0.20    0.60   1
   3  -2   8    0.50    0.70   1
   3  -2   9  742.56   31.07   1
   3  -2   9  862.01   29.95   1
   3  -2  10    4.20    1.11   1
   3  -2  10    3.31    0.62   1
   3  -2  11   21.72    1.68   1
   3  -2  12 1498.46   53.42   1
   3  -2  13    4.41    1.09   1
   3  -2  13    5.20    1.00   1
   3  -2  14   15.76    1.43   1
   3  -2  14   14.98    1.63   1
   3  -2  15   95.06    4.29   1
   3  -2  16   -0.50    1.11   1
   3  -2  17    4.08    1.09   1
   3  -2  18   75.17    4.51   1
   3  -2  20   49.14    2.94   1
   3  -2  23    5.81    1.78   1
   3  -2  25    1.49    1.68   1
   3  -2  26    3.69    1.88   1
   3  -2  34   25.81    3.35   1
   3  -2  35   10.37    2.58   1
   3  -2  36   26.42    2.98   1
   3  -2  37    2.99    2.28   1
   3  -2  43    3.50    4.79   1
   3  -2  44   -4.41    4.12   1
   3  -2  45   24.40    6.13   1
   3  -2  46   -2.59    4.89   1
   3  -2  47   -8.29    5.13   1
   3  -1 -45   -3.61    4.22   1
   3  -1 -26    1.99    1.61   1
   3  -1 -25   68.39    4.47   1
   3  -1 -24    9.30    1.52   1
   3  -1 -23   10.63    1.83   1
   3  -1 -22   11.42    1.62   1
   3  -1 -21  508.05   25.70   1
   3  -1 -20   -0.30    0.90   1
   3  -1 -19   29.81    2.07   1
   3  -1 -18  331.97   18.22   1
   3  -1 -17    8.58    1.41   1
   3  -1 -16    2.69    0.89   1
   3  -1 -15   24.60    2.18   1
   3  -1 -14    1.59    0.91   1
   3  -1 -13   -0.50    0.91   1
   3  -1 -12  804.29   30.06   1
   3  -1 -11    0.40    0.79   1
   3  -1 -10   32.15    2.15   1
   3  -1  -9  130.42    6.62   1
   3  -1  -8    2.31    0.61   1
   3  -1  -6  447.75   17.77   1
   3  -1  -5  136.66    5.61   1
   3  -1  -4  108.16    5.62   1
   3  -1  -2  205.64    8.32   1
   3  -1  -1   34.93    1.89   1
   3  -1   1   53.73    2.20   1
   3  -1   2   72.08    3.06   1
   3  -1   3   75.86    3.14   1
   3  -1   4   23.81    1.66   1
   3  -1   5  111.30    5.28   1
   3  -1   5  109.20    4.60   1
   3  -1   6  552.72   21.63   1
   3  -1   6  548.50   20.14   1
   3  -1   7   -0.40    0.59   1
   3  -1   8   97.42    4.74   1
   3  -1   9   17.64    1.43   1
   3  -1  10    1.30    0.89   1
   3  -1  11   50.84    3.14   1
   3  -1  12   43.03    2.76   1
   3  -1  13    4.28    1.20   1
   3  -1  13    0.59    0.69   1
   3  -1  14   20.07    2.42   1
   3  -1  15   39.82    3.03   1
   3  -1  16   -1.10    1.20   1
   3  -1  17   13.40    1.98   1
   3  -1  18  281.23   11.74   1
   3  -1  19   45.83    3.25   1
   3  -1  20    0.20    0.91   1
   3  -1  21  438.90   18.85   1
   3  -1  22    2.69    2.00   1
   3  -1  23   13.18    2.40   1
   3  -1  24  100.60    6.02   1
   3  -1  25    4.88    1.90   1
   3  -1  26    5.52    2.21   1
   3  -1  30  515.74   19.98   1
   3  -1  38    1.99    2.68   1
   3  -1  43    1.69    2.50   1
   3   0 -50    3.39    5.70   1
   3   0 -20   83.36    4.93   1
   3   0 -18  435.56   21.29   1
   3   0 -16   17.47    1.50   1
   3   0 -14   13.99    1.57   1
   3   0 -12  449.86   19.51   1
   3   0 -10   13.62    1.33   1
   3   0  -8  155.75    8.24   1
   3   0  -6  217.56    9.44   1
   3   0  -4   19.01    1.48   1
   3   0  -2   30.69    1.88   1
   3   0   0  852.64   39.71   1
   3   0   2   82.99    4.19   1
   3   0   2   69.22    3.00   1
   3   0   4    2.79    0.70   1
   3   0   8   61.94    3.62   1
   3   0  10   16.89    1.48   1
   3   0  12  668.22   27.40   1
   3   0  12  617.03   27.82   1
   3   0  14  107.74    6.02   1
   3   0  14  115.13    5.58   1
   3   0  16   23.52    2.42   1
   3   0  16   24.01    1.67   1
   3   0  18    2.79    1.30   1
   3   0  18    3.39    1.21   1
   3   0  20   32.60    2.51   1
   3   0  20   29.59    3.05   1
   3   0  22   20.16    3.32   1
   3   0  22   18.84    2.08   1
   3   0  24  827.71   35.10   1
   3   0  24  816.24   33.71   1
   3   0  26   24.80    2.99   1
   3   0  26   28.84    3.33   1
   3   0  28   87.42    5.80   1
   3   0  30   34.93    3.55   1
   3   0  32   -2.19    2.40   1
   3   0  40    1.49    3.10   1
   3   1 -13    0.40    0.79   1
   3   1 -12  750.21   35.06   1
   3   1 -11    0.59    0.80   1
   3   1 -10   30.91    2.45   1
   3   1  -9  117.72    5.86   1
   3   1  -8    0.71    0.91   1
   3   1  -7  365.57   17.97   1
   3   1  -6  355.32   15.46   1
   3   1   0  651.27   26.54   1
   3   1   1   49.14    3.08   1
   3   1   2   85.93    4.45   1
   3   1   3   73.10    3.42   1
   3   1   4   25.40    1.51   1
   3   1   5  101.20    5.23   1
   3   1   6  545.69   20.56   1
   3   1   7    0.59    0.60   1
   3   1   8   98.01    4.16   1
   3   1   9   17.89    1.44   1
   3   1  10    1.30    1.00   1
   3   1  10    1.21    0.51   1
   3   1  11   45.97    2.98   1
   3   1  11   45.29    2.15   1
   3   1  12   42.51    2.09   1
   3   1  12   48.16    3.05   1
   3   1  13    2.19    1.10   1
   3   1  14   24.50    2.08   1
   3   1  15   33.64    2.78   1
   3   1  16   -0.40    1.40   1
   3   1  17   10.37    1.03   1
   3   1  17    9.49    1.91   1
   3   1  18  258.57   11.90   1
   3   1  18  252.81   12.40   1
   3   1  19   36.60    3.15   1
   3   1  20    1.39    1.60   1
   3   1  21  408.04   16.97   1
   3   1  22    0.79    1.30   1
   3   1  23   16.40    2.43   1
   3   1  24   96.04    5.29   1
   3   1  25    2.79    2.30   1
   3   1  26    1.39    2.10   1
   3   1  27  449.86   21.21   1
   3   1  28    7.18    2.89   1
   3   1  29   17.98    3.22   1
   3   1  30  480.92   19.74   1
   3   1  31   15.52    2.99   1
   3   1  32    1.39    2.69   1
   3   1  34    3.69    3.38   1
   3   1  35    2.31    2.61   1
   3   1  36   38.44    4.59   1
   3   1  37   24.90    3.69   1
   3   1  38    4.00    2.00   1
   3   1  39   24.01    4.70   1
   3   1  40    9.61    3.72   1
   3   1  45   -1.21    3.01   1
   3   2  13    3.31    1.42   1
   3   2  14   13.69    2.00   1
   3   2  15   95.65    5.28   1
   3   2  16    2.40    1.39   1
   3   2  17    8.01    1.41   1
   3   2  18   71.06    4.38   1
   3   2  19    5.02    1.70   1
   3   2  20   48.86    4.19   1
   3   2  21   17.89    2.28   1
   3   2  22    3.20    2.00   1
   3   2  23    6.92    2.31   1
   3   2  24  334.16   14.99   1
   3   2  25    3.50    2.09   1
   3   2  26    8.53    2.39   1
   3   2  27   -1.90    2.29   1
   3   2  29   13.91    2.83   1
   3   2  30  133.86    7.64   1
   3   2  31    5.81    3.08   1
   3   2  32    3.31    2.40   1
   3   2  33  117.29    7.58   1
   3   2  34   30.58    4.09   1
   3   2  35    6.20    2.29   1
   3   2  36   36.24    4.58   1
   3   2  37    1.10    3.00   1
   3   2  38    0.71    2.50   1
   3   2  39   51.55    5.74   1
   3   3  15   55.20    3.57   1
   3   3  16    7.08    1.70   1
   3   3  17    7.29    1.67   1
   3   3  18  301.02   13.53   1
   3   3  19    2.19    1.81   1
   3   3  20   20.16    2.51   1
   3   3  21   54.61    3.84   1
   3   3  22    2.40    2.11   1
   3   3  23    4.58    1.41   1
   3   3  24    1.49    1.68   1
   3   3  25    7.18    1.82   1
   3   3  26    8.29    2.42   1
   3   3  27   29.48    3.26   1
   3   3  28    2.59    1.80   1
   3   3  29    1.49    2.39   1
   3   3  30   11.83    3.10   1
   3   3  31   11.63    2.80   1
   3   3  32    1.69    3.09   1
   3   3  33  144.72    7.70   1
   3   3  34   -2.19    2.69   1
   3   3  36   14.06    3.38   1
   3   3  37   26.63    4.33   1
   3   3  38   -2.99    3.81   1
   3   3  39    5.62    3.70   1
   3   3  40   -1.90    2.59   1
   3   3  41   22.75    5.06   1
   3   3  44    2.50    4.58   1
   3   3  45   64.96    8.87   1
   3   3  46    5.71    5.40   1
   3   4  16   14.52    2.13   1
   3   4  17    2.59    1.71   1
   3   4  18   -1.99    1.38   1
   3   4  19   15.92    2.71   1
   3   4  20    2.59    2.09   1
   3   4  21    3.31    2.00   1
   3   4  22   -0.20    1.91   1
   3   4  23   19.98    2.86   1
   3   4  24   81.00    5.04   1
   3   4  25   10.11    2.42   1
   3   4  26   13.40    2.64   1
   3   4  27    0.71    2.60   1
   3   4  28    0.79    2.30   1
   3   4  29    6.50    2.91   1
   3   4  30  157.50    8.28   1
   3   4  31   16.32    3.47   1
   3   4  32    2.89    2.99   1
   3   4  33   20.34    4.33   1
   3   4  34    3.69    3.00   1
   3   4  35   30.03    4.93   1
   3   4  36    1.00    2.80   1
   3   4  37    0.79    3.58   1
   3   4  38   27.77    4.85   1
   3   4  39  311.17   17.64   1
   3   4  40   -0.50    3.41   1
   3   4  41    0.00    1.00   1
   3   4  42    6.60    6.78   1
   3   4  43   29.05    5.93   1
   3   4  44    3.39    3.68   1
   3   4  45    8.58    5.68   1
   3   5   7    8.82    1.13   1
   3   5   8  149.33    6.60   1
   3   5   9  219.63    9.48   1
   3   5  10   43.16    2.37   1
   3   5  11   17.39    1.17   1
   3   5  18   31.36    3.14   1
   3   5  19    2.79    2.10   1
   3   5  20   -0.59    1.89   1
   3   5  21   24.40    3.26   1
   3   5  22   -1.69    1.90   1
   3   5  23    2.19    2.31   1
   3   5  24   40.70    3.45   1
   3   5  25    5.20    2.19   1
   3   5  26   21.81    3.74   1
   3   5  27   95.45    6.25   1
   3   5  28    8.82    2.91   1
   3   5  29    8.82    2.91   1
   3   5  30  167.18    8.79   1
   3   5  31   11.63    3.82   1
   3   5  32   16.56    3.42   1
   3   5  33   75.52    6.26   1
   3   5  34    4.71    3.39   1
   3   5  35   -4.00    2.40   1
   3   5  36  114.28    7.70   1
   3   5  37   15.52    4.02   1
   3   5  38    2.89    4.08   1
   3   5  39    7.08    4.20   1
   3   5  40    5.02    4.61   1
   3   5  41   19.80    5.07   1
   3   5  42  155.50   12.72   1
   3   5  43    5.38    3.80   1
   3   5  44   -5.38    5.48   1
   3   5  45   68.56    8.11   1
   3   6   6  566.44   25.23   1
   3   6   7   48.16    2.78   1
   3   6   8   46.10    2.17   1
   3   6   9   31.14    1.90   1
   3   6  10    3.20    0.79   1
   3   6  19   -0.30    2.01   1
   3   6  20   31.92    3.28   1
   3   6  21    5.38    2.09   1
   3   6  22    1.90    2.21   1
   3   6  23    2.10    2.49   1
   3   6  24  113.00    6.38   1
   3   6  25    8.82    2.08   1
   3   6  26    0.71    2.60   1
   3   6  27    3.88    2.60   1
   3   6  28   30.36    4.19   1
   3   6  29   36.36    4.34   1
   3   6  30  137.36    8.44   1
   3   6  31   27.25    4.70   1
   3   6  32   -1.00    3.30   1
   3   6  33   13.10    3.98   1
   3   6  34   -3.88    3.07   1
   3   6  35   43.96    5.44   1
   3   6  36   99.00    8.95   1
   3   6  37    1.21    4.31   1
   3   6  38   -1.80    4.10   1
   3   6  39    2.59    4.80   1
   3   6  40    5.62    4.60   1
   3   6  41   16.56    5.29   1
   3   6  42   33.06    5.98   1
   3   6  43    2.59    5.18   1
   3   6  44    4.49    6.49   1
   3   7  20   -3.10    2.01   1
   3   7  21    5.81    2.51   1
   3   7  22    4.80    2.50   1
   3   7  23    6.71    2.69   1
   3   7  24    6.92    2.79   1
   3   7  25    5.38    3.02   1
   3   7  26    0.10    2.84   1
   3   7  27   80.82    7.91   1
   3   7  28    2.40    3.01   1
   3   7  29   22.37    3.41   1
   3   7  30   16.32    4.12   1
   3   7  31   -0.10    2.02   1
   3   7  32   -2.79    3.51   1
   3   7  33    5.71    3.68   1
   3   7  34    2.40    3.60   1
   3   7  35   69.06    7.48   1
   3   7  36  131.79   10.56   1
   3   7  37   -6.71    3.99   1
   3   7  38   -4.80    4.20   1
   3   7  39    3.80    5.42   1
   3   7  40   13.03    5.41   1
   3   7  41  -11.63    5.39   1
   3   7  42   43.82    6.88   1
   3   7  43   -1.99    3.78   1
   3   8  21   11.09    2.80   1
   3   8  22    6.60    2.78   1
   3   8  23   18.92    3.04   1
   3   8  24   49.98    4.24   1
   3   8  25    1.80    3.19   1
   3   8  26    1.99    2.79   1
   3   8  27    9.12    3.20   1
   3   8  28    1.49    3.20   1
   3   8  29    9.67    3.61   1
   3   8  30   52.13    5.78   1
   3   8  31    2.59    3.28   1
   3   8  32   17.47    3.68   1
   3   8  33  128.14    8.60   1
   3   8  34   43.43    5.40   1
   3   8  35   -5.02    4.52   1
   3   8  36   -4.88    4.20   1
   3   8  37   -3.39    2.80   1
   3   8  38   13.91    6.42   1
   3   8  39   77.62    8.46   1
   3   8  40   -1.69    5.38   1
   3   8  41   14.98    6.42   1
   3   9  21   39.82    4.54   1
   3   9  22   13.18    3.41   1
   3   9  23    7.51    3.29   1
   3   9  24    0.30    3.01   1
   3   9  25   -0.90    3.10   1
   3   9  26   21.62    4.37   1
   3   9  27   65.12    7.10   1
   3   9  28   22.09    4.61   1
   3   9  29   17.14    4.39   1
   3   9  30   11.70    4.79   1
   3   9  31   13.62    4.58   1
   3   9  32   28.94    5.70   1
   3   9  33   78.15    7.25   1
   3   9  34    1.39    4.48   1
   3   9  35    7.29    4.48   1
   3   9  36    5.81    4.72   1
   3   9  37    6.30    5.82   1
   3   9  38    7.18    5.47   1
   3   9  39   -4.41    5.80   1
   3  10  22    0.71    3.01   1
   3  10  23   51.70    5.75   1
   3  10  24   22.28    5.48   1
   3  10  25   16.97    4.04   1
   3  10  26    7.90    3.82   1
   3  10  27   -0.59    2.88   1
   3  10  28    2.19    4.00   1
   3  10  29    6.10    3.80   1
   3  10  30   42.51    5.74   1
   3  10  31   -0.79    4.49   1
   3  10  32   -0.71    4.72   1
   3  10  33   42.51    6.26   1
   3  10  34   -0.50    5.03   1
   3  10  35    3.20    5.51   1
   3  10  36   -1.39    5.19   1
   3  11  22   -2.40    3.32   1
   3  11  23   -3.61    3.72   1
   3  11  24   42.64    5.88   1
   3  11  25   -4.08    4.20   1
   3  11  26   -3.69    3.80   1
   3  11  27   33.99    6.06   1
   3  11  28    0.50    4.42   1
   3  11  29    5.20    5.02   1
   3  11  30   -2.31    4.62   1
   3  11  31   -0.59    4.37   1
   3  11  32    8.88    5.42   1
   3  12  21   12.18    4.33   1
   3  12  22   -4.80    3.59   1
   3  12  23   -0.20    4.02   1
   3  12  24   14.36    4.62   1
   4 -11 -29   -0.40    3.49   1
   4 -11 -28    1.69    3.98   1
   4 -11 -25    1.49    5.27   1
   4 -11 -24   19.71    5.59   1
   4 -11 -23    4.08    4.69   1
   4 -11 -21    2.89    4.39   1
   4 -11 -19    9.18    4.67   1
   4 -10 -36    5.02    3.99   1
   4 -10 -35   -8.18    5.78   1
   4 -10 -34    6.40    5.11   1
   4 -10 -33    5.62    5.69   1
   4 -10 -32    6.10    5.19   1
   4 -10 -31   -1.99    4.88   1
   4 -10 -30    4.58    5.01   1
   4 -10 -29    2.10    3.10   1
   4 -10 -28    3.69    3.38   1
   4 -10 -27   12.39    4.01   1
   4 -10 -26    7.67    4.71   1
   4 -10 -25   26.73    5.17   1
   4 -10 -24   24.01    5.39   1
   4 -10 -23   -2.40    4.71   1
   4 -10 -22    1.10    4.30   1
   4 -10 -21   20.52    4.62   1
   4 -10 -20   14.36    4.17   1
   4 -10 -19   28.30    5.43   1
   4 -10 -18   71.57    6.77   1
   4 -10 -17   21.62    4.18   1
   4 -10 -16    3.80    3.71   1
   4 -10 -15    2.89    3.91   1
   4 -10 -14    4.08    3.27   1
   4 -10 -13    1.99    2.79   1
   4 -10 -12   -3.39    3.09   1
   4 -10 -11    0.50    2.81   1
   4 -10 -10   12.67    3.49   1
   4 -10  -9   75.34    7.99   1
   4 -10  -8   12.67    3.28   1
   4 -10  -7    4.08    3.39   1
   4 -10  -6   57.00    7.55   1
   4 -10  -5    0.20    2.72   1
   4  -9 -39   12.11    6.12   1
   4  -9 -38    4.88    3.98   1
   4  -9 -37    5.62    6.02   1
   4  -9 -36   -0.50    5.42   1
   4  -9 -35   11.70    6.02   1
   4  -9 -34   -6.40    4.50   1
   4  -9 -33   -1.69    5.28   1
   4  -9 -32    4.71    4.99   1
   4  -9 -31    2.79    4.58   1
   4  -9 -30    7.29    4.70   1
   4  -9 -29   -4.00    4.48   1
   4  -9 -28    0.90    4.31   1
   4  -9 -27    7.62    3.92   1
   4  -9 -26   18.66    4.32   1
   4  -9 -25   23.72    4.87   1
   4  -9 -24    1.90    2.82   1
   4  -9 -23    5.02    4.39   1
   4  -9 -22    2.10    3.92   1
   4  -9 -21   58.52    6.27   1
   4  -9 -20   -3.61    3.42   1
   4  -9 -17    1.21    2.11   1
   4  -9 -16  124.99    7.60   1
   4  -9 -15  103.02    7.10   1
   4  -9 -14   82.63    6.36   1
   4  -9 -13    0.71    2.70   1
   4  -9 -12    0.71    3.11   1
   4  -9 -11    6.10    2.91   1
   4  -9 -10    1.00    2.30   1
   4  -9  -9   -0.20    2.52   1
   4  -9  -8    0.50    2.61   1
   4  -9  -7    2.59    2.61   1
   4  -9  -6   27.56    3.67   1
   4  -9  -5   -1.99    2.28   1
   4  -9  -4    1.21    2.31   1
   4  -9  -3  317.91   17.47   1
   4  -9  -2    0.71    2.40   1
   4  -9  -1    6.10    2.42   1
   4  -9   0    0.71    2.02   1
   4  -9   1   -2.10    2.00   1
   4  -9   2    8.41    2.38   1
   4  -9  25    0.20    2.92   1
   4  -9  26   -3.80    3.20   1
   4  -9  27    5.81    3.33   1
   4  -9  28    0.50    3.11   1
   4  -9  29    5.62    3.60   1
   4  -9  30    0.79    3.49   1
   4  -9  31    0.50    3.62   1
   4  -9  32   -1.49    4.17   1
   4  -9  33   86.86    7.83   1
   4  -9  34    8.29    4.32   1
   4  -9  35    1.69    4.58   1
   4  -9  36    2.79    4.68   1
   4  -9  37    8.01    4.30   1
   4  -8 -41    2.50    4.58   1
   4  -8 -40    0.00    1.00   1
   4  -8 -39    3.31    6.30   1
   4  -8 -38    3.10    5.10   1
   4  -8 -37   26.42    4.32   1
   4  -8 -36    8.82    5.29   1
   4  -8 -35    3.20    4.69   1
   4  -8 -34    4.20    4.71   1
   4  -8 -33   57.76    7.90   1
   4  -8 -32    3.88    4.37   1
   4  -8 -31    2.89    3.91   1
   4  -8 -30   19.98    4.29   1
   4  -8 -29   14.67    3.91   1
   4  -8 -28    3.50    3.59   1
   4  -8 -27  146.65    9.93   1
   4  -8 -26    1.59    3.28   1
   4  -8 -25   31.36    5.04   1
   4  -8 -24   -0.30    3.01   1
   4  -8 -23   10.37    3.48   1
   4  -8 -22   19.10    3.32   1
   4  -8 -21    3.88    2.40   1
   4  -8 -20    2.59    2.70   1
   4  -8 -19    9.99    2.97   1
   4  -8 -18  118.37    9.79   1
   4  -8 -17   22.37    3.69   1
   4  -8 -16    1.30    2.10   1
   4  -8 -15   66.75    5.39   1
   4  -8 -14    4.28    2.61   1
   4  -8 -13   24.80    3.59   1
   4  -8 -12   26.21    3.28   1
   4  -8 -11   25.60    2.93   1
   4  -8 -10   50.13    5.24   1
   4  -8  -9   35.40    3.69   1
   4  -8  -8   19.89    2.94   1
   4  -8  -7    1.10    1.51   1
   4  -8  -6   -0.71    1.92   1
   4  -8  -5   25.40    3.53   1
   4  -8  -4   15.68    2.61   1
   4  -8  -3    1.21    2.11   1
   4  -8  -2    5.29    1.98   1
   4  -8  -1    7.51    2.19   1
   4  -8   0   22.66    2.86   1
   4  -8   1    6.00    2.30   1
   4  -8   2   -0.79    1.89   1
   4  -8   3   63.36    5.57   1
   4  -8   4   29.38    3.25   1
   4  -8   5    9.49    2.28   1
   4  -8   6    1.30    1.89   1
   4  -8   7    1.30    2.01   1
   4  -8  15   14.29    2.42   1
   4  -8  16    7.29    2.21   1
   4  -8  17    7.51    2.19   1
   4  -8  18    1.39    1.70   1
   4  -8  19    1.21    2.11   1
   4  -8  20   -0.40    2.19   1
   4  -8  22    8.01    2.72   1
   4  -8  23   51.41    4.73   1
   4  -8  24   29.05    4.64   1
   4  -8  25   19.80    3.38   1
   4  -8  26   49.70    5.22   1
   4  -8  28   28.73    4.07   1
   4  -8  29    0.59    3.37   1
   4  -8  30    1.49    3.68   1
   4  -8  31    8.70    3.72   1
   4  -8  33   26.42    5.96   1
   4  -8  34    4.20    4.51   1
   4  -8  35   59.60    6.64   1
   4  -8  36   44.22    6.12   1
   4  -8  37    5.90    4.81   1
   4  -8  39   11.97    5.26   1
   4  -8  40    1.39    5.19   1
   4  -7 -43    5.52    5.92   1
   4  -7 -42    9.30    5.98   1
   4  -7 -41   -0.50    5.32   1
   4  -7 -40   13.18    6.82   1
   4  -7 -39    0.90    3.71   1
   4  -7 -38    4.88    5.48   1
   4  -7 -37    9.42    5.22   1
   4  -7 -36    4.49    4.49   1
   4  -7 -35    5.81    3.62   1
   4  -7 -34   14.36    4.47   1
   4  -7 -33    1.39    4.18   1
   4  -7 -32    4.41    4.20   1
   4  -7 -31   -0.30    2.82   1
   4  -7 -30  150.06    9.80   1
   4  -7 -29   11.22    3.68   1
   4  -7 -28   27.04    4.68   1
   4  -7 -27   20.98    3.11   1
   4  -7 -26    9.80    3.51   1
   4  -7 -25    1.21    2.00   1
   4  -7 -24   41.86    4.66   1
   4  -7 -23    2.69    2.69   1
   4  -7 -22   36.84    4.25   1
   4  -7 -21  179.02   10.44   1
   4  -7 -20   11.63    3.14   1
   4  -7 -19    1.00    2.60   1
   4  -7 -18   -3.10    2.50   1
   4  -7 -17   10.18    2.11   1
   4  -7 -16   13.10    2.68   1
   4  -7 -15   20.98    3.21   1
   4  -7 -14    0.90    2.11   1
   4  -7 -13   21.53    2.78   1
   4  -7 -12   38.81    3.86   1
   4  -7 -11   20.79    2.74   1
   4  -7 -10   23.62    3.01   1
   4  -7  -9   22.47    2.65   1
   4  -7  -8   23.62    2.62   1
   4  -7  -7    2.10    1.71   1
   4  -7  -6   86.30    5.02   1
   4  -7  -5    5.11    1.72   1
   4  -7  -4    1.69    1.69   1
   4  -7  -3    9.67    2.30   1
   4  -7  -2   -1.00    1.60   1
   4  -7  -1   14.98    2.09   1
   4  -7   0    3.10    1.69   1
   4  -7   1   23.62    2.33   1
   4  -7   2   33.99    2.80   1
   4  -7   3  264.06   12.35   1
   4  -7   4   15.76    2.22   1
   4  -7   5   62.57    4.43   1
   4  -7   6  147.38    8.26   1
   4  -7   7   54.02    3.53   1
   4  -7   8    5.90    1.80   1
   4  -7   9   28.09    2.65   1
   4  -7  10    0.40    1.30   1
   4  -7  10   -1.00    1.70   1
   4  -7  11   29.92    3.06   1
   4  -7  11   44.89    2.95   1
   4  -7  12    7.08    2.02   1
   4  -7  12    8.12    1.71   1
   4  -7  13   -1.00    1.30   1
   4  -7  14   10.63    2.09   1
   4  -7  16   63.36    3.66   1
   4  -7  17   38.81    3.24   1
   4  -7  19    7.51    2.30   1
   4  -7  20    5.02    2.28   1
   4  -7  21   55.95    5.68   1
   4  -7  22   -0.90    1.99   1
   4  -7  23    6.50    2.91   1
   4  -7  24   71.23    5.23   1
   4  -7  25    0.40    2.78   1
   4  -7  26    7.78    3.18   1
   4  -7  27  223.80   11.07   1
   4  -7  28    3.69    3.30   1
   4  -7  29   19.89    3.39   1
   4  -7  30   91.39    6.50   1
   4  -7  31   -0.40    3.29   1
   4  -7  32    5.20    3.60   1
   4  -7  33   21.81    4.02   1
   4  -7  34    9.12    4.23   1
   4  -7  35  107.54    7.47   1
   4  -7  36   11.42    3.72   1
   4  -7  37    9.49    4.31   1
   4  -7  38    5.11    5.42   1
   4  -7  39   16.48    5.03   1
   4  -7  40    6.92    3.68   1
   4  -7  41   17.89    6.01   1
   4  -7  42   22.75    6.39   1
   4  -6 -45   -2.10    5.51   1
   4  -6 -44    0.79    6.18   1
   4  -6 -43    6.20    5.38   1
   4  -6 -42   34.81    6.49   1
   4  -6 -41    1.39    5.59   1
   4  -6 -40   43.43    7.12   1
   4  -6 -39   11.63    4.91   1
   4  -6 -38   20.98    5.13   1
   4  -6 -37   42.51    6.52   1
   4  -6 -36  110.88    9.90   1
   4  -6 -35   -1.49    2.78   1
   4  -6 -34   -0.40    3.88   1
   4  -6 -33   -1.90    3.70   1
   4  -6 -31    6.81    3.60   1
   4  -6 -30   30.03    4.82   1
   4  -6 -29   10.63    4.11   1
   4  -6 -28    2.79    3.01   1
   4  -6 -27   25.20    4.22   1
   4  -6 -26   12.82    3.72   1
   4  -6 -25   20.52    3.71   1
   4  -6 -24  400.40   19.21   1
   4  -6 -23   49.56    5.35   1
   4  -6 -22   75.17    5.72   1
   4  -6 -21   19.36    2.99   1
   4  -6 -20   28.62    3.53   1
   4  -6 -19   13.40    2.78   1
   4  -6 -18  160.28    9.37   1
   4  -6 -17    1.10    2.10   1
   4  -6 -16    4.28    1.78   1
   4  -6 -15  164.61    8.98   1
   4  -6 -14   17.39    3.17   1
   4  -6 -13   -0.30    1.51   1
   4  -6 -12   24.21    3.15   1
   4  -6 -11   -1.21    1.72   1
   4  -6 -10   16.32    2.26   1
   4  -6  -9    6.20    1.69   1
   4  -6  -8    1.10    1.41   1
   4  -6  -7   19.80    2.31   1
   4  -6  -6   25.40    2.62   1
   4  -6  -5   19.80    2.22   1
   4  -6  -4    9.18    1.70   1
   4  -6  -3   19.54    2.30   1
   4  -6  -2   -0.59    1.19   1
   4  -6  -1   48.30    3.34   1
   4  -6   0  287.98   12.56   1
   4  -6   1   32.83    2.75   1
   4  -6   2  124.10    5.79   1
   4  -6   3   -1.59    1.29   1
   4  -6   4   12.60    1.99   1
   4  -6   5    8.29    1.50   1
   4  -6   6  589.03   23.78   1
   4  -6   7   29.92    2.19   1
   4  -6   8   30.58    2.21   1
   4  -6   8   21.34    2.40   1
   4  -6   9    8.01    1.19   1
   4  -6   9    5.02    1.88   1
   4  -6  10   28.30    2.13   1
   4  -6  10   23.52    2.42   1
   4  -6  11    1.21    1.10   1
   4  -6  11    0.30    1.31   1
   4  -6  12   98.41    4.36   1
   4  -6  12   83.72    4.76   1
   4  -6  13   27.04    2.81   1
   4  -6  13   21.81    2.52   1
   4  -6  14    1.90    1.49   1
   4  -6  14   -0.30    1.41   1
   4  -6  15   82.81    5.82   1
   4  -6  15  118.59    5.66   1
   4  -6  16    0.30    1.51   1
   4  -6  17   43.82    3.71   1
   4  -6  19   33.06    3.45   1
   4  -6  20   16.08    2.81   1
   4  -6  21   32.15    3.29   1
   4  -6  22    6.60    2.52   1
   4  -6  23    2.19    2.31   1
   4  -6  24    7.78    2.18   1
   4  -6  25    0.10    1.62   1
   4  -6  26    3.39    1.99   1
   4  -6  27    9.18    2.91   1
   4  -6  28   27.46   11.11   1
   4  -6  30    3.50    3.22   1
   4  -6  31    0.20    1.91   1
   4  -6  32   13.62    3.84   1
   4  -6  33    8.88    3.28   1
   4  -6  34    3.61    2.89   1
   4  -6  35    2.59    3.80   1
   4  -6  39    8.18    4.92   1
   4  -6  40   17.89    3.81   1
   4  -6  41   50.84    7.56   1
   4  -6  42   85.75    8.33   1
   4  -6  43   -1.39    4.98   1
   4  -5 -46   22.09    5.08   1
   4  -5 -45   -2.79    5.38   1
   4  -5 -44   29.38    5.96   1
   4  -5 -43   -1.30    4.90   1
   4  -5 -42   20.70    4.28   1
   4  -5 -41   -7.08    4.68   1
   4  -5 -40   24.40    5.53   1
   4  -5 -39   30.47    5.85   1
   4  -5 -38    7.08    4.47   1
   4  -5 -37    4.80    4.29   1
   4  -5 -36   58.22    7.17   1
   4  -5 -35    5.11    4.02   1
   4  -5 -34   -2.50    3.41   1
   4  -5 -33   42.12    5.45   1
   4  -5 -32   -2.50    2.40   1
   4  -5 -31   42.38    4.95   1
   4  -5 -30   49.70    4.65   1
   4  -5 -29    3.39    3.20   1
   4  -5 -28    3.31    2.11   1
   4  -5 -28    4.41    3.02   1
   4  -5 -27   53.88    4.84   1
   4  -5 -27   62.41    4.42   1
   4  -5 -26   18.58    3.79   1
   4  -5 -25   68.06    8.25   1
   4  -5 -24  113.85   10.88   1
   4  -5 -23   14.36    3.11   1
   4  -5 -22   33.18    3.46   1
   4  -5 -20   56.55    4.96   1
   4  -5 -19   38.44    3.60   1
   4  -5 -18  133.17    7.62   1
   4  -5 -17    7.51    2.08   1
   4  -5 -16    3.88    1.81   1
   4  -5 -15    4.49    1.78   1
   4  -5 -14    0.79    1.69   1
   4  -5 -13   10.82    1.71   1
   4  -5 -12   79.03    6.05   1
   4  -5 -11   12.32    2.32   1
   4  -5 -10   -1.00    1.40   1
   4  -5  -9    1.30    1.39   1
   4  -5  -8    1.30    1.71   1
   4  -5  -7   19.10    2.10   1
   4  -5  -6   20.43    2.26   1
   4  -5  -3  122.10    6.85   1
   4  -5  -2    6.10    1.88   1
   4  -5  -1   39.06    2.75   1
   4  -5   0  235.93   10.75   1
   4  -5   1   17.98    1.87   1
   4  -5   2  655.36   23.55   1
   4  -5   3  546.62   20.11   1
   4  -5   4  154.75    5.97   1
   4  -5   5   77.26    3.34   1
   4  -5   6 1186.80   53.74   1
   4  -5   7   -0.10    1.01   1
   4  -5   7    1.10    1.01   1
   4  -5   8   13.03    1.30   1
   4  -5   8    7.08    1.70   1
   4  -5   9   38.81    2.74   1
   4  -5   9   30.58    2.43   1
   4  -5  10   -0.50    1.11   1
   4  -5  10    2.50    1.01   1
   4  -5  11    4.08    1.09   1
   4  -5  11    2.19    1.39   1
   4  -5  12  370.18   16.55   1
   4  -5  12  481.80   19.32   1
   4  -5  13   49.70    3.24   1
   4  -5  13   72.25    4.25   1
   4  -5  14    0.00    1.00   1
   4  -5  14    2.10    1.80   1
   4  -5  15   -0.50    1.31   1
   4  -5  15   -0.40    1.59   1
   4  -5  16    3.61    1.60   1
   4  -5  16    4.20    1.60   1
   4  -5  17    2.50    1.61   1
   4  -5  18    0.20    1.61   1
   4  -5  18    0.79    1.39   1
   4  -5  19    1.49    1.68   1
   4  -5  20    1.30    1.60   1
   4  -5  21  186.87   10.39   1
   4  -5  22    4.80    2.41   1
   4  -5  23    1.30    2.19   1
   4  -5  28    5.20    1.78   1
   4  -5  29    7.90    2.81   1
   4  -5  30    6.30    2.41   1
   4  -5  31    8.01    3.28   1
   4  -5  32   -0.79    2.08   1
   4  -5  33    0.40    2.89   1
   4  -5  36   42.38    6.51   1
   4  -5  37    1.69    2.78   1
   4  -5  38   48.02    6.24   1
   4  -5  39   60.37    5.91   1
   4  -5  42   43.56    6.73   1
   4  -5  43   14.36    5.46   1
   4  -5  44   10.63    4.43   1
   4  -4 -47    5.81    6.31   1
   4  -4 -46   10.63    4.63   1
   4  -4 -45   29.70    6.65   1
   4  -4 -44    4.80    5.39   1
   4  -4 -41    0.71    3.41   1
   4  -4 -36   13.10    3.40   1
   4  -4 -34   15.76    4.29   1
   4  -4 -33  216.38   17.95   1
   4  -4 -31   43.82    5.03   1
   4  -4 -30    1.59    3.10   1
   4  -4 -29  100.80    6.63   1
   4  -4 -29   92.54    5.96   1
   4  -4 -28   11.42    2.10   1
   4  -4 -28    7.18    2.79   1
   4  -4 -27  157.50   11.80   1
   4  -4 -27  194.32   13.10   1
   4  -4 -26    2.40    1.49   1
   4  -4 -26    1.00    2.20   1
   4  -4 -25    2.59    1.61   1
   4  -4 -25    6.40    2.13   1
   4  -4 -24   38.56    3.73   1
   4  -4 -24   39.06    3.25   1
   4  -4 -23    4.41    2.31   1
   4  -4 -22    1.10    2.10   1
   4  -4 -21   28.41    2.88   1
   4  -4 -20    1.30    1.80   1
   4  -4 -19   65.12    5.00   1
   4  -4 -18  202.49   10.53   1
   4  -4 -17    9.61    2.29   1
   4  -4 -16    6.92    1.89   1
   4  -4 -15  160.78    7.61   1
   4  -4 -14    3.31    1.42   1
   4  -4 -13    4.08    1.49   1
   4  -4 -13    2.50    0.70   1
   4  -4 -12  169.78    9.12   1
   4  -4 -12  139.00    7.78   1
   4  -4 -11    1.90    0.50   1
   4  -4 -11   -1.39    1.30   1
   4  -4 -10   92.93    5.01   1
   4  -4  -9  164.35   12.31   1
   4  -4  -7  158.51    7.55   1
   4  -4  -6 1397.26   62.80   1
   4  -4  -5   50.55    2.70   1
   4  -4  -4   63.36    3.34   1
   4  -4  -3   14.21    1.43   1
   4  -4  -2    0.20    0.80   1
   4  -4  -1    6.92    1.10   1
   4  -4  -1    9.92    0.63   1
   4  -4   0   -0.59    1.00   1
   4  -4   1   48.02    2.49   1
   4  -4   2  196.56    8.41   1
   4  -4   3  200.79    8.79   1
   4  -4   4   24.60    1.79   1
   4  -4   4   34.81    1.89   1
   4  -4   5  319.34   12.87   1
   4  -4   6  143.76    5.76   1
   4  -4   6  107.33    5.59   1
   4  -4   7   11.63    1.30   1
   4  -4   7   16.00    1.60   1
   4  -4   8  242.42   10.59   1
   4  -4   8  319.69   12.16   1
   4  -4   9  401.20   16.83   1
   4  -4   9  475.24   21.80   1
   4  -4  10   47.33    3.16   1
   4  -4  10   40.20    2.54   1
   4  -4  11    0.90    1.10   1
   4  -4  11    2.40    0.99   1
   4  -4  12   35.16    2.49   1
   4  -4  12   29.48    2.50   1
   4  -4  13    5.20    1.32   1
   4  -4  14    4.58    1.41   1
   4  -4  14    4.71    1.22   1
   4  -4  15  389.67   16.19   1
   4  -4  16   -0.30    1.51   1
   4  -4  16    1.30    1.50   1
   4  -4  17    8.53    1.69   1
   4  -4  18   96.83    5.51   1
   4  -4  19    3.10    1.90   1
   4  -4  20   20.43    2.08   1
   4  -4  21   20.88    2.47   1
   4  -4  26   15.68    2.93   1
   4  -4  34    4.08    2.99   1
   4  -4  39   14.59    4.81   1
   4  -4  44    1.00    4.10   1
   4  -4  45   28.30    7.34   1
   4  -3 -48   10.37    5.02   1
   4  -3 -47   -5.52    5.31   1
   4  -3 -46   -3.10    3.70   1
   4  -3 -45   -1.10    5.31   1
   4  -3 -39   66.26    6.19   1
   4  -3 -38   -1.39    2.29   1
   4  -3 -35    6.40    2.18   1
   4  -3 -30   53.00    3.64   1
   4  -3 -30   60.68    4.36   1
   4  -3 -29    7.67    2.99   1
   4  -3 -29   11.02    2.52   1
   4  -3 -28   33.29    2.65   1
   4  -3 -28   24.70    3.68   1
   4  -3 -27   88.74    5.09   1
   4  -3 -27   89.11    4.72   1
   4  -3 -26    4.88    2.08   1
   4  -3 -26    3.10    1.69   1
   4  -3 -25   31.47    3.37   1
   4  -3 -25   30.25    3.19   1
   4  -3 -24    0.00    1.00   1
   4  -3 -23   26.01    2.65   1
   4  -3 -22   56.25    4.05   1
   4  -3 -21  830.02   39.76   1
   4  -3 -21  873.79   34.88   1
   4  -3 -20   17.98    2.29   1
   4  -3 -20   16.81    2.13   1
   4  -3 -19   79.74    6.25   1
   4  -3 -19   96.43    5.89   1
   4  -3 -18   22.75    2.38   1
   4  -3 -17   70.73    4.88   1
   4  -3 -16    4.80    1.62   1
   4  -3 -15   55.06    3.56   1
   4  -3 -14    6.10    1.48   1
   4  -3 -13   84.46    4.78   1
   4  -3 -12    1.99    0.79   1
   4  -3 -12    1.49    1.29   1
   4  -3 -11   96.04    5.88   1
   4  -3 -11  117.51    6.50   1
   4  -3 -10   -0.10    0.51   1
   4  -3 -10    1.39    1.09   1
   4  -3  -9   56.25    2.40   1
   4  -3  -9   47.06    2.88   1
   4  -3  -8   37.09    2.92   1
   4  -3  -7  323.28   12.59   1
   4  -3  -6  412.90   15.85   1
   4  -3  -5   48.58    1.95   1
   4  -3  -4    7.67    0.50   1
   4  -3  -4    9.80    0.63   1
   4  -3  -3  175.56    6.89   1
   4  -3  -3  141.85    7.15   1
   4  -3  -2    6.20    0.80   1
   4  -3  -2    8.88    0.72   1
   4  -3  -1   85.56    3.70   1
   4  -3  -1   69.22    3.66   1
   4  -3   0  744.74   29.47   1
   4  -3   1   15.52    1.10   1
   4  -3   1   15.68    1.19   1
   4  -3   2   -1.00    0.60   1
   4  -3   2   -0.30    0.61   1
   4  -3   3  159.26    6.81   1
   4  -3   4   17.31    1.16   1
   4  -3   4   13.03    1.23   1
   4  -3   5  370.95   16.56   1
   4  -3   6  544.29   25.20   1
   4  -3   6  694.32   28.46   1
   4  -3   7   23.91    1.47   1
   4  -3   7   38.94    2.25   1
   4  -3   8   33.64    1.97   1
   4  -3   9   15.52    1.34   1
   4  -3  10   15.68    1.19   1
   4  -3  11   12.32    1.19   1
   4  -3  12   12.89    1.29   1
   4  -3  14    1.59    0.91   1
   4  -3  15    0.30    0.90   1
   4  -3  16    2.10    1.31   1
   4  -3  19    0.10    1.11   1
   4  -3  19    1.21    1.61   1
   4  -3  20   -0.30    1.21   1
   4  -3  20   -0.20    1.01   1
   4  -3  21   69.56    4.67   1
   4  -3  21   87.05    4.29   1
   4  -3  39  210.25   15.66   1
   4  -3  40    2.69    3.08   1
   4  -3  41   -3.10    2.60   1
   4  -3  42   10.69    4.19   1
   4  -3  45   22.56    6.27   1
   4  -2 -48    2.79    6.78   1
   4  -2 -47   13.99    5.16   1
   4  -2 -44    0.10    4.96   1
   4  -2 -41   16.00    6.72   1
   4  -2 -30   56.25    4.05   1
   4  -2 -29   11.42    2.30   1
   4  -2 -28  115.78    8.39   1
   4  -2 -27  317.55   17.82   1
   4  -2 -26   16.40    2.43   1
   4  -2 -25    2.19    1.51   1
   4  -2 -24   23.43    2.32   1
   4  -2 -23   49.98    3.39   1
   4  -2 -23   43.69    4.10   1
   4  -2 -22   27.14    2.40   1
   4  -2 -21  103.84    5.09   1
   4  -2 -20    0.90    1.31   1
   4  -2 -20    3.50    1.61   1
   4  -2 -19  108.78    6.26   1
   4  -2 -19  106.50    5.99   1
   4  -2 -18  525.78   25.68   1
   4  -2 -18  501.31   26.87   1
   4  -2 -17    0.79    1.39   1
   4  -2 -17    1.10    1.41   1
   4  -2 -16    0.10    1.32   1
   4  -2 -16   -0.10    1.01   1
   4  -2 -15  114.70    7.28   1
   4  -2 -15  127.46    6.10   1
   4  -2 -14    1.00    1.20   1
   4  -2 -14    1.39    1.20   1
   4  -2 -13  108.58    5.63   1
   4  -2 -12   98.80    5.57   1
   4  -2 -11   -1.49    1.00   1
   4  -2 -10   26.11    1.94   1
   4  -2  -9  299.29   15.57   1
   4  -2  -8   12.32    1.12   1
   4  -2  -8   11.49    1.22   1
   4  -2  -7   24.30    1.68   1
   4  -2  -7   29.92    1.64   1
   4  -2  -6  784.56   25.77   1
   4  -2  -5   43.82    2.52   1
   4  -2  -4    6.00    0.98   1
   4  -2  -3  557.90   23.62   1
   4  -2  -2    8.70    0.83   1
   4  -2  -1    0.30    0.51   1
   4  -2   0  787.92   32.56   1
   4  -2   1   10.30    0.77   1
   4  -2   1   13.99    1.12   1
   4  -2   2   35.64    1.79   1
   4  -2   2   43.16    2.50   1
   4  -2   3   98.21    4.16   1
   4  -2   3   74.48    3.45   1
   4  -2   4   24.21    1.38   1
   4  -2   4   31.70    1.69   1
   4  -2   5   -0.20    0.70   1
   4  -2   5    1.10    0.50   1
   4  -2   6  384.55   14.12   1
   4  -2   7   11.90    1.31   1
   4  -2   7    9.12    0.79   1
   4  -2   8    7.08    1.12   1
   4  -2   8    8.41    0.70   1
   4  -2   9  211.41    9.89   1
   4  -2   9  207.94    8.94   1
   4  -2  10   14.29    1.13   1
   4  -2  10   13.76    1.48   1
   4  -2  11   21.62    1.77   1
   4  -2  11   20.52    1.54   1
   4  -2  12  190.44    8.28   1
   4  -2  12  186.60    9.02   1
   4  -2  13    2.99    0.80   1
   4  -2  13    4.28    1.41   1
   4  -2  14    5.90    1.02   1
   4  -2  14    5.71    1.39   1
   4  -2  15    7.90    1.57   1
   4  -2  18   95.45    5.28   1
   4  -2  19   -0.10    1.01   1
   4  -2  23    8.88    1.67   1
   4  -2  26    3.31    2.00   1
   4  -2  29    1.30    1.80   1
   4  -2  34   16.73    3.19   1
   4  -2  40   15.37    3.61   1
   4  -1 -49   -2.19    6.28   1
   4  -1 -48   24.80    6.57   1
   4  -1 -47    1.30    4.10   1
   4  -1 -43   35.88    5.15   1
   4  -1 -28   34.46    3.17   1
   4  -1 -27    5.11    1.81   1
   4  -1 -26   39.44    3.39   1
   4  -1 -25   69.06    4.65   1
   4  -1 -24  225.60   15.62   1
   4  -1 -23   -1.10    1.30   1
   4  -1 -22    8.82    1.72   1
   4  -1 -21  112.78    7.01   1
   4  -1 -20   64.00    5.12   1
   4  -1 -19   92.16    5.38   1
   4  -1 -18   12.18    1.81   1
   4  -1 -17    5.90    1.41   1
   4  -1 -16   34.22    2.81   1
   4  -1 -15   72.59    4.60   1
   4  -1 -14   33.64    3.02   1
   4  -1 -13   42.25    2.73   1
   4  -1 -12    6.00    1.42   1
   4  -1 -11   64.16    3.84   1
   4  -1 -10   18.32    1.80   1
   4  -1  -9   15.29    1.80   1
   4  -1  -8    1.10    1.09   1
   4  -1  -7    9.30    1.40   1
   4  -1  -6  257.28   11.55   1
   4  -1  -5   27.56    1.68   1
   4  -1  -4   -0.50    0.50   1
   4  -1  -2    8.18    0.69   1
   4  -1  -1   93.90    4.65   1
   4  -1   0  117.07    5.19   1
   4  -1   1    8.82    0.48   1
   4  -1   5  135.49    5.59   1
   4  -1   6  313.64   12.75   1
   4  -1   7   24.60    1.98   1
   4  -1   8   -0.10    0.91   1
   4  -1   8   -0.10    0.40   1
   4  -1   9  252.49    9.85   1
   4  -1   9  251.22   10.78   1
   4  -1  10   -0.10    0.91   1
   4  -1  10    1.90    0.69   1
   4  -1  11   12.18    1.12   1
   4  -1  11   13.99    1.57   1
   4  -1  12 1209.65   42.43   1
   4  -1  12 1178.55   43.94   1
   4  -1  13    1.10    0.90   1
   4  -1  13    0.40    0.89   1
   4  -1  14   -0.79    1.39   1
   4  -1  15  850.31   30.33   1
   4  -1  15  813.96   31.38   1
   4  -1  16   -0.50    0.91   1
   4  -1  16    1.90    1.41   1
   4  -1  17   11.29    1.88   1
   4  -1  17   11.90    1.73   1
   4  -1  18    1.10    1.20   1
   4  -1  19    0.79    1.00   1
   4  -1  19    2.10    1.10   1
   4  -1  20  102.01    6.06   1
   4  -1  21   -0.30    1.41   1
   4  -1  21    0.79    1.30   1
   4  -1  22    1.69    2.00   1
   4  -1  22    2.89    1.39   1
   4  -1  23   29.05    2.80   1
   4  -1  23   26.73    2.79   1
   4  -1  24  142.09    8.11   1
   4  -1  24  152.52    7.41   1
   4  -1  25   12.32    2.18   1
   4  -1  26    2.69    2.49   1
   4  -1  27  364.43   15.27   1
   4  -1  28   30.03    3.84   1
   4  -1  31   15.76    2.78   1
   4  -1  32   12.11    3.13   1
   4  -1  36   -1.00    2.10   1
   4  -1  39   -1.30    2.19   1
   4  -1  43    6.81    3.50   1
   4   0 -48    0.50    5.62   1
   4   0 -22  179.83    9.39   1
   4   0 -20   27.56    2.52   1
   4   0 -18    3.10    1.30   1
   4   0 -16  126.34    5.84   1
   4   0 -14    1.59    1.29   1
   4   0 -12 1738.06   82.55   1
   4   0 -10   17.98    2.04   1
   4   0  -6   14.29    1.59   1
   4   0  -4    4.80    1.10   1
   4   0  -2   20.70    1.91   1
   4   0   0 1027.20   43.59   1
   4   0   2   41.60    3.74   1
   4   0   4   70.90    3.87   1
   4   0   6 1723.91   56.47   1
   4   0   8   54.76    2.96   1
   4   0  10    2.10    0.90   1
   4   0  10    0.79    1.09   1
   4   0  12    1.30    0.80   1
   4   0  12    0.30    1.31   1
   4   0  14   22.47    1.71   1
   4   0  14   19.80    1.96   1
   4   0  16   30.14    2.64   1
   4   0  18    2.10    1.19   1
   4   0  18    2.10    1.51   1
   4   0  20   11.49    2.10   1
   4   0  22   50.84    3.14   1
   4   0  22   49.84    4.09   1
   4   0  24   25.50    3.13   1
   4   0  26   81.00    5.22   1
   4   0  30   53.44    4.53   1
   4   0  34    3.31    2.40   1
   4   0  36  195.44   12.58   1
   4   0  38   20.43    4.70   1
   4   0  46   28.09    5.62   1
   4   1 -17    3.88    1.38   1
   4   1 -16   28.73    2.25   1
   4   1 -13   37.70    2.70   1
   4   1  -6  277.89   12.34   1
   4   1   0  132.71    6.45   1
   4   1   1    9.92    1.20   1
   4   1   2    4.00    1.52   1
   4   1   3   43.56    2.64   1
   4   1   4   19.54    1.77   1
   4   1   7   21.34    1.66   1
   4   1   8    1.39    0.90   1
   4   1   9  262.12    8.10   1
   4   1  10    0.71    0.91   1
   4   1  11   16.97    1.81   1
   4   1  11   13.18    1.38   1
   4   1  12 1214.52   53.67   1
   4   1  13    0.71    1.41   1
   4   1  14    1.30    0.80   1
   4   1  14    3.50    1.38   1
   4   1  15  813.39   37.65   1
   4   1  15  812.82   30.79   1
   4   1  16    1.49    1.39   1
   4   1  18    0.30    1.51   1
   4   1  19    2.50    0.79   1
   4   1  19   -1.69    1.59   1
   4   1  20  116.42    6.47   1
   4   1  20  112.57    4.46   1
   4   1  21   -0.20    1.41   1
   4   1  21   -1.30    0.80   1
   4   1  22    2.89    1.90   1
   4   1  22    2.50    0.79   1
   4   1  23   39.44    3.64   1
   4   1  24  144.00    8.64   1
   4   1  25   15.29    2.89   1
   4   1  26    1.39    2.10   1
   4   1  27  370.18   15.39   1
   4   1  28   26.01    3.37   1
   4   1  29    1.30    2.60   1
   4   1  30   11.02    2.39   1
   4   1  31   14.67    3.52   1
   4   1  32   19.18    3.59   1
   4   1  33   14.98    3.56   1
   4   1  34   13.99    2.77   1
   4   1  35   18.40    3.69   1
   4   1  36    4.80    2.98   1
   4   1  37    2.69    2.39   1
   4   1  38   22.94    4.89   1
   4   2   0  905.41   22.27   1
   4   2   1   15.68    1.50   1
   4   2   2   40.83    2.56   1
   4   2   3   75.52    4.69   1
   4   2   4   29.16    2.05   1
   4   2   7   12.82    1.43   1
   4   2   8    9.80    1.13   1
   4   2   9  191.55    6.37   1
   4   2  10   10.63    1.17   1
   4   2  14    8.58    1.58   1
   4   2  15    5.11    1.90   1
   4   2  16    7.18    1.88   1
   4   2  17    7.40    1.80   1
   4   2  18   88.17    5.07   1
   4   2  19    0.40    1.20   1
   4   2  20   41.47    3.48   1
   4   2  21   29.59    3.05   1
   4   2  22    0.40    1.10   1
   4   2  23    7.51    2.41   1
   4   2  24   25.60    2.93   1
   4   2  25   61.15    4.85   1
   4   2  26    5.81    2.31   1
   4   2  27  293.09   14.72   1
   4   2  28   14.67    2.30   1
   4   2  29   -1.30    1.80   1
   4   2  30  149.08    9.28   1
   4   2  31   25.00    3.40   1
   4   2  32    5.62    2.80   1
   4   2  33   36.00    3.84   1
   4   2  34   20.88    3.66   1
   4   2  35   -4.28    2.98   1
   4   2  37    9.99    2.91   1
   4   2  38    1.69    3.59   1
   4   2  39   30.58    5.53   1
   4   2  40   24.01    3.63   1
   4   2  41   15.21    4.91   1
   4   2  44    5.81    4.63   1
   4   2  45    9.61    3.91   1
   4   2  46  -20.07    6.72   1
   4   3  16   -0.71    1.61   1
   4   3  17   17.89    2.37   1
   4   3  18   36.00    3.24   1
   4   3  19   -0.30    1.71   1
   4   3  20   -0.10    1.92   1
   4   3  21   66.91    4.74   1
   4   3  22    8.41    2.38   1
   4   3  23   28.09    2.97   1
   4   3  24   38.19    3.71   1
   4   3  25    9.42    2.33   1
   4   3  26   20.79    3.28   1
   4   3  27   10.30    3.02   1
   4   3  28   -0.30    2.71   1
   4   3  29  124.55    6.92   1
   4   3  30   48.58    5.44   1
   4   3  31    0.71    2.60   1
   4   3  32   -1.80    2.20   1
   4   3  33  139.00    8.02   1
   4   3  34    7.08    3.19   1
   4   3  35    1.30    3.01   1
   4   3  36    9.67    3.42   1
   4   3  37    5.29    3.91   1
   4   3  38    3.80    4.09   1
   4   3  39  225.00   14.40   1
   4   3  40    2.31    4.41   1
   4   3  41    0.71    3.91   1
   4   3  42   18.84    5.82   1
   4   3  43    8.18    3.89   1
   4   3  44    9.67    5.10   1
   4   4  17   19.27    2.37   1
   4   4  18  116.86    6.27   1
   4   4  19    5.81    2.22   1
   4   4  20   23.23    3.18   1
   4   4  21   20.16    2.87   1
   4   4  22    0.10    1.92   1
   4   4  23    1.21    1.50   1
   4   4  24  147.87    7.54   1
   4   4  25    7.02    2.49   1
   4   4  26   17.81    3.29   1
   4   4  27  203.06   10.55   1
   4   4  28    2.19    2.40   1
   4   4  29    5.71    3.20   1
   4   4  30    7.62    3.20   1
   4   4  31    4.58    3.21   1
   4   4  32    2.19    2.99   1
   4   4  33   68.72    5.80   1
   4   4  34   -4.28    3.11   1
   4   4  35    0.90    3.80   1
   4   4  36    6.71    3.63   1
   4   4  37   43.56    5.54   1
   4   4  38   20.16    4.76   1
   4   4  39   13.32    4.53   1
   4   4  40    9.99    3.48   1
   4   4  42   -2.89    4.28   1
   4   4  43   -1.30    4.61   1
   4   4  44   -1.39    4.08   1
   4   4  45   24.90    7.58   1
   4   5  19    1.10    1.30   1
   4   5  20   -0.10    1.52   1
   4   5  21  151.78    9.12   1
   4   5  22    2.99    2.28   1
   4   5  23    1.39    2.38   1
   4   5  24    1.21    2.20   1
   4   5  25    3.39    1.69   1
   4   5  26    2.10    2.41   1
   4   5  27   -1.59    1.89   1
   4   5  28    2.40    3.01   1
   4   5  29    6.10    2.91   1
   4   5  30    5.62    2.42   1
   4   5  31    6.00    3.18   1
   4   5  32    3.10    3.10   1
   4   5  33    2.79    2.91   1
   4   5  34   11.29    4.17   1
   4   5  35    7.02    2.92   1
   4   5  36   25.00    4.10   1
   4   5  37   -2.10    2.49   1
   4   5  39   40.45    5.85   1
   4   5  40   15.92    5.43   1
   4   5  41   12.53    4.81   1
   4   5  42   50.84    6.84   1
   4   5  43    5.81    5.49   1
   4   5  44    1.39    4.39   1
   4   6  20   13.32    2.77   1
   4   6  21   28.84    3.44   1
   4   6  22    0.30    2.21   1
   4   6  23   -0.40    1.69   1
   4   6  24    7.67    2.77   1
   4   6  25    3.61    2.51   1
   4   6  26   -0.50    2.00   1
   4   6  27    4.71    2.99   1
   4   6  28   -0.59    2.19   1
   4   6  29    0.40    2.89   1
   4   6  30    6.60    3.08   1
   4   6  31    3.31    2.11   1
   4   6  32    6.92    3.63   1
   4   6  33    4.88    4.11   1
   4   6  34    4.58    3.68   1
   4   6  35    4.20    4.59   1
   4   6  36   85.38    7.58   1
   4   6  38    2.40    3.41   1
   4   6  40   24.70    5.67   1
   4   6  41   41.09    7.18   1
   4   6  42  108.37   11.24   1
   4   6  43  -13.99    6.81   1
   4   7  21   60.84    4.68   1
   4   7  22    2.69    2.59   1
   4   7  23    5.20    2.78   1
   4   7  24   51.12    5.43   1
   4   7  25    1.21    3.32   1
   4   7  26    4.71    3.30   1
   4   7  27  222.61   11.64   1
   4   7  28    0.00    1.00   1
   4   7  29   18.84    3.91   1
   4   7  30   86.68    6.33   1
   4   7  31    6.10    3.70   1
   4   7  32   13.10    4.42   1
   4   7  33   28.73    5.36   1
   4   7  34    4.71    3.39   1
   4   7  35   94.87    8.96   1
   4   7  36   12.11    4.59   1
   4   7  37    6.92    4.89   1
   4   7  38    8.58    4.81   1
   4   7  40    0.59    5.27   1
   4   7  41    9.49    5.79   1
   4   8  22   13.40    3.29   1
   4   8  23   57.61    5.16   1
   4   8  24   26.73    4.45   1
   4   8  25   22.18    4.33   1
   4   8  26   36.00    5.52   1
   4   8  27  205.06   11.17   1
   4   8  28   22.66    4.00   1
   4   8  29    0.50    3.51   1
   4   8  30    3.50    4.11   1
   4   8  31   22.94    4.41   1
   4   8  32    5.02    4.39   1
   4   8  33   15.92    5.03   1
   4   8  34   11.97    5.12   1
   4   8  35   37.70    6.75   1
   4   8  36   36.84    6.07   1
   4   8  37    1.30    5.20   1
   4   8  38   -9.80    5.51   1
   4   8  39   19.27    5.53   1
   4   9  22   21.44    3.70   1
   4   9  23    3.61    3.00   1
   4   9  24    4.28    3.48   1
   4   9  25   -0.10    3.34   1
   4   9  26    6.81    3.91   1
   4   9  27    8.70    3.89   1
   4   9  28    0.79    3.68   1
   4   9  29   12.18    3.98   1
   4   9  30    5.71    4.21   1
   4   9  31    5.29    4.19   1
   4   9  32    0.71    4.42   1
   4   9  33   78.32    8.67   1
   4   9  34    3.80    4.60   1
   4   9  35    3.50    5.20   1
   4   9  36    0.00    1.00   1
   4   9  37   -1.49    5.59   1
   4  10  22   16.89    4.11   1
   4  10  23    4.58    3.98   1
   4  10  24   20.52    4.80   1
   4  10  25    7.62    3.31   1
   4  10  26   18.40    4.46   1
   4  10  27   34.93    6.74   1
   4  10  28   10.89    4.49   1
   4  10  29    8.01    4.41   1
   4  10  30    1.00    4.80   1
   4  10  31    5.52    5.03   1
   4  10  32    8.41    4.58   1
   4  10  33    4.28    4.18   1
   4  10  34   -4.08    5.78   1
   4  11  22    0.00    1.00   1
   4  11  23    1.80    3.89   1
   4  11  24   -0.40    4.08   1
   4  11  25    4.80    4.29   1
   4  11  26    0.10    4.56   1
   4  11  27    2.50    5.31   1
   4  11  28    4.58    4.49   1
   4  11  29   -6.81    4.59   1
   4  11  30   47.33    7.57   1
   4  11  31   -3.88    5.00   1
   4  12  22   -1.30    4.20   1
   4  12  23   -2.31    4.50   1
   4  12  24   -2.40    4.90   1
   4  12  25   -4.20    4.71   1
   4  12  26   -4.00    4.48   1
   4  12  27   -3.39    5.19   1
   5  -8 -35   12.89    3.37   1
   5  -8 -34    4.08    4.81   1
   5  -8 -33   -8.01    4.81   1
   5  -8 -32    2.50    4.39   1
   5  -8 -31   -3.10    4.79   1
   5  -8 -30   10.30    5.01   1
   5  -8 -29   -1.90    3.20   1
   5  -8 -28    0.59    3.97   1
   5  -8 -27   28.62    4.92   1
   5  -8 -26    4.00    4.08   1
   5  -8 -25    4.00    2.60   1
   5  -8 -24    1.69    2.89   1
   5  -8 -23   -1.39    3.59   1
   5  -8 -22   -0.90    3.00   1
   5  -8 -21    3.20    3.40   1
   5  -8 -20    0.79    1.99   1
   5  -8 -19    1.10    2.90   1
   5  -8 -18    6.60    3.39   1
   5  -8 -17   -1.80    2.89   1
   5  -8 -16   -1.90    2.70   1
   5  -8 -15  324.72   18.74   1
   5  -8 -14   33.41    4.05   1
   5  -8 -13    7.67    2.49   1
   5  -8 -12   57.46    4.85   1
   5  -8 -11   10.89    2.90   1
   5  -8 -10    5.38    2.60   1
   5  -8  25   -2.99    2.60   1
   5  -8  26   -0.10    3.44   1
   5  -8  27    2.99    3.39   1
   5  -8  28    2.19    3.11   1
   5  -8  29   11.09    3.20   1
   5  -8  30   16.00    4.08   1
   5  -8  31   -2.89    3.91   1
   5  -8  32    0.20    3.73   1
   5  -8  33   22.28    4.72   1
   5  -8  34   -0.79    3.99   1
   5  -8  35   21.16    4.60   1
   5  -8  36   20.34    3.70   1
   5  -8  37   10.69    4.97   1
   5  -8  38   16.16    4.98   1
   5  -7 -42    7.67    6.32   1
   5  -7 -41    8.18    4.69   1
   5  -7 -40   40.45    6.36   1
   5  -7 -38    7.29    5.40   1
   5  -7 -37    0.71    4.82   1
   5  -7 -36   18.32    6.16   1
   5  -7 -35    8.01    4.98   1
   5  -7 -34    6.81    4.91   1
   5  -7 -33   -0.20    4.23   1
   5  -7 -32    2.99    4.08   1
   5  -7 -31    2.89    4.08   1
   5  -7 -30    2.19    3.70   1
   5  -7 -29   20.16    4.40   1
   5  -7 -28  135.49    9.31   1
   5  -7 -27   20.16    3.95   1
   5  -7 -26   25.10    4.31   1
   5  -7 -25    4.80    3.29   1
   5  -7 -24   89.11    7.17   1
   5  -7 -23    4.88    3.09   1
   5  -7 -22   -1.00    2.90   1
   5  -7 -21   11.02    3.59   1
   5  -7 -20   -1.59    2.70   1
   5  -7 -19   27.14    3.44   1
   5  -7 -18  131.10    7.79   1
   5  -7 -17    7.51    2.52   1
   5  -7 -16   11.22    2.48   1
   5  -7 -15   32.95    2.98   1
   5  -7 -14    4.08    2.30   1
   5  -7 -13   41.09    4.36   1
   5  -7 -12   -0.59    2.09   1
   5  -7 -11   15.29    2.50   1
   5  -7 -10   51.84    4.03   1
   5  -7  -9   23.04    3.36   1
   5  -7  -8   -0.40    1.79   1
   5  -7  -7   -1.00    1.90   1
   5  -7  -6   51.12    4.43   1
   5  -7  -5    5.20    1.92   1
   5  -7  -4   12.18    2.09   1
   5  -7  -3    4.58    1.88   1
   5  -7  -2    4.71    2.21   1
   5  -7  -1   10.11    1.97   1
   5  -7  13    7.90    1.91   1
   5  -7  14    3.61    1.60   1
   5  -7  15  115.78    6.03   1
   5  -7  16   51.98    3.75   1
   5  -7  17    8.70    1.89   1
   5  -7  18    3.20    2.11   1
   5  -7  19   -1.30    2.10   1
   5  -7  20    5.90    2.92   1
   5  -7  21    6.81    2.40   1
   5  -7  22    1.30    2.69   1
   5  -7  23    3.31    2.62   1
   5  -7  24  169.00    8.32   1
   5  -7  25    9.80    3.13   1
   5  -7  26    3.69    2.69   1
   5  -7  27    3.69    3.11   1
   5  -7  28   11.63    3.48   1
   5  -7  29   -1.69    2.89   1
   5  -7  30   27.46    4.51   1
   5  -7  31    2.19    3.29   1
   5  -7  32    3.31    4.30   1
   5  -7  33    6.71    3.88   1
   5  -7  34    2.99    4.19   1
   5  -7  35   -1.80    4.40   1
   5  -7  36   69.06    7.15   1
   5  -7  37    0.90    4.60   1
   5  -7  38    3.61    5.02   1
   5  -7  39   17.81    5.32   1
   5  -7  40   -4.28    5.17   1
   5  -6 -43    3.80    6.01   1
   5  -6 -42   34.22    6.90   1
   5  -6 -41    6.92    5.89   1
   5  -6 -40    5.52    5.73   1
   5  -6 -39   33.76    6.27   1
   5  -6 -38    6.60    5.19   1
   5  -6 -37   -0.30    4.32   1
   5  -6 -36   11.83    3.78   1
   5  -6 -35   -3.61    4.60   1
   5  -6 -34   -1.00    4.50   1
   5  -6 -33   24.50    5.74   1
   5  -6 -32   20.16    4.31   1
   5  -6 -31   86.12    8.17   1
   5  -6 -30  256.32   15.69   1
   5  -6 -29   30.47    5.96   1
   5  -6 -28    1.59    3.48   1
   5  -6 -26   45.97    5.15   1
   5  -6 -25   26.52    3.50   1
   5  -6 -24   42.25    4.94   1
   5  -6 -23    4.08    2.99   1
   5  -6 -22   18.49    3.18   1
   5  -6 -21   25.81    3.35   1
   5  -6 -20   10.11    2.61   1
   5  -6 -18   19.62    3.19   1
   5  -6 -17   -0.59    1.99   1
   5  -6 -16    7.08    2.39   1
   5  -6 -15   19.89    2.77   1
   5  -6 -14    3.80    2.11   1
   5  -6 -13   16.73    2.62   1
   5  -6 -11   23.52    3.30   1
   5  -6 -10   51.70    3.74   1
   5  -6  -9    8.70    1.71   1
   5  -6  -8    7.51    1.81   1
   5  -6  -7    0.00    1.00   1
   5  -6  -6  112.57    7.00   1
   5  -6  -5    1.80    1.39   1
   5  -6  -4    5.71    1.63   1
   5  -6  -3   29.70    2.51   1
   5  -6  -2    0.59    1.39   1
   5  -6  -1    1.80    1.61   1
   5  -6   0   21.16    2.39   1
   5  -6   1    0.40    1.30   1
   5  -6   2    1.99    1.30   1
   5  -6   3    9.12    1.69   1
   5  -6   4    0.50    1.31   1
   5  -6   4    1.99    0.90   1
   5  -6   5    1.21    0.90   1
   5  -6   6  335.99   13.93   1
   5  -6   7   -0.71    1.21   1
   5  -6  10   29.48    3.15   1
   5  -6  12  114.06    5.77   1
   5  -6  13   -0.71    1.31   1
   5  -6  14    3.88    1.62   1
   5  -6  15   59.60    3.86   1
   5  -6  17   26.11    2.76   1
   5  -6  19    7.29    2.21   1
   5  -6  20    0.50    1.90   1
   5  -6  21   28.73    3.11   1
   5  -6  22    2.59    2.19   1
   5  -6  23   42.12    3.89   1
   5  -6  25    4.58    2.91   1
   5  -6  26   42.51    4.43   1
   5  -6  27   40.58    3.95   1
   5  -6  28   -2.19    2.90   1
   5  -6  29   14.06    2.40   1
   5  -6  31    6.10    3.41   1
   5  -6  34   44.49    4.94   1
   5  -6  35    0.90    4.10   1
   5  -6  36   43.82    5.96   1
   5  -6  37    2.99    3.81   1
   5  -6  38    4.28    5.01   1
   5  -6  39   25.40    4.84   1
   5  -6  40   12.32    4.77   1
   5  -6  41   -6.00    4.41   1
   5  -6  42   11.02    5.78   1
   5  -5 -45   16.32    6.22   1
   5  -5 -44   15.60    7.19   1
   5  -5 -43   -0.59    5.87   1
   5  -5 -42   19.27    6.41   1
   5  -5 -41   -5.02    3.49   1
   5  -5 -40    5.52    5.59   1
   5  -5 -39   -1.90    5.11   1
   5  -5 -38    0.50    4.71   1
   5  -5 -37   15.29    4.93   1
   5  -5 -36   25.70    5.68   1
   5  -5 -35    0.30    4.02   1
   5  -5 -34    8.01    3.28   1
   5  -5 -33   20.34    5.59   1
   5  -5 -32   20.34    4.87   1
   5  -5 -31   67.40    7.06   1
   5  -5 -30    1.00    3.50   1
   5  -5 -29   25.60    3.54   1
   5  -5 -29   27.77    3.79   1
   5  -5 -28   43.56    3.56   1
   5  -5 -28   33.52    3.59   1
   5  -5 -27  380.25   16.77   1
   5  -5 -27  314.71   17.74   1
   5  -5 -26    2.50    2.40   1
   5  -5 -26    2.69    2.59   1
   5  -5 -25  195.44   10.62   1
   5  -5 -23   43.16    3.94   1
   5  -5 -22    1.21    1.41   1
   5  -5 -21    9.99    2.72   1
   5  -5 -20   56.70    4.22   1
   5  -5 -19   -0.59    1.99   1
   5  -5 -18  247.75   11.65   1
   5  -5 -17    8.70    2.30   1
   5  -5 -16   19.80    2.49   1
   5  -5 -15  172.92    8.94   1
   5  -5 -14   26.73    3.41   1
   5  -5 -13   29.38    2.93   1
   5  -5 -12   11.42    2.30   1
   5  -5 -11    4.28    1.78   1
   5  -5 -10    0.30    1.51   1
   5  -5  -9   14.98    2.32   1
   5  -5  -8    4.71    1.52   1
   5  -5  -7   11.09    1.53   1
   5  -5  -6  326.89   13.38   1
   5  -5  -5    4.88    1.28   1
   5  -5  -4   -0.59    1.39   1
   5  -5  -3    9.92    1.89   1
   5  -5  -2    5.62    1.42   1
   5  -5  -1    0.40    1.40   1
   5  -5   0    0.00    1.00   1
   5  -5   1   -0.59    1.19   1
   5  -5   1    2.89    0.71   1
   5  -5   2    8.70    1.48   1
   5  -5   2   19.89    1.16   1
   5  -5   3    2.89    0.78   1
   5  -5   3    1.30    1.21   1
   5  -5   4    3.61    0.99   1
   5  -5   4    1.10    1.01   1
   5  -5   5   39.69    2.65   1
   5  -5   5   48.16    2.78   1
   5  -5   6   15.60    1.74   1
   5  -5   6   24.90    2.10   1
   5  -5   7    0.50    1.01   1
   5  -5   7    1.59    0.91   1
   5  -5   8   45.97    2.71   1
   5  -5   8   67.24    3.44   1
   5  -5   9  174.77    7.93   1
   5  -5  10   22.75    2.29   1
   5  -5  11    4.88    1.41   1
   5  -5  12   -1.39    1.39   1
   5  -5  13    2.40    1.49   1
   5  -5  14    1.90    1.49   1
   5  -5  15    0.90    1.50   1
   5  -5  16    5.90    1.80   1
   5  -5  17    2.31    1.79   1
   5  -5  18  361.00   17.86   1
   5  -5  19    8.58    2.29   1
   5  -5  22    2.69    2.10   1
   5  -5  23   51.12    4.43   1
   5  -5  24   11.90    2.90   1
   5  -5  25    9.18    2.73   1
   5  -5  30   40.58    4.46   1
   5  -5  33   38.32    4.83   1
   5  -5  36  169.52    9.90   1
   5  -5  37   10.50    4.41   1
   5  -5  40   28.73    5.57   1
   5  -5  41    1.49    5.08   1
   5  -5  42   10.69    5.69   1
   5  -5  43   -1.21    3.81   1
   5  -4 -46   -4.88    5.70   1
   5  -4 -45    6.00    5.68   1
   5  -4 -44   13.10    6.23   1
   5  -4 -43   10.82    4.21   1
   5  -4 -42   -1.21    4.42   1
   5  -4 -41   -0.90    4.50   1
   5  -4 -40   -1.69    3.09   1
   5  -4 -39   21.07    5.23   1
   5  -4 -38   -1.69    3.80   1
   5  -4 -37    5.02    3.99   1
   5  -4 -36   15.92    5.11   1
   5  -4 -35    1.21    3.41   1
   5  -4 -34    1.80    4.50   1
   5  -4 -33   59.44    6.63   1
   5  -4 -32    3.80    3.32   1
   5  -4 -31   44.22    5.05   1
   5  -4 -30   16.32    3.23   1
   5  -4 -30   22.94    3.83   1
   5  -4 -29   29.48    3.91   1
   5  -4 -29   28.20    3.29   1
   5  -4 -28    0.90    2.51   1
   5  -4 -28    6.81    2.92   1
   5  -4 -27   47.33    4.54   1
   5  -4 -27   51.12    4.86   1
   5  -4 -26   19.27    3.07   1
   5  -4 -26   19.62    2.84   1
   5  -4 -25  118.59    8.28   1
   5  -4 -25  138.53    7.30   1
   5  -4 -24  220.23   13.65   1
   5  -4 -24  201.36   10.78   1
   5  -4 -23   32.38    3.41   1
   5  -4 -23   21.62    3.81   1
   5  -4 -22   50.27    3.97   1
   5  -4 -22   39.94    3.29   1
   5  -4 -21  411.68   19.07   1
   5  -4 -20   52.13    4.48   1
   5  -4 -19    5.90    1.99   1
   5  -4 -18   89.68    5.49   1
   5  -4 -17    1.21    1.61   1
   5  -4 -16   34.46    3.05   1
   5  -4 -15  126.79    6.98   1
   5  -4 -14   11.83    2.27   1
   5  -4 -13    1.99    1.49   1
   5  -4 -12  125.22    6.49   1
   5  -4 -11    1.90    0.61   1
   5  -4 -11    1.00    1.40   1
   5  -4 -10    6.81    0.63   1
   5  -4 -10    5.81    1.40   1
   5  -4  -9    4.41    1.39   1
   5  -4  -8   17.31    2.41   1
   5  -4  -7   10.50    1.62   1
   5  -4  -6  703.84   40.33   1
   5  -4  -5   26.01    2.55   1
   5  -4  -4  209.67    8.69   1
   5  -4  -3  241.80    7.15   1
   5  -4  -1  178.22    6.41   1
   5  -4   0   56.85    2.41   1
   5  -4   1   72.76    3.58   1
   5  -4   2  166.93    8.01   1
   5  -4   3  303.46   14.28   1
   5  -4   4   11.29    1.28   1
   5  -4   4   14.59    1.53   1
   5  -4   5    0.71    0.91   1
   5  -4   5    2.10    0.90   1
   5  -4   6   19.62    1.59   1
   5  -4   6   24.60    1.98   1
   5  -4   7    5.90    1.12   1
   5  -4   7   11.49    1.49   1
   5  -4   8    1.49    0.90   1
   5  -4   8    1.99    1.18   1
   5  -4   9   78.85    3.91   1
   5  -4   9   98.21    4.76   1
   5  -4  10    0.30    1.31   1
   5  -4  10   -0.40    1.00   1
   5  -4  11   -0.10    0.81   1
   5  -4  11   -1.21    1.21   1
   5  -4  16    5.29    1.89   1
   5  -4  17    1.90    1.60   1
   5  -4  32    2.59    2.99   1
   5  -4  33   65.45    5.82   1
   5  -4  39  141.13   12.36   1
   5  -4  43   -2.99    5.29   1
   5  -4  44   -6.30    5.42   1
   5  -3 -45   24.70    6.16   1
   5  -3 -44    1.21    3.52   1
   5  -3 -43    4.08    4.81   1
   5  -3 -42    5.81    3.71   1
   5  -3 -37    0.79    2.88   1
   5  -3 -33   75.34    5.90   1
   5  -3 -32   13.62    3.32   1
   5  -3 -31   27.04    3.64   1
   5  -3 -30   15.76    2.86   1
   5  -3 -29   29.59    3.05   1
   5  -3 -29   24.80    4.28   1
   5  -3 -28   14.59    2.06   1
   5  -3 -28   10.69    3.07   1
   5  -3 -27  116.21    6.04   1
   5  -3 -26    7.67    2.71   1
   5  -3 -26    5.11    1.90   1
   5  -3 -25  155.00    9.46   1
   5  -3 -25  183.60    8.13   1
   5  -3 -24    2.19    2.31   1
   5  -3 -24    0.30    1.90   1
   5  -3 -23   58.68    4.44   1
   5  -3 -23   63.36    6.05   1
   5  -3 -22   16.16    2.41   1
   5  -3 -22   13.76    2.82   1
   5  -3 -21   48.44    4.04   1
   5  -3 -21   51.84    4.03   1
   5  -3 -20    6.40    2.18   1
   5  -3 -20    0.50    1.41   1
   5  -3 -19   29.48    2.93   1
   5  -3 -19   34.69    3.06   1
   5  -3 -18    1.30    1.71   1
   5  -3 -18    2.59    1.51   1
   5  -3 -17   -1.30    1.71   1
   5  -3 -16    2.89    1.50   1
   5  -3 -15  102.21    6.07   1
   5  -3 -14    1.59    1.59   1
   5  -3 -13   72.76    5.12   1
   5  -3 -12   40.70    3.32   1
   5  -3 -11   32.95    2.76   1
   5  -3 -11   44.22    2.66   1
   5  -3 -10   35.28    2.73   1
   5  -3 -10   44.49    2.40   1
   5  -3  -9  488.41   19.01   1
   5  -3  -9  381.81   18.76   1
   5  -3  -8   -2.40    1.30   1
   5  -3  -8    0.20    0.60   1
   5  -3  -7  910.83   28.37   1
   5  -3  -6   36.97    1.82   1
   5  -3  -5   67.73    4.11   1
   5  -3  -4   -0.90    0.89   1
   5  -3  -3   39.44    2.39   1
   5  -3  -2    2.40    0.90   1
   5  -3  -2    3.10    0.70   1
   5  -3  -1   44.76    9.77   1
   5  -3  -1   34.93    2.13   1
   5  -3   0    5.20    0.91   1
   5  -3   0    6.00    0.98   1
   5  -3   1    7.67    1.00   1
   5  -3   1    8.58    0.88   1
   5  -3   2   35.16    1.66   1
   5  -3   2   45.70    2.43   1
   5  -3   3  694.85   25.83   1
   5  -3   4   24.80    1.39   1
   5  -3   4   33.76    2.09   1
   5  -3   5  103.43    4.88   1
   5  -3   5   85.75    3.52   1
   5  -3   6  180.63    7.80   1
   5  -3   6  224.10    8.08   1
   5  -3   7    0.90    0.70   1
   5  -3   7    1.00    1.20   1
   5  -3   8    2.79    1.10   1
   5  -3   8    1.90    0.69   1
   5  -3   9  706.50   24.45   1
   5  -3   9  595.85   25.39   1
   5  -3  10   -0.40    0.69   1
   5  -3  11   43.30    2.24   1
   5  -3  12    2.50    1.39   1
   5  -3  12    2.79    0.90   1
   5  -3  13    1.21    1.01   1
   5  -3  21    3.61    1.71   1
   5  -3  26   27.04    3.22   1
   5  -3  34   -0.90    2.60   1
   5  -3  35    1.00    2.20   1
   5  -3  40    5.11    4.61   1
   5  -3  41   12.39    4.93   1
   5  -2 -45    4.58    5.39   1
   5  -2 -42    0.50    4.42   1
   5  -2 -31    3.10    2.11   1
   5  -2 -30   16.97    3.30   1
   5  -2 -29    5.52    2.21   1
   5  -2 -28    2.10    1.91   1
   5  -2 -27    0.50    1.70   1
   5  -2 -26   -1.21    1.61   1
   5  -2 -26    1.90    1.90   1
   5  -2 -25    2.10    1.91   1
   5  -2 -25   -4.00    1.88   1
   5  -2 -24  106.09    5.77   1
   5  -2 -24   98.60    8.14   1
   5  -2 -23    2.40    1.61   1
   5  -2 -23   -0.90    1.90   1
   5  -2 -22   -1.80    1.69   1
   5  -2 -22   -2.19    1.30   1
   5  -2 -21  384.16   18.42   1
   5  -2 -21  406.02   20.15   1
   5  -2 -20    7.51    2.03   1
   5  -2 -20    2.99    1.49   1
   5  -2 -19    4.20    1.89   1
   5  -2 -19    7.02    2.01   1
   5  -2 -18   67.08    4.26   1
   5  -2 -18   55.50    3.72   1
   5  -2 -17    0.50    1.60   1
   5  -2 -16    2.69    1.71   1
   5  -2 -16    4.28    1.70   1
   5  -2 -15    1.21    1.30   1
   5  -2 -15    0.50    1.31   1
   5  -2 -14    0.30    1.41   1
   5  -2 -14    1.49    1.59   1
   5  -2 -13   11.63    2.18   1
   5  -2 -13   14.90    1.93   1
   5  -2 -12  548.96   27.65   1
   5  -2 -11    2.19    1.30   1
   5  -2 -10    2.31    1.09   1
   5  -2  -8   31.14    2.01   1
   5  -2  -7   10.69    1.31   1
   5  -2  -6    0.59    0.80   1
   5  -2  -5   11.02    1.20   1
   5  -2  -4    9.67    1.18   1
   5  -2  -3   84.64    3.68   1
   5  -2  -2    4.08    0.69   1
   5  -2  -1   63.84    3.20   1
   5  -2   0   33.41    1.73   1
   5  -2   1    2.19    0.50   1
   5  -2   2    5.52    1.08   1
   5  -2   2    3.10    0.39   1
   5  -2   3    9.49    1.11   1
   5  -2   3    7.62    0.50   1
   5  -2   4    7.18    1.07   1
   5  -2   5   33.18    2.19   1
   5  -2   6 1117.56   44.80   1
   5  -2   7   43.16    2.76   1
   5  -2   8   17.64    0.92   1
   5  -2   8   22.94    1.72   1
   5  -2   9   38.19    1.61   1
   5  -2   9   39.19    2.38   1
   5  -2  10   10.11    0.89   1
   5  -2  10    9.67    1.62   1
   5  -2  11    1.39    0.71   1
   5  -2  11    0.50    1.31   1
   5  -2  12  160.78    8.62   1
   5  -2  12  173.71    7.12   1
   5  -2  13   25.10    2.61   1
   5  -2  13   22.94    1.63   1
   5  -2  14    9.12    1.87   1
   5  -2  14    9.99    1.33   1
   5  -2  15   78.15    4.24   1
   5  -2  15   68.72    4.14   1
   5  -2  16   23.52    2.81   1
   5  -2  17    1.80    1.69   1
   5  -2  18    5.62    2.18   1
   5  -2  21    2.89    1.90   1
   5  -2  23    6.92    2.52   1
   5  -2  28   17.89    2.54   1
   5  -2  31    1.90    1.90   1
   5  -2  34    5.20    2.69   1
   5  -2  38   21.90    4.31   1
   5  -2  43   15.76    4.37   1
   5  -1 -48    6.50    4.69   1
   5  -1 -47    2.69    5.58   1
   5  -1 -46    6.50    5.20   1
   5  -1 -45   70.56    8.23   1
   5  -1 -30   41.73    3.36   1
   5  -1 -29   -0.30    1.90   1
   5  -1 -28   10.50    2.53   1
   5  -1 -27   38.94    3.74   1
   5  -1 -26    0.20    1.81   1
   5  -1 -25   22.66    2.57   1
   5  -1 -24   88.55    5.46   1
   5  -1 -23    0.40    1.50   1
   5  -1 -22   10.37    1.80   1
   5  -1 -21   94.87    5.84   1
   5  -1 -20    7.02    1.59   1
   5  -1 -19    6.81    1.88   1
   5  -1 -18  276.56   13.30   1
   5  -1 -17   12.39    2.39   1
   5  -1 -16   12.89    2.08   1
   5  -1 -15    3.50    1.61   1
   5  -1 -14   -0.20    0.91   1
   5  -1 -13  283.25   12.45   1
   5  -1 -12  407.23   17.35   1
   5  -1 -11  122.54    7.08   1
   5  -1 -10  165.64    7.21   1
   5  -1  -9    9.49    1.48   1
   5  -1  -8    1.00    1.20   1
   5  -1  -5   -1.59    1.18   1
   5  -1  -5    0.79    0.69   1
   5  -1  -4    9.49    1.11   1
   5  -1  -4    7.67    1.61   1
   5  -1  -3  135.49    6.52   1
   5  -1  -2    0.00    1.00   1
   5  -1  -1   24.70    1.29   1
   5  -1   0  352.69   14.65   1
   5  -1   6   82.63    5.45   1
   5  -1   7   28.41    2.24   1
   5  -1   8   57.46    3.49   1
   5  -1   9  419.02   12.28   1
   5  -1  10    4.41    1.39   1
   5  -1  11    2.59    1.29   1
   5  -1  12  382.20   16.81   1
   5  -1  13   -0.30    1.41   1
   5  -1  14   12.39    1.97   1
   5  -1  14   15.21    1.40   1
   5  -1  15    1.10    0.90   1
   5  -1  15   -0.90    1.41   1
   5  -1  16   -0.79    0.89   1
   5  -1  16   -0.10    1.72   1
   5  -1  17    2.31    1.09   1
   5  -1  17    6.40    1.92   1
   5  -1  18  544.29   21.00   1
   5  -1  19    0.30    1.61   1
   5  -1  20   99.60    5.19   1
   5  -1  21   88.36    5.45   1
   5  -1  22   16.97    2.31   1
   5  -1  23   28.20    2.97   1
   5  -1  24    1.99    2.20   1
   5  -1  25    2.79    1.80   1
   5  -1  26    3.39    2.10   1
   5  -1  27  162.05    8.91   1
   5  -1  28    1.00    1.70   1
   5  -1  29    6.71    2.80   1
   5  -1  36  220.52   16.34   1
   5  -1  37    4.58    4.41   1
   5  -1  41   -3.61    2.81   1
   5  -1  44    3.39    3.97   1
   5   0 -48   36.00    6.96   1
   5   0 -26   16.00    2.80   1
   5   0 -24   24.11    2.45   1
   5   0 -22  110.46    6.10   1
   5   0 -20   25.60    2.63   1
   5   0 -18   76.74    5.43   1
   5   0 -16    7.02    1.48   1
   5   0 -10  295.84   13.76   1
   5   0  -2   -0.10    0.91   1
   5   0   4   26.21    2.25   1
   5   0   6  106.92    5.79   1
   5   0   8   16.89    1.89   1
   5   0  10    7.02    1.33   1
   5   0  10    6.10    1.58   1
   5   0  12 1440.96   36.44   1
   5   0  12 1482.25   51.59   1
   5   0  14    5.62    1.42   1
   5   0  14    2.19    1.39   1
   5   0  16   23.23    2.41   1
   5   0  16   19.36    1.58   1
   5   0  18   -0.30    1.71   1
   5   0  18   -0.90    1.20   1
   5   0  20   11.90    2.48   1
   5   0  22    2.99    1.59   1
   5   0  24  485.32   22.47   1
   5   0  26    0.50    1.60   1
   5   0  28    6.30    2.81   1
   5   0  30   72.08    5.43   1
   5   0  32   20.98    4.31   1
   5   0  34   21.44    3.52   1
   5   1 -19    5.90    1.60   1
   5   1 -16   12.11    2.02   1
   5   1 -11  119.68    6.78   1
   5   1  -7   25.60    2.43   1
   5   1  -6   13.99    1.80   1
   5   1  -5    0.10    0.71   1
   5   1  -4    8.12    1.08   1
   5   1  -1   34.22    2.46   1
   5   1   2    1.00    1.30   1
   5   1   3  413.72   20.34   1
   5   1   4   -0.71    0.91   1
   5   1   5  274.56   12.59   1
   5   1   6   94.48    4.86   1
   5   1   7   22.94    2.11   1
   5   1   8   66.10    4.23   1
   5   1   9  450.29   17.82   1
   5   1  10    2.69    1.21   1
   5   1  11    2.59    1.09   1
   5   1  12  386.52   12.58   1
   5   1  12  391.64   16.23   1
   5   1  13    1.10    1.51   1
   5   1  13   -0.30    0.90   1
   5   1  14   19.27    2.28   1
   5   1  14   14.06    1.42   1
   5   1  15    1.21    1.21   1
   5   1  15    0.00    1.00   1
   5   1  16    0.71    1.11   1
   5   1  16    1.80    1.69   1
   5   1  17    0.40    1.20   1
   5   1  17    5.81    1.88   1
   5   1  18  471.32   17.80   1
   5   1  18  475.68   22.25   1
   5   1  19   -2.40    1.49   1
   5   1  19    1.59    1.08   1
   5   1  20   93.90    5.81   1
   5   1  20   94.48    4.47   1
   5   1  21   88.55    6.21   1
   5   1  22   21.16    2.76   1
   5   1  23   16.97    2.72   1
   5   1  24    1.00    2.30   1
   5   1  25    0.20    1.41   1
   5   1  26   -0.20    1.51   1
   5   1  27  138.30    9.41   1
   5   1  28    3.88    2.60   1
   5   1  29    1.39    2.38   1
   5   1  30   83.54    6.95   1
   5   1  31   -2.89    2.01   1
   5   1  32    4.28    3.11   1
   5   1  33   85.01    6.09   1
   5   1  34    2.19    2.99   1
   5   1  35    3.69    2.69   1
   5   1  36  263.09   16.22   1
   5   1  37    5.20    3.92   1
   5   1  38   10.63    2.80   1
   5   1  39   23.43    4.84   1
   5   1  42   24.70    5.27   1
   5   1  44    4.41    4.49   1
   5   2  -4   11.29    1.61   1
   5   2  -1   75.86    4.36   1
   5   2   0   32.49    2.51   1
   5   2   1    3.10    1.20   1
   5   2   2    6.50    1.38   1
   5   2   3   10.30    1.61   1
   5   2   4    7.90    1.40   1
   5   2   5   36.72    2.55   1
   5   2   6  990.99   39.04   1
   5   2   7   38.44    2.85   1
   5   2   8   20.79    1.92   1
   5   2   9   38.94    3.12   1
   5   2  10    9.49    1.29   1
   5   2  11    2.19    1.10   1
   5   2  12  157.50    6.28   1
   5   2  13   22.56    1.80   1
   5   2  14   11.90    1.38   1
   5   2  14    6.92    1.53   1
   5   2  15   60.53    3.73   1
   5   2  15   69.56    3.84   1
   5   2  16   28.62    2.57   1
   5   2  17   -1.00    1.70   1
   5   2  18    6.92    2.10   1
   5   2  19   33.52    3.01   1
   5   2  20    8.58    1.88   1
   5   2  21    2.79    2.30   1
   5   2  22    0.90    2.30   1
   5   2  23    8.82    2.49   1
   5   2  24  167.18    8.28   1
   5   2  25    6.50    3.11   1
   5   2  26    8.12    2.79   1
   5   2  27   50.27    4.68   1
   5   2  28   20.70    3.46   1
   5   2  29   13.99    3.37   1
   5   2  30    0.50    2.81   1
   5   2  31   -3.10    2.82   1
   5   2  32    3.61    2.70   1
   5   2  33    3.61    3.61   1
   5   2  34    3.31    2.22   1
   5   2  35    3.31    2.00   1
   5   2  36   -1.69    3.80   1
   5   2  37    1.69    4.19   1
   5   2  38   15.92    5.83   1
   5   2  39   91.78    8.24   1
   5   2  40    1.39    4.48   1
   5   2  41    3.61    4.22   1
   5   2  42   -3.39    3.50   1
   5   2  43    9.18    5.88   1
   5   3  16   -0.90    1.99   1
   5   3  17   25.20    2.81   1
   5   3  18  112.57    6.58   1
   5   3  19    2.59    2.09   1
   5   3  20   24.01    2.84   1
   5   3  21    7.02    2.70   1
   5   3  22    0.30    2.11   1
   5   3  23   17.39    2.42   1
   5   3  24   66.91    5.73   1
   5   3  25   -0.10    1.72   1
   5   3  26   31.58    3.82   1
   5   3  27  110.88    7.58   1
   5   3  28    1.80    1.90   1
   5   3  29    9.42    3.01   1
   5   3  30   11.09    3.53   1
   5   3  31   -3.10    3.10   1
   5   3  32    0.30    3.21   1
   5   3  33   54.76    5.62   1
   5   3  34    1.59    3.18   1
   5   3  35   -4.28    3.48   1
   5   3  36    3.69    3.69   1
   5   3  37   29.70    5.45   1
   5   3  38    3.20    3.69   1
   5   3  39    6.81    4.23   1
   5   3  40   -0.10    4.15   1
   5   3  41    6.20    4.48   1
   5   3  42   23.14    6.45   1
   5   3  43   -3.39    4.89   1
   5   4  18  133.63    9.25   1
   5   4  19    2.10    1.80   1
   5   4  20  110.67    6.73   1
   5   4  21  313.64   13.46   1
   5   4  22   -2.69    2.49   1
   5   4  23    1.90    1.90   1
   5   4  24   33.99    3.85   1
   5   4  25   -2.40    2.39   1
   5   4  26    5.11    2.89   1
   5   4  27    1.99    2.40   1
   5   4  28   17.81    3.63   1
   5   4  29   -0.71    3.31   1
   5   4  30   32.38    4.55   1
   5   4  31   11.63    2.39   1
   5   4  32    4.28    3.48   1
   5   4  33   49.98    6.08   1
   5   4  34   -0.59    3.48   1
   5   4  35    4.20    4.18   1
   5   4  36    2.10    3.39   1
   5   4  37    4.71    4.12   1
   5   4  38    4.88    4.20   1
   5   4  39  139.24    9.91   1
   5   4  40   -4.58    4.28   1
   5   4  41    1.69    5.10   1
   5   4  42    1.39    4.58   1
   5   4  43   -8.88    6.68   1
   5   5  19   10.89    2.11   1
   5   5  20   16.40    3.48   1
   5   5  21   -0.10    2.23   1
   5   5  22    1.10    2.60   1
   5   5  23   31.58    3.15   1
   5   5  24    7.51    2.90   1
   5   5  25    4.28    3.11   1
   5   5  26    3.39    2.98   1
   5   5  27   32.72    4.12   1
   5   5  28    5.38    2.78   1
   5   5  29   20.88    3.84   1
   5   5  30   37.58    4.66   1
   5   5  31   -2.99    3.29   1
   5   5  32   15.76    4.29   1
   5   5  33   27.46    4.30   1
   5   5  34   -1.59    4.28   1
   5   5  35   22.66    4.95   1
   5   5  36  158.26   10.82   1
   5   5  37    9.12    5.13   1
   5   5  39    1.59    4.28   1
   5   5  40   22.56    5.51   1
   5   5  41   -3.88    5.48   1
   5   6  21   24.11    3.73   1
   5   6  22    1.30    1.89   1
   5   6  23   31.02    4.46   1
   5   6  24  204.78   10.30   1
   5   6  25    2.40    2.91   1
   5   6  26   44.36    4.80   1
   5   6  27   27.04    3.95   1
   5   6  28   -0.50    2.81   1
   5   6  29   14.21    3.92   1
   5   6  30  152.77   11.87   1
   5   6  31   12.82    3.94   1
   5   6  32   -4.88    3.32   1
   5   6  33   17.72    4.29   1
   5   6  34   39.94    6.32   1
   5   6  35    5.20    4.38   1
   5   6  36   32.49    5.93   1
   5   6  37    1.69    4.50   1
   5   6  39   21.44    5.93   1
   5   6  40    7.62    5.63   1
   5   7  22    3.50    3.22   1
   5   7  23    0.50    1.90   1
   5   7  24  159.26    9.59   1
   5   7  25    5.11    3.71   1
   5   7  26   -3.10    3.20   1
   5   7  27    5.90    3.60   1
   5   7  28    8.53    3.33   1
   5   7  29    1.30    2.90   1
   5   7  30   33.18    4.38   1
   5   7  31   -4.88    4.20   1
   5   7  32    1.39    3.99   1
   5   7  33   16.81    3.94   1
   5   7  34    1.69    6.58   1
   5   7  36   69.22    7.49   1
   5   7  37   -5.11    5.02   1
   5   7  38    1.69    5.77   1
   5   8  22    5.02    3.32   1
   5   8  23   -1.39    3.00   1
   5   8  24   -2.31    3.22   1
   5   8  25    1.39    3.28   1
   5   8  26   -0.40    3.39   1
   5   8  27    5.02    3.99   1
   5   8  28    2.79    3.41   1
   5   8  29    5.29    4.69   1
   5   8  30   20.88    4.94   1
   5   8  31    4.80    4.20   1
   5   8  32   -2.40    4.22   1
   5   8  33   10.50    3.63   1
   5   8  34    1.90    5.30   1
   5   8  35   23.81    6.34   1
   5   8  36   19.62    5.49   1
   5   8  37    2.69    5.48   1
   5   8  38    5.52    7.52   1
   5   9  23    8.88    4.11   1
   5   9  24    3.80    4.21   1
   5   9  25    1.49    4.29   1
   5   9  26    1.00    3.60   1
   5   9  27  151.29   10.82   1
   5   9  28    6.00    5.00   1
   5   9  29   -1.30    4.20   1
   5   9  30    2.79    4.88   1
   5   9  31    0.79    2.88   1
   5   9  32    2.31    4.80   1
   5   9  33   -1.39    4.79   1
   5   9  34    4.28    5.51   1
   5   9  35    3.31    5.71   1
   5  10  23    3.88    4.10   1
   5  10  24    0.71    4.42   1
   5  10  25    2.99    2.80   1
   5  10  26   -0.90    4.41   1
   5  10  27    0.40    4.69   1
   5  10  28   -2.10    4.21   1
   5  10  29    0.59    4.97   1
   5  10  30    1.69    4.68   1
   5  10  31   -1.39    3.28   1
   5  10  32   19.18    5.78   1
   5  11  24   24.30    6.01   1
   5  11  25    1.59    4.69   1
   5  11  26   10.89    4.82   1
   5  11  27   31.92    6.55   1
   5  11  28   -1.00    4.70   1
   5  11  29    1.30    6.11   1
   5  12  23   -0.79    4.88   1
   5  12  24   -0.90    4.81   1
   6  -7  26   -5.02    3.32   1
   6  -7  27   -0.20    3.22   1
   6  -7  28   -1.99    2.90   1
   6  -7  29    9.92    3.59   1
   6  -7  30   34.93    4.85   1
   6  -7  31    2.40    3.81   1
   6  -7  32    4.41    3.91   1
   6  -7  33   17.47    4.93   1
   6  -7  34   14.59    4.97   1
   6  -7  35   -4.20    3.89   1
   6  -7  36    3.61    4.10   1
   6  -7  37    8.82    4.40   1
   6  -7  38    3.50    3.52   1
   6  -6 -29   18.23    3.59   1
   6  -6 -28   10.18    3.38   1
   6  -6 -27   -3.31    2.69   1
   6  -6  12   33.87    2.79   1
   6  -6  13    1.99    1.38   1
   6  -6  14    2.50    1.71   1
   6  -6  15    2.10    1.51   1
   6  -6  16   14.36    2.73   1
   6  -6  17    2.99    1.80   1
   6  -6  18    0.40    1.79   1
   6  -6  19    5.29    1.98   1
   6  -6  20   11.09    2.53   1
   6  -6  22    3.88    2.68   1
   6  -6  25    1.10    2.50   1
   6  -6  26    7.78    3.01   1
   6  -6  27    5.38    2.78   1
   6  -6  28   -0.50    3.31   1
   6  -6  29   -2.79    3.11   1
   6  -6  30    4.41    3.19   1
   6  -6  31    5.20    3.60   1
   6  -6  32    5.11    4.11   1
   6  -6  35    9.61    4.53   1
   6  -6  36  136.89   11.23   1
   6  -6  37    9.67    5.10   1
   6  -6  39    3.39    3.20   1
   6  -6  40    4.88    5.39   1
   6  -5 -30   47.06    4.39   1
   6  -5 -29   -2.59    2.61   1
   6  -5 -28   75.34    6.25   1
   6  -5 -27    5.52    3.10   1
   6  -5 -27   -3.20    2.68   1
   6  -5 -26   35.05    4.26   1
   6  -5 -26   38.94    5.12   1
   6  -5 -25    1.00    2.30   1
   6  -5 -25    3.69    3.30   1
   6  -5 -24   21.90    3.46   1
   6  -5 -24   19.71    3.91   1
   6  -5 -23    5.29    2.90   1
   6  -5 -22   -1.49    2.49   1
   6  -5 -21    8.12    3.08   1
   6  -5 -20    7.18    2.79   1
   6  -5 -19    5.02    2.28   1
   6  -5 -18    1.49    2.49   1
   6  -5 -17    2.10    1.91   1
   6  -5 -16    8.82    2.73   1
   6  -5 -15  285.61   12.84   1
   6  -5 -14    1.90    2.40   1
   6  -5 -13   47.89    4.29   1
   6  -5 -12  395.21   18.69   1
   6  -5   5    1.49    1.00   1
   6  -5   7    3.50    1.31   1
   6  -5   8   16.97    1.81   1
   6  -5   9  125.22    5.82   1
   6  -5  12   32.26    2.84   1
   6  -5  13   -0.30    1.31   1
   6  -5  14    1.49    1.59   1
   6  -5  15   15.21    2.81   1
   6  -5  16   26.73    2.79   1
   6  -5  17    0.71    1.81   1
   6  -5  18  379.86   20.27   1
   6  -5  19   -0.30    1.80   1
   6  -5  20    2.19    2.10   1
   6  -5  21   12.60    2.63   1
   6  -5  22   10.37    2.58   1
   6  -5  27  138.30    7.53   1
   6  -5  31    1.49    3.49   1
   6  -5  34    7.08    4.10   1
   6  -5  35    3.80    4.29   1
   6  -5  36    0.20    4.12   1
   6  -5  37    2.99    4.50   1
   6  -5  40    5.81    4.39   1
   6  -5  41   -5.29    5.20   1
   6  -4 -37   27.88    6.34   1
   6  -4 -36    4.49    4.41   1
   6  -4 -35    2.50    3.89   1
   6  -4 -34    2.99    4.29   1
   6  -4 -33   10.30    3.98   1
   6  -4 -32    2.19    3.70   1
   6  -4 -31    5.11    3.80   1
   6  -4 -31    5.20    2.92   1
   6  -4 -30   32.83    4.13   1
   6  -4 -30   47.47    4.69   1
   6  -4 -29    2.99    2.21   1
   6  -4 -29   -0.71    2.50   1
   6  -4 -28  107.33    8.50   1
   6  -4 -28   97.81    7.12   1
   6  -4 -27  201.36   14.76   1
   6  -4 -27  216.68   10.60   1
   6  -4 -26   14.29    2.80   1
   6  -4 -26    7.29    3.40   1
   6  -4 -25    5.62    2.89   1
   6  -4 -25    8.41    2.73   1
   6  -4 -24  243.67   11.24   1
   6  -4 -24  194.60   11.44   1
   6  -4 -23    2.99    2.49   1
   6  -4 -23    2.59    2.51   1
   6  -4 -22    3.61    2.51   1
   6  -4 -22    0.50    1.70   1
   6  -4 -21    9.92    2.77   1
   6  -4 -21    9.18    2.73   1
   6  -4 -20    8.41    2.78   1
   6  -4 -20    7.67    2.60   1
   6  -4 -19    1.49    1.90   1
   6  -4 -18   92.54    5.00   1
   6  -4 -17    4.41    2.02   1
   6  -4 -16    4.80    2.10   1
   6  -4 -15  178.49    8.82   1
   6  -4 -14   19.98    2.59   1
   6  -4 -13   97.81    5.74   1
   6  -4 -12  220.82   10.10   1
   6  -4 -11    9.42    1.72   1
   6  -4 -10    9.12    1.69   1
   6  -4  -9  128.60    7.03   1
   6  -4  -8    1.39    1.20   1
   6  -4  -7    0.79    1.19   1
   6  -4  -5    5.81    1.40   1
   6  -4  -5   11.29    0.81   1
   6  -4  -4    2.69    0.69   1
   6  -4  -4    1.59    1.18   1
   6  -4  -3   21.07    2.11   1
   6  -4  -3   29.48    1.63   1
   6  -4  -2    1.69    0.70   1
   6  -4  -1    1.21    0.81   1
   6  -4   0    9.18    1.09   1
   6  -4   1    2.10    0.90   1
   6  -4   2    1.30    0.89   1
   6  -4   3   89.11    4.34   1
   6  -4   4    2.50    1.11   1
   6  -4   5    0.79    1.00   1
   6  -4   6    1.80    0.99   1
   6  -4   7    0.90    1.10   1
   6  -4   8   33.06    2.30   1
   6  -4  10   -1.30    1.50   1
   6  -4  11    1.49    1.78   1
   6  -4  14    3.61    1.52   1
   6  -4  31    9.92    2.77   1
   6  -4  32    1.80    2.60   1
   6  -4  33   40.96    5.25   1
   6  -4  34   -2.40    2.60   1
   6  -4  35    2.50    2.69   1
   6  -4  36   37.33    5.87   1
   6  -4  38    1.59    2.90   1
   6  -4  39   41.22    6.16   1
   6  -4  40    3.50    3.29   1
   6  -4  41    5.20    4.51   1
   6  -4  42   28.41    5.65   1
   6  -3 -43   35.05    7.46   1
   6  -3 -42   -0.10    3.85   1
   6  -3 -41   -1.10    5.10   1
   6  -3 -40    5.38    4.87   1
   6  -3 -39   23.04    5.47   1
   6  -3 -38    1.21    4.82   1
   6  -3 -37   -1.59    4.59   1
   6  -3 -34    2.69    3.80   1
   6  -3 -33   10.89    3.83   1
   6  -3 -32    2.31    3.71   1
   6  -3 -31    9.42    2.70   1
   6  -3 -31    6.81    2.40   1
   6  -3 -30    6.20    2.59   1
   6  -3 -30    2.69    2.49   1
   6  -3 -29    3.39    2.28   1
   6  -3 -29   -0.71    2.30   1
   6  -3 -28    1.80    2.71   1
   6  -3 -28   -1.10    2.79   1
   6  -3 -27   94.87    6.82   1
   6  -3 -27  104.04    6.73   1
   6  -3 -26    0.30    2.82   1
   6  -3 -26    3.50    2.21   1
   6  -3 -25  303.46   22.99   1
   6  -3 -25  305.20   18.52   1
   6  -3 -24   16.00    3.60   1
   6  -3 -24   18.23    3.25   1
   6  -3 -23   26.42    3.60   1
   6  -3 -23   26.83    3.63   1
   6  -3 -22    0.50    2.31   1
   6  -3 -22    2.79    1.90   1
   6  -3 -21  520.30   20.99   1
   6  -3 -20    0.79    1.80   1
   6  -3 -20    1.99    1.89   1
   6  -3 -19    0.20    2.02   1
   6  -3 -19   -0.71    2.02   1
   6  -3 -18  152.28    7.90   1
   6  -3 -18  141.37   10.70   1
   6  -3 -17    5.20    2.01   1
   6  -3 -17    1.80    1.69   1
   6  -3 -16    1.59    1.49   1
   6  -3 -16    1.30    1.89   1
   6  -3 -15  188.79    9.62   1
   6  -3 -15  200.22    9.90   1
   6  -3 -14    4.49    1.78   1
   6  -3 -13    3.80    1.48   1
   6  -3 -12    2.59    1.71   1
   6  -3 -11    2.59    1.51   1
   6  -3 -10   10.69    1.83   1
   6  -3  -9   -0.71    1.41   1
   6  -3  -8    4.20    1.39   1
   6  -3  -7    4.00    1.28   1
   6  -3  -6   57.46    3.49   1
   6  -3  -5   24.40    2.07   1
   6  -3  -4   17.72    1.60   1
   6  -3  -3   27.98    1.90   1
   6  -3  -2   -1.10    0.90   1
   6  -3  -1  110.04    5.24   1
   6  -3   0   51.27    2.86   1
   6  -3   0   36.84    1.94   1
   6  -3   1    0.40    1.00   1
   6  -3   1   -0.59    0.60   1
   6  -3   2   11.70    1.50   1
   6  -3   2    7.67    0.78   1
   6  -3   3   30.80    2.22   1
   6  -3   4    8.18    1.32   1
   6  -3   5   70.73    4.04   1
   6  -3   6  156.00    6.49   1
   6  -3   7    1.49    1.10   1
   6  -3   8   34.46    2.35   1
   6  -3   9    6.81    1.62   1
   6  -3  10    2.69    1.41   1
   6  -3  11   11.42    3.72   1
   6  -3  14    3.80    1.48   1
   6  -3  17    0.71    1.71   1
   6  -3  23    8.70    2.12   1
   6  -3  31    2.69    2.49   1
   6  -3  36    7.67    2.99   1
   6  -3  37   -1.10    3.00   1
   6  -3  43   10.30    4.49   1
   6  -2 -46   -5.71    4.68   1
   6  -2 -45   14.36    6.29   1
   6  -2 -42    4.41    5.12   1
   6  -2 -41    1.49    3.59   1
   6  -2 -40    0.59    4.67   1
   6  -2 -32   -1.90    2.29   1
   6  -2 -31    1.30    2.30   1
   6  -2 -30    2.79    3.01   1
   6  -2 -30    4.00    2.40   1
   6  -2 -29   18.32    2.91   1
   6  -2 -29   23.33    3.38   1
   6  -2 -28    9.00    2.82   1
   6  -2 -28   11.97    3.18   1
   6  -2 -27   39.56    3.77   1
   6  -2 -27   50.69    4.84   1
   6  -2 -26    2.59    2.29   1
   6  -2 -26    3.10    2.18   1
   6  -2 -25    9.92    2.33   1
   6  -2 -25    2.79    2.40   1
   6  -2 -24   26.01    3.26   1
   6  -2 -24   38.81    3.61   1
   6  -2 -23   22.00    3.10   1
   6  -2 -23   29.59    3.26   1
   6  -2 -22    2.19    1.89   1
   6  -2 -22    2.31    1.92   1
   6  -2 -21   20.61    2.72   1
   6  -2 -21   17.31    2.58   1
   6  -2 -20   -0.90    2.11   1
   6  -2 -20   -1.21    2.00   1
   6  -2 -19   24.50    2.87   1
   6  -2 -18    4.28    1.78   1
   6  -2 -18    5.71    2.20   1
   6  -2 -17    0.30    1.61   1
   6  -2 -17    0.50    1.80   1
   6  -2 -16   22.37    2.18   1
   6  -2 -16   24.60    2.48   1
   6  -2 -15  285.95   13.19   1
   6  -2 -15  274.56   11.27   1
   6  -2 -14    0.40    1.59   1
   6  -2 -14    6.40    1.52   1
   6  -2 -12   16.32    2.02   1
   6  -2 -11   -1.49    1.29   1
   6  -2 -11   -0.30    1.41   1
   6  -2 -10  144.72    7.70   1
   6  -2 -10  139.00    7.31   1
   6  -2  -9    2.50    1.11   1
   6  -2  -9    1.21    1.61   1
   6  -2  -8    8.82    1.60   1
   6  -2  -7  158.00    8.04   1
   6  -2  -6   25.10    2.20   1
   6  -2  -5   13.32    1.31   1
   6  -2  -4    0.40    0.79   1
   6  -2  -3   31.92    1.92   1
   6  -2  -2    5.29    0.69   1
   6  -2  -1   42.77    2.22   1
   6  -2   0    8.82    0.71   1
   6  -2   3  351.56   14.62   1
   6  -2   4   17.22    1.66   1
   6  -2   5   22.00    1.97   1
   6  -2   6  192.38    8.88   1
   6  -2   7    1.90    1.10   1
   6  -2   8    4.00    1.40   1
   6  -2   9  503.55   19.30   1
   6  -2  10    8.58    1.70   1
   6  -2  11   17.89    2.20   1
   6  -2  12    1.00    1.40   1
   6  -2  13    1.90    1.30   1
   6  -2  14    2.59    1.80   1
   6  -2  15  113.64    5.76   1
   6  -2  16    1.90    1.60   1
   6  -2  17   26.94    2.60   1
   6  -2  18  195.44   10.90   1
   6  -2  19   17.47    2.59   1
   6  -2  20   -0.59    1.69   1
   6  -2  23  118.16    7.17   1
   6  -2  24    4.08    2.10   1
   6  -2  25    2.79    2.40   1
   6  -2  30   14.90    2.93   1
   6  -2  35   26.73    4.14   1
   6  -2  42    8.12    4.33   1
   6  -1 -46    3.39    6.59   1
   6  -1 -45   10.63    5.93   1
   6  -1 -41   10.89    5.21   1
   6  -1 -37   -1.10    4.30   1
   6  -1 -32   11.09    2.60   1
   6  -1 -31   28.84    3.44   1
   6  -1 -30    7.51    2.41   1
   6  -1 -29    2.50    2.31   1
   6  -1 -28   40.96    4.35   1
   6  -1 -27   20.07    2.69   1
   6  -1 -26    5.90    2.38   1
   6  -1 -25    2.31    2.10   1
   6  -1 -24   39.19    3.76   1
   6  -1 -23    4.08    1.98   1
   6  -1 -22   13.76    2.30   1
   6  -1 -21  145.68    8.45   1
   6  -1 -20    1.49    1.90   1
   6  -1 -19   32.60    2.86   1
   6  -1 -16    2.10    1.80   1
   6  -1 -15   47.47    3.44   1
   6  -1 -14    0.00    1.00   1
   6  -1 -13   -0.30    1.61   1
   6  -1 -12   33.06    2.53   1
   6  -1 -10   16.00    1.76   1
   6  -1  -8    3.39    1.29   1
   6  -1  -7    1.59    1.01   1
   6  -1  -6   19.89    1.69   1
   6  -1  -5   -0.40    0.79   1
   6  -1  -4   10.50    1.10   1
   6  -1  -3    3.50    0.79   1
   6  -1  -2   18.92    1.22   1
   6  -1  -1  198.81    7.33   1
   6  -1   1   15.13    1.87   1
   6  -1   2   51.55    3.88   1
   6  -1   7    3.69    1.31   1
   6  -1   8    1.59    1.39   1
   6  -1   9  731.16   34.07   1
   6  -1  10    1.30    1.39   1
   6  -1  11   33.29    2.65   1
   6  -1  12  386.12   11.00   1
   6  -1  13   -0.50    1.60   1
   6  -1  14   18.32    2.48   1
   6  -1  15    2.10    1.71   1
   6  -1  16    5.20    1.78   1
   6  -1  17    3.39    1.80   1
   6  -1  18   14.59    1.91   1
   6  -1  18   18.49    2.41   1
   6  -1  19    2.69    1.90   1
   6  -1  19    2.31    1.49   1
   6  -1  20    1.49    1.78   1
   6  -1  20    0.71    1.71   1
   6  -1  21   49.98    3.68   1
   6  -1  21   50.41    3.55   1
   6  -1  22    7.62    2.48   1
   6  -1  22    4.28    1.99   1
   6  -1  23   -1.90    2.21   1
   6  -1  24  192.93    9.17   1
   6  -1  25    3.61    2.39   1
   6  -1  28   17.64    3.70   1
   6  -1  31    0.79    2.99   1
   6  -1  32    1.49    2.20   1
   6  -1  33    6.60    3.29   1
   6  -1  34   24.30    4.44   1
   6  -1  35   15.92    4.23   1
   6  -1  36    0.30    2.92   1
   6  -1  37    7.08    4.58   1
   6  -1  41   -0.71    3.91   1
   6   0 -46   18.40    6.18   1
   6   0 -26    0.40    1.99   1
   6   0 -24   64.64    5.95   1
   6   0 -22   68.39    4.80   1
   6   0 -18  363.66   17.93   1
   6   0  -6   67.24    4.43   1
   6   0   0  774.51   36.74   1
   6   0   4    4.58    1.71   1
   6   0   6  104.45    5.72   1
   6   0  10  163.58    8.70   1
   6   0  12  555.07   23.09   1
   6   0  12  549.43   21.10   1
   6   0  14   38.44    2.98   1
   6   0  14   42.64    3.27   1
   6   0  16    1.10    1.30   1
   6   0  16    0.00    1.00   1
   6   0  18  632.02   23.13   1
   6   0  18  636.05   30.26   1
   6   0  20    2.10    1.60   1
   6   0  20    2.19    1.69   1
   6   0  22    0.50    2.22   1
   6   0  24   23.81    3.32   1
   6   0  26   91.39    6.31   1
   6   0  28   -0.30    2.61   1
   6   0  32   25.40    3.63   1
   6   0  34    8.29    3.00   1
   6   1 -12   35.05    2.96   1
   6   1   3   35.88    2.88   1
   6   1   4    3.80    1.48   1
   6   1   5   -1.69    1.51   1
   6   1   6 1039.42   41.27   1
   6   1   7    2.69    1.61   1
   6   1   8    2.40    1.30   1
   6   1   9  697.49   31.16   1
   6   1  10   -0.50    1.41   1
   6   1  11   31.36    2.35   1
   6   1  12  396.01   18.71   1
   6   1  13    0.71    1.51   1
   6   1  13    0.00    1.00   1
   6   1  14   11.22    2.28   1
   6   1  14   13.91    3.21   1
   6   1  15    4.28    1.99   1
   6   1  15    3.50    1.50   1
   6   1  16    4.20    2.09   1
   6   1  16    3.69    1.38   1
   6   1  17    5.02    2.11   1
   6   1  17    6.81    1.72   1
   6   1  18    8.82    2.20   1
   6   1  18   11.49    2.17   1
   6   1  19    2.69    1.31   1
   6   1  19    1.59    2.29   1
   6   1  20   -1.30    1.39   1
   6   1  20    1.59    2.29   1
   6   1  21   52.27    4.19   1
   6   1  22    2.40    2.51   1
   6   1  23    4.08    2.59   1
   6   1  24  201.36   10.78   1
   6   1  25   -1.59    1.69   1
   6   1  26    2.69    1.90   1
   6   1  27   13.32    3.43   1
   6   1  28   16.32    3.07   1
   6   1  29   -0.79    2.79   1
   6   1  30   43.03    4.46   1
   6   1  31    0.10    2.23   1
   6   1  32    9.18    3.27   1
   6   1  33   15.76    4.13   1
   6   1  34   17.89    4.40   1
   6   1  35    7.18    3.11   1
   6   1  37    8.53    4.32   1
   6   1  40   10.50    4.47   1
   6   1  41    2.50    3.70   1
   6   2  -4   -1.39    0.99   1
   6   2  -3   35.52    2.98   1
   6   2   0   11.22    1.61   1
   6   2   1   31.47    2.58   1
   6   2   2    0.30    1.41   1
   6   2   3  338.56   15.82   1
   6   2   4   18.06    2.12   1
   6   2   5   16.48    2.27   1
   6   2   6  199.37   10.45   1
   6   2   7    1.10    1.51   1
   6   2   8    1.80    0.99   1
   6   2   9  441.42   18.07   1
   6   2  10    5.62    1.61   1
   6   2  11   20.88    2.19   1
   6   2  12   -0.90    1.20   1
   6   2  13    5.20    3.28   1
   6   2  14    1.90    1.21   1
   6   2  15   99.80    5.59   1
   6   2  15  110.67    5.89   1
   6   2  16    6.10    2.12   1
   6   2  16    6.20    1.59   1
   6   2  17   27.88    2.75   1
   6   2  17   23.43    2.90   1
   6   2  18  199.09    9.59   1
   6   2  18  186.87    9.84   1
   6   2  19   13.91    2.69   1
   6   2  20   -0.79    2.19   1
   6   2  21  538.70   21.35   1
   6   2  22    4.08    2.30   1
   6   2  23  102.01    5.86   1
   6   2  24    2.79    2.50   1
   6   2  25    1.30    2.51   1
   6   2  26    4.28    2.90   1
   6   2  27   11.49    3.32   1
   6   2  28   -4.41    2.69   1
   6   2  29   -1.39    2.50   1
   6   2  30   21.07    3.58   1
   6   2  31    2.10    3.19   1
   6   2  32    2.69    3.28   1
   6   2  33   69.72    6.18   1
   6   2  34    0.50    3.82   1
   6   2  35   24.40    4.84   1
   6   2  36   50.27    5.25   1
   6   2  37    9.92    4.41   1
   6   2  38   14.59    4.81   1
   6   2  39   13.03    4.62   1
   6   2  40    3.88    3.39   1
   6   2  41   10.37    5.67   1
   6   2  42    2.99    5.61   1
   6   3  17   -0.79    2.19   1
   6   3  18   33.76    3.72   1
   6   3  21  776.18   31.76   1
   6   3  22   36.24    3.85   1
   6   3  23    4.41    2.90   1
   6   3  24   69.06    5.48   1
   6   3  25    0.00    1.00   1
   6   3  26    2.40    2.20   1
   6   3  27  169.26    9.89   1
   6   3  28    1.39    3.19   1
   6   3  29   23.72    4.48   1
   6   3  30   12.67    3.49   1
   6   3  31   -3.10    3.10   1
   6   3  32    5.11    3.21   1
   6   3  33  113.00    9.35   1
   6   3  34   -4.00    3.20   1
   6   3  35   -2.40    3.81   1
   6   3  36    2.69    4.40   1
   6   3  37   11.49    4.41   1
   6   3  38    7.51    4.71   1
   6   3  39   77.44    8.98   1
   6   3  40    2.10    4.00   1
   6   3  41   -0.71    4.82   1
   6   3  42   -2.79    6.18   1
   6   4  19    6.81    2.71   1
   6   4  20    5.11    2.80   1
   6   4  21   58.52    5.05   1
   6   4  22   10.50    3.30   1
   6   4  23   14.90    3.32   1
   6   4  24  189.34    9.63   1
   6   4  25    3.50    1.98   1
   6   4  26    2.50    3.10   1
   6   4  27  201.07   13.61   1
   6   4  28    1.80    2.30   1
   6   4  29    0.90    3.21   1
   6   4  30   28.41    5.12   1
   6   4  31    4.88    4.11   1
   6   4  32    3.88    3.39   1
   6   4  33   44.36    6.53   1
   6   4  34   -1.80    3.99   1
   6   4  35    2.59    4.19   1
   6   4  36   32.95    5.40   1
   6   4  37   11.42    5.27   1
   6   4  38    8.53    5.49   1
   6   4  39   51.55    7.18   1
   6   4  40    3.50    5.20   1
   6   4  41   -2.19   17.26   1
   6   5  20   10.37    2.77   1
   6   5  21    7.78    2.90   1
   6   5  22   10.63    3.19   1
   6   5  23   32.15    3.86   1
   6   5  24   67.73    5.76   1
   6   5  25    4.41    3.11   1
   6   5  26   18.06    3.65   1
   6   5  27  123.65    7.78   1
   6   5  28    0.59    3.08   1
   6   5  29    4.00    3.28   1
   6   5  30    6.81    4.12   1
   6   5  31    1.10    2.79   1
   6   5  32   -3.39    3.20   1
   6   5  33   -5.02    4.12   1
   6   5  34    8.01    4.41   1
   6   5  35    1.10    4.41   1
   6   5  37   -3.50    4.71   1
   6   5  38   -4.28    4.89   1
   6   5  39   18.49    6.54   1
   6   6  21   42.64    4.83   1
   6   6  22   -2.50    2.69   1
   6   6  23   30.69    3.88   1
   6   6  24  146.41    9.20   1
   6   6  25    5.29    3.31   1
   6   6  26   11.90    4.28   1
   6   6  27    0.00    1.00   1
   6   6  28   -1.90    3.39   1
   6   6  29   -1.10    3.21   1
   6   6  30    0.71    3.51   1
   6   6  31    5.11    3.12   1
   6   6  32   -1.39    3.89   1
   6   6  33    2.79    4.11   1
   6   6  34   -1.80    4.58   1
   6   6  35    5.90    5.39   1
   6   6  36  147.38   12.38   1
   6   6  37   11.22    5.09   1
   6   6  38   -3.31    5.61   1
   6   7  22   29.92    4.27   1
   6   7  23   -0.71    3.01   1
   6   7  24   16.56    4.40   1
   6   7  25    1.49    3.98   1
   6   7  26    0.50    3.82   1
   6   7  27    7.90    3.82   1
   6   7  28   -0.10    4.25   1
   6   7  29    9.99    4.30   1
   6   7  30   37.21    5.25   1
   6   7  31    4.41    4.20   1
   6   7  32    0.30    4.21   1
   6   7  33   20.43    4.79   1
   6   7  34   11.83    5.02   1
   6   7  35   -3.31    5.02   1
   6   7  36    4.08    5.70   1
   6   7  37    7.90   17.82   1
   6   8  23    9.42    3.93   1
   6   8  24   -0.20    3.73   1
   6   8  25   -1.10    2.60   1
   6   8  26   10.69    4.51   1
   6   8  27   43.96    5.04   1
   6   8  28    1.69    3.38   1
   6   8  29    4.71    4.51   1
   6   8  30   55.65    7.16   1
   6   8  31    1.99    4.68   1
   6   8  32    1.69    3.38   1
   6   8  33    3.80    4.29   1
   6   8  34   -3.50    5.68   1
   6   8  35  -14.67    8.12   1
   6   9  23   -0.79    4.77   1
   6   9  24   10.30    4.82   1
   6   9  25    3.88    4.57   1
   6   9  26   10.11    3.88   1
   6   9  28   -0.20    4.12   1
   6   9  29   25.30    6.34   1
   6   9  30   -3.20    5.12   1
   6   9  31    2.10    5.31   1
   6   9  32   14.36    5.91   1
   6   9  33   35.05    7.93   1
   6  10  23    0.40    4.38   1
   6  10  24   19.89    5.62   1
   6  10  27  116.42    9.93   1
   6  10  28    4.80    4.82   1
   6  10  29   -5.62    3.51   1
   6  10  30    6.50   18.31   1
   6  11  23    0.50    3.62   1
   6  11  24   27.98    5.61   1
   6  11  25   -0.10    5.16   1
   7  -7 -29    5.90    3.69   1
   7  -7 -28    8.41    3.48   1
   7  -6 -30   79.57    6.24   1
   7  -6 -29    1.69    3.20   1
   7  -6 -28    1.00    3.30   1
   7  -6 -26    4.08    3.60   1
   7  -6 -25   35.28    5.11   1
   7  -6  28    5.62    3.08   1
   7  -6  29   -1.49    3.68   1
   7  -6  30    4.88    3.49   1
   7  -6  31    2.10    4.21   1
   7  -6  32   -4.71    3.99   1
   7  -6  33   -1.30    3.99   1
   7  -6  34    2.89    4.08   1
   7  -6  35   -0.30    4.21   1
   7  -6  36   -1.80    4.58   1
   7  -6  37    3.10    5.21   1
   7  -5 -31   80.28    6.81   1
   7  -5 -30    0.40    2.99   1
   7  -5 -29    7.62    3.20   1
   7  -5 -28   29.70    4.47   1
   7  -5 -27   15.52    3.94   1
   7  -5 -26    0.79    2.69   1
   7  -5 -25   75.34    5.38   1
   7  -5 -24  168.22    9.86   1
   7  -5 -23    3.88    2.99   1
   7  -5 -22   -3.88    2.29   1
   7  -5  13   -0.30    1.71   1
   7  -5  14    0.79    1.69   1
   7  -5  15    6.50    2.09   1
   7  -5  16    2.40    2.01   1
   7  -5  17   15.76    3.18   1
   7  -5  18   44.89    4.56   1
   7  -5  19    1.49    2.20   1
   7  -5  22    7.02    2.60   1
   7  -5  26   13.10    3.62   1
   7  -5  30   -4.71    3.08   1
   7  -5  31    3.61    3.80   1
   7  -5  32    5.02    3.49   1
   7  -5  33   19.80    4.36   1
   7  -5  36   19.36    5.63   1
   7  -5  37    7.51    4.99   1
   7  -5  39   -4.88    4.69   1
   7  -4 -31   36.97    4.86   1
   7  -4 -30  134.56    8.58   1
   7  -4 -29    1.90    2.70   1
   7  -4 -28   -0.79    2.69   1
   7  -4 -27   31.92    4.41   1
   7  -4 -26   32.95    3.79   1
   7  -4 -25    2.69    2.39   1
   7  -4 -24   10.18    2.68   1
   7  -4 -23    1.39    2.01   1
   7  -4 -22    8.12    2.68   1
   7  -4 -21  146.41    8.71   1
   7  -4 -20   -3.80    2.50   1
   7  -4 -19    0.59    2.19   1
   7  -4   3  114.92    6.00   1
   7  -4   4    1.30    1.30   1
   7  -4   5   27.25    2.09   1
   7  -4   6  116.64    6.26   1
   7  -4   7   10.63    1.70   1
   7  -4   8   37.95    3.70   1
   7  -4   9  113.85    5.76   1
   7  -4  10    7.67    1.88   1
   7  -4  11    1.99    1.69   1
   7  -4  14   23.81    2.83   1
   7  -4  15   57.30    3.94   1
   7  -4  29    8.01    2.72   1
   7  -4  38   -1.30    4.31   1
   7  -4  39   27.98    6.03   1
   7  -4  40  -10.18    4.91   1
   7  -3 -32    9.30    3.11   1
   7  -3 -31  100.60    9.43   1
   7  -3 -30   -0.30    2.82   1
   7  -3 -29   18.66    3.37   1
   7  -3 -28   39.19    4.51   1
   7  -3 -27  229.52   11.21   1
   7  -3 -26    1.80    2.89   1
   7  -3 -25   95.65    6.85   1
   7  -3 -24   77.62    5.64   1
   7  -3 -23    5.71    2.58   1
   7  -3 -22    2.40    2.29   1
   7  -3 -21   13.03    3.03   1
   7  -3 -20    6.00    2.50   1
   7  -3 -19    6.30    1.91   1
   7  -3 -18   61.78    4.56   1
   7  -3 -17   10.18    2.68   1
   7  -3 -16    0.59    1.59   1
   7  -3 -15  401.60   19.64   1
   7  -3 -14   10.82    2.50   1
   7  -3 -13   74.65    4.67   1
   7  -3 -12  296.87   14.13   1
   7  -3  -1   27.56    1.78   1
   7  -3   0   40.96    2.56   1
   7  -3   1    7.67    1.61   1
   7  -3   2   61.15    3.44   1
   7  -3   4    1.59    1.49   1
   7  -3   5   18.32    2.14   1
   7  -3   6    3.39    1.58   1
   7  -3   7    0.79    1.19   1
   7  -3   8    6.00    1.91   1
   7  -3   9  585.16   22.74   1
   7  -3  10    0.59    1.29   1
   7  -3  11    0.20    1.31   1
   7  -3  12   39.82    3.15   1
   7  -3  13   11.29    2.02   1
   7  -3  14   21.90    2.81   1
   7  -3  17   21.53    3.06   1
   7  -3  24   67.57    6.08   1
   7  -3  27    0.59    1.89   1
   7  -3  39   28.84    4.94   1
   7  -2 -33   42.64    5.22   1
   7  -2 -32    1.30    3.31   1
   7  -2 -31    8.88    2.80   1
   7  -2 -30   28.94    3.66   1
   7  -2 -29    2.59    2.19   1
   7  -2 -28    2.19    2.40   1
   7  -2 -27  105.88    9.47   1
   7  -2 -26    9.00    2.82   1
   7  -2 -25   25.10    3.01   1
   7  -2 -24   -1.21    2.11   1
   7  -2 -23   29.92    3.94   1
   7  -2 -22    5.52    2.30   1
   7  -2 -21  259.21   16.42   1
   7  -2 -18   -1.39    2.19   1
   7  -2 -17   14.29    2.57   1
   7  -2 -16    9.00    2.52   1
   7  -2 -13  217.86   11.81   1
   7  -2  -6   90.44    5.71   1
   7  -2  -5   -1.49    1.10   1
   7  -2  -4   -0.20    1.31   1
   7  -2   3  220.23   10.39   1
   7  -2   4    2.69    1.51   1
   7  -2   5   55.06    4.45   1
   7  -2   6   18.58    2.07   1
   7  -2   7    1.80    1.21   1
   7  -2   8    4.88    1.50   1
   7  -2   9  175.83    8.49   1
   7  -2  10    1.99    1.49   1
   7  -2  11    3.50    1.68   1
   7  -2  12  127.01    6.31   1
   7  -2  13   11.83    2.27   1
   7  -2  14   -0.90    1.50   1
   7  -2  15   71.06    4.38   1
   7  -2  16    7.02    2.28   1
   7  -2  17   24.50    3.17   1
   7  -2  18   61.47    4.70   1
   7  -2  19    1.49    2.10   1
   7  -2  22    0.50    2.31   1
   7  -2  23   39.44    3.64   1
   7  -2  24    2.40    1.61   1
   7  -2  25    6.10    2.91   1
   7  -2  34   -1.00    2.70   1
   7  -2  40    4.41    3.32   1
   7  -2  41   15.13    5.84   1
   7  -1 -32    6.50    3.72   1
   7  -1 -31    6.10    2.72   1
   7  -1 -30   23.72    3.80   1
   7  -1 -29   -1.69    2.39   1
   7  -1 -28   31.14    4.80   1
   7  -1 -27   -0.10    1.52   1
   7  -1 -26   10.50    2.92   1
   7  -1 -25   31.02    4.01   1
   7  -1 -24  198.81   10.72   1
   7  -1 -23    0.50    1.90   1
   7  -1 -22    2.59    1.71   1
   7  -1 -20   22.66    3.14   1
   7  -1 -19   16.40    2.51   1
   7  -1 -18  253.45   12.10   1
   7  -1 -15  200.79   10.49   1
   7  -1  -8    3.31    1.42   1
   7  -1   0  147.38    8.74   1
   7  -1   4    2.40    1.80   1
   7  -1   5  142.09    9.54   1
   7  -1   6  143.28    8.38   1
   7  -1   7   39.44    3.64   1
   7  -1   7   40.96    2.82   1
   7  -1   8    2.89    1.39   1
   7  -1   8   -0.40    1.50   1
   7  -1   9  128.14    7.70   1
   7  -1  10   28.20    2.55   1
   7  -1  10   19.27    2.46   1
   7  -1  11    5.71    2.10   1
   7  -1  11    4.80    2.01   1
   7  -1  12  167.70    8.03   1
   7  -1  12  176.09    7.96   1
   7  -1  13    5.29    1.79   1
   7  -1  13    5.90    1.80   1
   7  -1  14   26.63    3.10   1
   7  -1  14   24.40    2.57   1
   7  -1  15   51.55    4.16   1
   7  -1  15   41.34    3.60   1
   7  -1  16    3.39    1.58   1
   7  -1  16    0.59    1.59   1
   7  -1  17    6.20    2.29   1
   7  -1  17   16.97    2.22   1
   7  -1  18  690.64   27.86   1
   7  -1  18  694.85   26.36   1
   7  -1  19   -1.10    1.60   1
   7  -1  19   -0.20    2.21   1
   7  -1  20   -0.90    1.50   1
   7  -1  20    0.50    2.10   1
   7  -1  21   18.49    3.18   1
   7  -1  21   16.73    2.78   1
   7  -1  22    0.20    2.11   1
   7  -1  23    4.00    2.72   1
   7  -1  24    2.99    2.60   1
   7  -1  25   33.76    3.72   1
   7  -1  26    0.50    2.71   1
   7  -1  29   21.44    4.17   1
   7  -1  32    6.10    3.51   1
   7  -1  33    3.69    2.61   1
   7  -1  34    1.99    3.98   1
   7  -1  35   -0.20    3.22   1
   7  -1  36  193.77   13.08   1
   7  -1  37    3.20    3.01   1
   7  -1  38    6.30    4.82   1
   7  -1  39   -4.28    3.19   1
   7   0 -28   48.16    4.44   1
   7   0 -26    3.39    2.39   1
   7   0 -24    0.20    1.51   1
   7   0 -20    2.10    2.09   1
   7   0   2    4.08    1.78   1
   7   0   8    9.30    2.01   1
   7   0  10    0.00    1.00   1
   7   0  10    0.40    1.30   1
   7   0  12  439.74   17.20   1
   7   0  12  419.84   21.72   1
   7   0  14    4.28    1.78   1
   7   0  14    2.59    1.71   1
   7   0  16   21.90    2.90   1
   7   0  16   24.60    3.17   1
   7   0  18    4.58    2.31   1
   7   0  18   -1.10    1.81   1
   7   0  20   34.34    3.05   1
   7   0  20   36.72    3.76   1
   7   0  22    4.41    2.81   1
   7   0  24  400.80   16.82   1
   7   0  26   80.64    6.29   1
   7   0  28   21.72    3.73   1
   7   0  30   31.25    4.58   1
   7   0  32    4.08    3.60   1
   7   0  34   25.70    4.46   1
   7   0  38   41.73    6.59   1
   7   1 -23    0.90    1.60   1
   7   1 -18  210.83   14.23   1
   7   1 -14   10.18    2.17   1
   7   1   0  158.00    7.79   1
   7   1   1    3.61    1.79   1
   7   1   2   73.79    5.67   1
   7   1   5  157.25    8.78   1
   7   1   6  113.00    8.93   1
   7   1   7   40.07    3.54   1
   7   1   8    1.00    1.50   1
   7   1   9  124.32    5.80   1
   7   1  10   30.69    2.77   1
   7   1  11    2.89    1.80   1
   7   1  12  180.90    7.80   1
   7   1  13    4.28    1.70   1
   7   1  13    3.69    2.11   1
   7   1  14   17.22    2.74   1
   7   1  14   25.60    2.73   1
   7   1  15   39.94    3.03   1
   7   1  15   58.68    4.29   1
   7   1  16    0.79    1.50   1
   7   1  16    1.00    2.10   1
   7   1  17    8.01    1.81   1
   7   1  17   10.63    2.61   1
   7   1  18  669.26   25.35   1
   7   1  18  657.41   30.26   1
   7   1  19    0.59    1.69   1
   7   1  19    1.00    2.40   1
   7   1  20    0.79    2.49   1
   7   1  21   18.23    2.73   1
   7   1  22    2.79    2.30   1
   7   1  23    6.10    2.62   1
   7   1  24    3.20    2.61   1
   7   1  25   41.34    4.12   1
   7   1  26    1.69    2.00   1
   7   1  27    5.20    2.60   1
   7   1  28    9.49    2.90   1
   7   1  29   12.53    3.12   1
   7   1  30   48.02    5.68   1
   7   1  31    6.50    3.52   1
   7   1  32    4.20    4.10   1
   7   1  33   -1.21    3.72   1
   7   1  34    3.69    3.99   1
   7   1  35   -1.39    3.09   1
   7   1  36  170.30   13.57   1
   7   1  37    7.90    4.72   1
   7   1  38    1.69    3.09   1
   7   1  39    6.60    5.29   1
   7   1  40   12.11    5.57   1
   7   1  41   -1.49    4.07   1
   7   2  -5   -0.30    1.80   1
   7   2  -2    2.79    1.80   1
   7   2  -1   80.28    6.27   1
   7   2   0    4.00    1.80   1
   7   2   1    2.31    1.49   1
   7   2   2   -0.20    1.01   1
   7   2   3  181.17   11.31   1
   7   2   4    0.90    1.60   1
   7   2   5   40.96    4.35   1
   7   2   6   18.23    2.13   1
   7   2   7    0.50    1.70   1
   7   2   8    4.41    1.89   1
   7   2   9  176.89   10.11   1
   7   2  10    4.28    1.78   1
   7   2  11    0.40    1.59   1
   7   2  12  114.49    6.85   1
   7   2  13    5.81    1.78   1
   7   2  14    1.49    2.00   1
   7   2  15   71.06    6.41   1
   7   2  15   69.22    5.32   1
   7   2  16    8.01    2.21   1
   7   2  16    8.18    2.12   1
   7   2  17   27.04    2.29   1
   7   2  17   37.33    3.67   1
   7   2  18   56.70    4.07   1
   7   2  18   52.85    3.34   1
   7   2  19   -2.59    2.29   1
   7   2  19   -1.10    1.70   1
   7   2  20    8.82    2.61   1
   7   2  21  152.77   10.14   1
   7   2  22    0.50    2.31   1
   7   2  23   37.33    4.64   1
   7   2  24    3.20    2.79   1
   7   2  25   -1.00    2.90   1
   7   2  26    8.18    3.37   1
   7   2  27    3.10    3.20   1
   7   2  28    6.60    3.50   1
   7   2  29    1.49    2.88   1
   7   2  30   70.22    6.70   1
   7   2  31    1.10    3.80   1
   7   2  32    3.61    4.10   1
   7   2  33   39.94    5.94   1
   7   2  34   -2.10    3.60   1
   7   2  35   -0.50    4.12   1
   7   2  36    3.39    3.50   1
   7   2  37   11.42    4.80   1
   7   2  38   -3.50    5.01   1
   7   2  39  152.28   11.60   1
   7   2  40   -5.52    3.29   1
   7   3  17   19.62    3.54   1
   7   3  18   29.59    3.05   1
   7   3  19   12.11    3.48   1
   7   3  20   10.89    2.71   1
   7   3  21   43.16    4.60   1
   7   3  22   23.72    3.70   1
   7   3  23   72.25    6.46   1
   7   3  24   71.74    6.44   1
   7   3  25   -0.71    3.31   1
   7   3  26   -1.30    2.80   1
   7   3  27    3.39    3.09   1
   7   3  28   -0.71    3.01   1
   7   3  30    7.78    2.68   1
   7   3  31   -3.61    2.51   1
   7   3  32    2.79    3.11   1
   7   3  33   42.12    6.10   1
   7   3  34    1.00    3.00   1
   7   3  35   11.90    4.69   1
   7   3  36    6.20    4.58   1
   7   3  37   -1.59    4.18   1
   7   3  38    1.69    4.68   1
   7   3  40   -1.21    4.62   1
   7   4  19    5.02    2.69   1
   7   4  20    4.41    3.11   1
   7   4  21    1.30    3.31   1
   7   4  22    4.88    3.09   1
   7   4  23   -1.10    2.90   1
   7   4  24   -2.79    2.81   1
   7   4  25    2.50    2.81   1
   7   4  26   42.64    5.49   1
   7   4  27    1.59    3.10   1
   7   4  28    5.90    3.69   1
   7   4  29    8.88    3.28   1
   7   4  30   30.25    5.06   1
   7   4  31   -0.71    2.30   1
   7   4  32    0.20    3.73   1
   7   4  33   21.44    5.00   1
   7   4  34    0.40    4.78   1
   7   4  35    0.59    3.28   1
   7   4  36   15.13    3.97   1
   7   4  37   -3.20    3.79   1
   7   4  38   -6.71    5.02   1
   7   4  39   30.58   19.13   1
   7   5  20   14.06    3.38   1
   7   5  21   41.86    4.53   1
   7   5  22    4.41    3.32   1
   7   5  23    5.20    3.19   1
   7   5  24    6.40    2.58   1
   7   5  25   15.52    4.18   1
   7   5  26   12.53    4.11   1
   7   5  27   -0.20    2.21   1
   7   5  28    0.90    4.20   1
   7   5  29    4.00    3.60   1
   7   5  30   -3.20    4.01   1
   7   5  31    3.88    3.98   1
   7   5  32    7.29    4.70   1
   7   5  33    3.69    4.49   1
   7   5  34   -1.69    4.39   1
   7   5  35    4.00    4.48   1
   7   5  36   19.89    5.44   1
   7   5  37   -2.99    5.09   1
   7   6  21    3.10    3.20   1
   7   6  22   -1.80    3.30   1
   7   6  23    6.10    3.80   1
   7   6  24   50.55    4.98   1
   7   6  25    0.50    3.01   1
   7   6  26   -3.69    3.69   1
   7   6  27    0.79    2.49   1
   7   6  28    3.31    4.11   1
   7   6  29    4.20    4.10   1
   7   6  30   10.63    4.63   1
   7   6  31    8.29    4.09   1
   7   6  32   -0.30    4.62   1
   7   6  33    1.21    3.41   1
   7   6  34   -0.10    3.54   1
   7   6  35   -5.02    3.40   1
   7   7  22   -1.49    2.39   1
   7   7  23   23.14    4.33   1
   7   7  24   36.00    5.40   1
   7   7  25    0.10    3.85   1
   7   7  26    1.80    3.81   1
   7   7  27    4.28    4.68   1
   7   7  28    8.41    3.31   1
   7   7  29   -0.50    4.52   1
   7   7  30    3.80    4.80   1
   7   7  31   -6.10    4.59   1
   7   7  32   -5.52    5.12   1
   7   7  33   -0.90    5.21   1
   7   8  23    0.20    4.12   1
   7   8  24   13.69    4.07   1
   7   8  25   -3.20    3.90   1
   7   8  26    0.30    3.92   1
   7   8  28   -0.50    5.23   1
   7   8  29   -3.20    4.69   1
   7   8  30   20.34    5.68   1
   7   8  31   10.18    5.81   1
   7   9  23   -0.90    4.31   1
   7   9  24    4.41    4.20   1
   7   9  25    4.08    4.89   1
   7   9  26    3.39    5.48   1
   7   9  27   33.76    6.62   1
   7   9  28   -2.79    5.18   1
   7  10  23   -4.20    3.20   1
   7  10  24   -2.69    5.48   1
   8  -8 -28   11.02    4.58   1
   8  -7 -29   -6.81    4.02   1
   8  -7 -28    4.49    3.82   1
   8  -7 -27   65.45    7.28   1
   8  -7 -26    2.31    3.80   1
   8  -7 -25    6.10    2.91   1
   8  -6 -30    1.49    3.68   1
   8  -6 -29    4.88    3.80   1
   8  -6 -28   -0.90    2.30   1
   8  -6 -27   10.89    3.70   1
   8  -6 -26   -0.30    3.92   1
   8  -6 -25   32.38    5.12   1
   8  -6 -24   85.56    7.77   1
   8  -5 -31    4.20    3.40   1
   8  -5 -30   17.31    4.91   1
   8  -5 -29    5.11    3.62   1
   8  -5 -28    7.29    3.89   1
   8  -5 -27    5.38    3.29   1
   8  -5 -26    3.50    3.40   1
   8  -5 -25   13.32    3.50   1
   8  -5 -24    2.89    2.99   1
   8  -5 -22   -0.71    3.31   1
   8  -5 -21   64.00    6.24   1
   8  -5 -20   -0.59    1.79   1
   8  -5 -19    4.71    3.30   1
   8  -5  30   26.73    5.07   1
   8  -5  31   -1.90    3.70   1
   8  -5  32    0.30    4.11   1
   8  -5  33   19.80    5.16   1
   8  -5  34   -1.99    2.48   1
   8  -5  35   -1.10    4.30   1
   8  -5  36   10.37    4.89   1
   8  -4 -32    7.90    3.71   1
   8  -4 -31    6.40    4.20   1
   8  -4 -30    1.69    3.90   1
   8  -4 -29   13.91    3.80   1
   8  -4 -28   27.88    4.96   1
   8  -4 -27    8.70    2.71   1
   8  -4 -26    6.20    3.49   1
   8  -4 -25    5.71    3.39   1
   8  -4 -24   60.84    5.77   1
   8  -4 -21    1.00    3.20   1
   8  -4 -14   13.18    2.69   1
   8  -4  13    7.67    2.11   1
   8  -4  14    0.00    1.00   1
   8  -4  16   22.00    2.72   1
   8  -4  37    9.92    4.60   1
   8  -3 -33    6.50    3.52   1
   8  -3 -32   -1.99    3.19   1
   8  -3 -31   81.90    7.78   1
   8  -3 -30   17.22    3.40   1
   8  -3 -29    1.49    3.49   1
   8  -3 -28   -4.49    3.31   1
   8  -3 -27  142.56    8.60   1
   8  -3 -26   13.76    4.08   1
   8  -3 -25    8.41    3.31   1
   8  -3 -24    1.99    2.00   1
   8  -3 -23    8.88    3.52   1
   8  -3 -22   10.89    3.30   1
   8  -3 -21  135.26   10.93   1
   8  -3 -20    1.99    2.40   1
   8  -3 -15  284.60   13.50   1
   8  -3 -14    8.53    2.92   1
   8  -3 -11   17.39    2.42   1
   8  -3   3  209.96   10.43   1
   8  -3   4    7.62    1.99   1
   8  -3   5    1.21    1.80   1
   8  -3   6   41.22    3.21   1
   8  -3   7    0.79    1.80   1
   8  -3   8    2.79    1.70   1
   8  -3   9  419.84   20.49   1
   8  -3  10    5.38    1.90   1
   8  -3  11   72.08    5.26   1
   8  -3  14   10.37    2.32   1
   8  -3  15  430.98   17.44   1
   8  -3  18    8.88    2.50   1
   8  -3  34    1.59    3.28   1
   8  -3  37    9.30    5.43   1
   8  -3  38    2.79    3.61   1
   8  -2 -34    1.00    3.70   1
   8  -2 -33    8.18    3.72   1
   8  -2 -32    0.10    3.44   1
   8  -2 -31  119.25    8.08   1
   8  -2 -30   -0.71    3.21   1
   8  -2 -29   32.26    5.00   1
   8  -2 -26    1.39    3.00   1
   8  -2 -25   57.91    4.87   1
   8  -2 -20    7.29    2.81   1
   8  -2 -19    2.10    2.00   1
   8  -2 -13  101.61    6.45   1
   8  -2   2   23.23    3.47   1
   8  -2   3  144.96    6.50   1
   8  -2   4    5.81    1.49   1
   8  -2   5   71.06    4.89   1
   8  -2   6   13.18    2.11   1
   8  -2   7   10.30    2.18   1
   8  -2   7    8.18    2.17   1
   8  -2   8   88.55    5.83   1
   8  -2   8   92.93    5.40   1
   8  -2   9  172.92    8.94   1
   8  -2   9  185.50    7.90   1
   8  -2  10   51.55    3.88   1
   8  -2  10   57.76    4.26   1
   8  -2  11    7.29    2.21   1
   8  -2  11    1.00    2.20   1
   8  -2  12   30.80    3.44   1
   8  -2  12   29.38    2.60   1
   8  -2  13    0.71    2.20   1
   8  -2  13    2.31    2.01   1
   8  -2  14    4.49    2.29   1
   8  -2  14   -0.71    1.92   1
   8  -2  15   33.76    3.25   1
   8  -2  15   32.15    3.86   1
   8  -2  16    0.40    2.09   1
   8  -2  16    1.39    1.89   1
   8  -2  17   33.41    3.70   1
   8  -2  17   26.83    3.11   1
   8  -2  18   39.94    4.30   1
   8  -2  18   34.57    4.00   1
   8  -2  19    7.02    2.23   1
   8  -2  19    8.29    2.82   1
   8  -2  20   55.20    4.90   1
   8  -2  20   68.23    4.46   1
   8  -2  21    3.39    2.69   1
   8  -2  22   16.89    3.21   1
   8  -2  25    4.49    3.01   1
   8  -2  36   24.80    4.58   1
   8  -2  39   36.72    6.67   1
   8  -1 -33   14.67    3.83   1
   8  -1 -32   -4.00    2.80   1
   8  -1 -31   34.22    4.80   1
   8  -1 -30   27.98    4.34   1
   8  -1 -29   14.67    4.06   1
   8  -1 -26   -3.39    2.50   1
   8  -1 -17   14.90    2.47   1
   8  -1 -13   40.83    4.35   1
   8  -1   2    0.59    1.99   1
   8  -1   5   79.74    5.36   1
   8  -1   6  478.30   19.25   1
   8  -1   7    2.69    1.90   1
   8  -1   7    3.20    1.72   1
   8  -1   8   -1.59    1.69   1
   8  -1   9    7.29    2.32   1
   8  -1  10   -1.10    1.70   1
   8  -1  10   -1.49    1.78   1
   8  -1  11    1.69    2.00   1
   8  -1  11    0.00    1.00   1
   8  -1  12  287.98   15.27   1
   8  -1  12  296.87   16.54   1
   8  -1  13    0.71    2.20   1
   8  -1  13    3.31    2.22   1
   8  -1  14    4.41    2.02   1
   8  -1  14    8.29    2.30   1
   8  -1  15   50.98    4.57   1
   8  -1  15   38.94    3.74   1
   8  -1  16   -2.10    1.91   1
   8  -1  16    2.50    2.31   1
   8  -1  17    2.10    2.00   1
   8  -1  17    2.59    2.19   1
   8  -1  18    7.40    2.28   1
   8  -1  18    4.88    2.21   1
   8  -1  19   -0.50    1.90   1
   8  -1  19   -0.79    2.58   1
   8  -1  20   34.46    3.05   1
   8  -1  20   43.16    3.68   1
   8  -1  21  337.09   15.06   1
   8  -1  22   -0.59    2.48   1
   8  -1  23    5.29    2.90   1
   8  -1  24   82.81    6.92   1
   8  -1  25    1.69    3.09   1
   8  -1  26    2.31    3.22   1
   8  -1  27   -3.10    2.60   1
   8  -1  30  140.90    8.78   1
   8  -1  31    4.08    2.91   1
   8  -1  32    0.10    4.15   1
   8  -1  39   18.06    6.38   1
   8   0 -16    1.10    1.51   1
   8   0   2   49.84    4.09   1
   8   0   4    6.00    2.20   1
   8   0   6    8.41    2.03   1
   8   0   8   30.58    2.88   1
   8   0  10    3.80    2.18   1
   8   0  10    3.20    2.18   1
   8   0  12   96.63    6.29   1
   8   0  12   95.06    6.44   1
   8   0  14    0.40    1.89   1
   8   0  14    2.89    1.90   1
   8   0  16    1.49    2.20   1
   8   0  16    0.30    2.21   1
   8   0  18  665.64   34.57   1
   8   0  18  713.42   32.59   1
   8   0  20  159.77   10.11   1
   8   0  22    4.80    2.89   1
   8   0  26   84.82    7.55   1
   8   0  28    0.71    3.21   1
   8   0  30  133.40   11.55   1
   8   0  32   15.29    4.54   1
   8   0  34   -2.50    3.10   1
   8   0  36  234.09   15.30   1
   8   0  38   -6.00    4.90   1
   8   1 -19   14.52    2.44   1
   8   1  -1   21.62    2.60   1
   8   1   2   -2.31    1.79   1
   8   1   3    2.79    2.00   1
   8   1   4   11.09    2.33   1
   8   1   5   73.27    4.45   1
   8   1   6  405.62   17.32   1
   8   1   7    3.50    2.21   1
   8   1   8   -0.59    1.89   1
   8   1   9    9.80    2.38   1
   8   1  10   -0.20    1.31   1
   8   1  11    1.39    1.70   1
   8   1  12  296.18   17.21   1
   8   1  13    2.50    2.09   1
   8   1  13    1.59    2.29   1
   8   1  14    5.62    2.51   1
   8   1  14    5.38    1.48   1
   8   1  15   35.88    3.35   1
   8   1  15   54.76    4.74   1
   8   1  16    1.90    2.29   1
   8   1  16    0.10    1.72   1
   8   1  17    0.40    1.79   1
   8   1  17    1.39    2.50   1
   8   1  18    4.71    2.52   1
   8   1  18    4.41    2.02   1
   8   1  19    1.69    2.50   1
   8   1  20   41.09    3.85   1
   8   1  21  284.60   17.54   1
   8   1  22    5.29    3.08   1
   8   1  23    3.39    3.20   1
   8   1  24   94.67    7.01   1
   8   1  25    8.82    3.50   1
   8   1  26    3.20    3.40   1
   8   1  27    0.50    3.11   1
   8   1  28    8.88    3.99   1
   8   1  29    7.62    3.92   1
   8   1  30  127.46    9.26   1
   8   1  31    4.20    4.10   1
   8   1  33   43.82    6.22   1
   8   1  34   10.82    5.00   1
   8   1  35    9.00    4.62   1
   8   1  38    2.99    5.19   1
   8   2 -16   42.12    4.15   1
   8   2 -12  148.84    7.56   1
   8   2  -8    4.58    2.31   1
   8   2  -3    3.88    2.21   1
   8   2  -2    7.40    2.18   1
   8   2  -1   14.52    2.21   1
   8   2   0   36.97    3.53   1
   8   2   1   10.50    2.40   1
   8   2   2   26.42    2.78   1
   8   2   3  150.80    8.10   1
   8   2   4    6.50    2.09   1
   8   2   5   73.79    4.47   1
   8   2   6   10.69    2.42   1
   8   2   7    9.00    2.22   1
   8   2   8   81.72    5.97   1
   8   2   9  171.61    9.69   1
   8   2  10   42.25    4.16   1
   8   2  11    5.38    2.18   1
   8   2  12   25.00    3.30   1
   8   2  13   -1.00    1.90   1
   8   2  14    0.20    1.71   1
   8   2  15   43.56    3.96   1
   8   2  15   38.19    4.20   1
   8   2  16    0.20    2.02   1
   8   2  16    0.30    1.71   1
   8   2  17   29.92    3.39   1
   8   2  17   31.81    3.38   1
   8   2  18   33.18    3.92   1
   8   2  18   37.45    3.30   1
   8   2  19    4.71    2.82   1
   8   2  20   63.04    4.92   1
   8   2  21    1.80    3.00   1
   8   2  22   11.09    3.13   1
   8   2  23    0.79    2.69   1
   8   2  24   26.01    3.06   1
   8   2  25   -1.39    2.90   1
   8   2  26   65.45    5.02   1
   8   2  27  200.79   11.34   1
   8   2  28    6.71    3.63   1
   8   2  30   -0.50    4.42   1
   8   2  31    5.62    4.22   1
   8   2  32    1.90    4.11   1
   8   2  33   21.44    5.37   1
   8   2  34    3.88    3.59   1
   8   2  35    2.79    5.18   1
   8   2  36   24.21    5.61   1
   8   2  37    8.01    5.32   1
   8   3  17   51.70    4.75   1
   8   3  18    3.50    2.09   1
   8   3  19    2.79    2.71   1
   8   3  20    1.90    1.90   1
   8   3  21   17.98    3.14   1
   8   3  22    7.67    3.21   1
   8   3  23    0.30    2.01   1
   8   3  24    0.10    3.14   1
   8   3  25   -1.69    3.30   1
   8   3  26   20.70    4.37   1
   8   3  27   34.93    5.91   1
   8   3  28    1.21    4.03   1
   8   3  29   11.97    3.32   1
   8   3  30    3.80    3.32   1
   8   3  31    1.39    3.00   1
   8   3  32    5.20    3.42   1
   8   3  33   38.19    6.06   1
   8   3  34    6.10    5.29   1
   8   3  35    2.40    4.40   1
   8   3  36    8.12    4.50   1
   8   4  18    0.30    2.01   1
   8   4  19    2.10    2.90   1
   8   4  20    1.21    3.41   1
   8   4  21  111.09    7.80   1
   8   4  22    6.81    3.81   1
   8   4  23   30.36    4.85   1
   8   4  24   74.13    6.37   1
   8   4  25    5.62    3.79   1
   8   4  26   -3.10    3.20   1
   8   4  27    3.50    3.81   1
   8   4  28    1.30    2.69   1
   8   4  29    1.69    2.89   1
   8   4  30    1.21    2.90   1
   8   4  31    4.00    4.60   1
   8   4  32    2.79    4.38   1
   8   4  33   -2.40    4.90   1
   8   4  34   -5.29    3.50   1
   8   4  36    0.00    1.00   1
   8   5  20   13.03    3.90   1
   8   5  21   95.26    8.59   1
   8   5  22   28.41    5.44   1
   8   5  23   12.67    3.99   1
   8   5  24    8.12    3.48   1
   8   5  25    3.10    2.89   1
   8   5  26   -4.08    3.60   1
   8   5  27   29.05    5.28   1
   8   5  28    0.79    4.08   1
   8   5  29    1.10    4.20   1
   8   5  30   23.23    5.69   1
   8   5  31   -2.79    4.17   1
   8   5  32    2.50    3.19   1
   8   5  33   29.59    5.55   1
   8   5  34   -5.62    3.60   1
   8   6  21   -2.40    3.41   1
   8   6  22    2.79    3.51   1
   8   6  23   -0.50    3.51   1
   8   6  24   -1.30    2.80   1
   8   6  25    7.18    3.81   1
   8   6  26    0.00    1.00   1
   8   6  27    5.20    4.51   1
   8   6  28   -1.10    4.30   1
   8   6  29    3.80    3.59   1
   8   6  30    2.50    3.41   1
   8   6  31   -1.69    5.17   1
   8   7  22    3.31    3.89   1
   8   7  23    2.19    3.79   1
   8   7  24  103.02    9.13   1
   8   7  25   -1.30    3.01   1
   8   7  26   -0.71    4.52   1
   8   7  27   -1.00    5.00   1
   8   7  28   -1.39    4.48   1
   8   7  29   13.91    5.07   1
   8   7  30    7.40    5.60   1
   8   7  31   -3.80    4.09   1
   8   8  23   22.47    5.31   1
   8   8  24   -4.00    4.80   1
   8   8  25   -4.80    4.60   1
   8   8  26    1.49    4.88   1
   8   8  27   19.10    5.68   1
   8   9  24    2.69    3.90   1
   9  -8 -29   -3.39    5.48   1
   9  -8 -28    7.62    5.52   1
   9  -8 -27    4.28    5.17   1
   9  -8 -26   -3.31    4.51   1
   9  -8 -25   21.81    5.51   1
   9  -7 -30   -6.50    4.79   1
   9  -7 -29   12.18    5.51   1
   9  -7 -28   -3.61    4.29   1
   9  -7 -27    1.10    4.41   1
   9  -7 -26    1.90    4.20   1
   9  -7 -25    2.99    4.19   1
   9  -7 -24   40.45    5.85   1
   9  -6 -31    2.69    4.79   1
   9  -6 -30   10.37    5.41   1
   9  -6 -29    3.80    4.02   1
   9  -6 -28    0.40    2.60   1
   9  -6 -27   16.40    4.78   1
   9  -6 -26    3.69    3.69   1
   9  -6 -23    2.40    4.00   1
   9  -6 -22   -2.19    3.49   1
   9  -6 -21    8.70    4.01   1
   9  -6 -20    1.10    3.91   1
   9  -5 -30    2.99    4.29   1
   9  -5 -29    3.61    4.10   1
   9  -5 -28   53.73    6.45   1
   9  -5 -25   11.42    4.93   1
   9  -5 -20    0.30    3.41   1
   9  -5 -19   20.79    4.20   1
   9  -5 -18  106.30    7.84   1
   9  -5 -14    6.40    2.68   1
   9  -4 -33   17.81    4.30   1
   9  -4 -30   57.15    6.35   1
   9  -4 -29    2.59    3.99   1
   9  -4 -28    2.50    3.70   1
   9  -4 -27   16.73    3.52   1
   9  -4 -26    1.00    4.90   1
   9  -4 -23    6.40    3.29   1
   9  -4 -22   -0.59    2.19   1
   9  -4 -17   10.89    3.10   1
   9  -4 -16   12.39    3.52   1
   9  -4 -15   11.49    3.59   1
   9  -4 -12   14.36    2.80   1
   9  -4 -11   29.81    3.60   1
   9  -4 -10   38.94    4.12   1
   9  -4  -8   15.76    2.78   1
   9  -3 -33   16.89    4.77   1
   9  -3 -32    7.40    4.41   1
   9  -3 -31    2.31    3.50   1
   9  -3 -30   -5.29    4.09   1
   9  -3 -28    6.92    3.79   1
   9  -3 -27   23.81    4.49   1
   9  -3 -26    2.10    2.29   1
   9  -3 -25    2.31    3.50   1
   9  -3 -20    0.40    2.39   1
   9  -3 -17    1.99    1.89   1
   9  -3 -12   35.64    4.06   1
   9  -3 -11    0.30    2.11   1
   9  -3 -10   -1.00    1.80   1
   9  -3  -9  181.71   14.83   1
   9  -3  -6   51.27    5.16   1
   9  -3   1    0.10    2.33   1
   9  -3   2    6.71    2.80   1
   9  -3  17    2.99    2.70   1
   9  -3  19   -0.40    2.68   1
   9  -3  20    1.39    3.00   1
   9  -3  26   -0.50    2.31   1
   9  -2 -34   10.11    4.39   1
   9  -2 -32    5.29    3.91   1
   9  -2 -31   13.69    4.29   1
   9  -2 -30    2.40    3.91   1
   9  -2 -29    0.40    2.49   1
   9  -2 -28   11.90    3.80   1
   9  -2 -25    2.79    3.01   1
   9  -2 -24   11.29    2.82   1
   9  -2 -19    5.02    2.20   1
   9  -2 -15   91.01    7.44   1
   9  -2 -14    3.10    2.01   1
   9  -2  -5   19.01    3.14   1
   9  -2  -4   -2.79    2.20   1
   9  -2   3   61.94    3.93   1
   9  -2   4    9.12    2.17   1
   9  -2   4   16.89    3.29   1
   9  -2   5    9.00    2.88   1
   9  -2   5    4.20    1.89   1
   9  -2   6   54.46    4.13   1
   9  -2   6   56.40    5.71   1
   9  -2   7    2.50    1.80   1
   9  -2   7    4.49    1.78   1
   9  -2   8    0.79    2.08   1
   9  -2   8    1.49    2.68   1
   9  -2   9   43.96    4.64   1
   9  -2   9   51.27    4.73   1
   9  -2  10   -0.10    2.23   1
   9  -2  10   -1.90    2.01   1
   9  -2  11    1.59    2.49   1
   9  -2  11    1.59    2.19   1
   9  -2  12   93.12    7.91   1
   9  -2  12   87.98    6.94   1
   9  -2  13   -2.99    2.39   1
   9  -2  13   -1.30    1.89   1
   9  -2  14   15.92    2.87   1
   9  -2  14   19.36    3.08   1
   9  -2  15  244.92   10.33   1
   9  -2  15  212.28   11.95   1
   9  -2  16   15.29    3.36   1
   9  -2  16   15.92    3.59   1
   9  -2  17   -1.21    2.51   1
   9  -2  17    1.69    2.60   1
   9  -2  18   -1.80    2.20   1
   9  -2  18    2.31    2.40   1
   9  -2  19    5.38    2.78   1
   9  -2  21   35.16    4.15   1
   9  -2  22   28.94    4.63   1
   9  -2  25   -0.10    3.03   1
   9  -2  32    6.50    3.31   1
   9  -2  33   60.84    7.49   1
   9  -1 -33    0.79    2.88   1
   9  -1 -31   88.55    8.66   1
   9  -1 -26    2.19    3.49   1
   9  -1 -25    4.28    2.48   1
   9  -1 -14   -0.10    1.82   1
   9  -1 -13   16.00    2.72   1
   9  -1 -12  153.51   10.90   1
   9  -1   0  142.32    7.64   1
   9  -1   3    6.20    2.19   1
   9  -1   4   -4.28    2.19   1
   9  -1   5    9.42    2.70   1
   9  -1   6    2.19    1.89   1
   9  -1   6    8.01    2.72   1
   9  -1   7    4.00    2.60   1
   9  -1   7   -1.10    2.20   1
   9  -1   8    2.19    2.10   1
   9  -1   8   -0.59    2.19   1
   9  -1   9   51.27    4.15   1
   9  -1   9   48.86    4.05   1
   9  -1  10    2.31    2.31   1
   9  -1  10    2.99    2.28   1
   9  -1  11    8.82    2.08   1
   9  -1  11    6.60    2.31   1
   9  -1  12   47.47    4.96   1
   9  -1  12   36.24    3.97   1
   9  -1  13   -0.50    2.41   1
   9  -1  13   -0.30    2.11   1
   9  -1  14    1.99    2.48   1
   9  -1  14    3.61    2.51   1
   9  -1  15   16.73    3.11   1
   9  -1  15   25.50    3.84   1
   9  -1  16    9.67    2.67   1
   9  -1  16    7.67    2.99   1
   9  -1  17   -2.99    2.21   1
   9  -1  17    1.80    2.49   1
   9  -1  18  112.57    7.00   1
   9  -1  18  112.57    7.21   1
   9  -1  19    6.00    2.70   1
   9  -1  19    0.10    3.03   1
   9  -1  20    8.01    3.23   1
   9  -1  21   17.89    3.98   1
   9  -1  22   13.99    3.52   1
   9  -1  23    3.10    3.48   1
   9  -1  26    3.80    3.39   1
   9  -1  27   44.22    4.79   1
   9  -1  30   22.18    4.71   1
   9  -1  31   -1.49    3.10   1
   9  -1  32    6.10    4.10   1
   9   0   0   27.35    3.35   1
   9   0   4    4.80    2.50   1
   9   0   6  116.86    7.13   1
   9   0   8    1.21    2.11   1
   9   0  10    0.79    2.19   1
   9   0  10   -0.79    2.30   1
   9   0  12  265.36   13.68   1
   9   0  12  264.71   14.32   1
   9   0  14    0.20    2.31   1
   9   0  14    3.39    2.39   1
   9   0  16    5.20    2.51   1
   9   0  16    5.90    3.11   1
   9   0  18    1.99    2.28   1
   9   0  18    9.00    8.82   1
   9   0  20  214.33   12.00   1
   9   0  22    1.59    3.00   1
   9   0  24    1.59    3.38   1
   9   0  26   74.82    7.09   1
   9   0  28   -7.78    3.68   1
   9   0  30  220.82   13.67   1
   9   0  32   -1.80    4.10   1
   9   0  34    0.59    3.28   1
   9   0  36   17.81    6.58   1
   9   1  -1    4.41    1.89   1
   9   1   2    8.41    2.61   1
   9   1   3    5.29    2.58   1
   9   1   4    1.69    1.69   1
   9   1   5    9.61    2.29   1
   9   1   6    6.71    1.92   1
   9   1   7    0.20    1.51   1
   9   1   8    2.99    2.11   1
   9   1   9   54.76    4.14   1
   9   1  10    2.40    2.11   1
   9   1  11    2.99    1.70   1
   9   1  12   38.32    3.71   1
   9   1  12   45.43    4.04   1
   9   1  13   -2.19    2.40   1
   9   1  13    1.30    2.10   1
   9   1  14    2.50    2.21   1
   9   1  14    4.08    2.91   1
   9   1  15   27.46    3.46   1
   9   1  15   27.25    3.34   1
   9   1  16    1.90    3.01   1
   9   1  16    7.08    2.50   1
   9   1  17    3.20    2.29   1
   9   1  17   -1.00    1.70   1
   9   1  18  121.22    7.05   1
   9   1  19    2.99    2.91   1
   9   1  20    6.30    3.51   1
   9   1  21   25.20    4.42   1
   9   1  22    6.50    3.52   1
   9   1  23    2.99    3.18   1
   9   1  24  120.78    8.35   1
   9   1  25   11.02    3.92   1
   9   1  26   -0.10    3.85   1
   9   1  27   57.46    6.22   1
   9   1  28   -2.50    3.00   1
   9   1  29    0.50    3.11   1
   9   1  30   16.56    4.72   1
   9   1  31    5.71    4.59   1
   9   1  32    9.30    4.57   1
   9   1  33   32.04    6.00   1
   9   1  35   -6.20    4.88   1
   9   1  36   56.55    8.27   1
   9   2  -7    2.19    2.69   1
   9   2  -6   79.39    8.20   1
   9   2  -5   14.90    2.78   1
   9   2  -4    0.30    1.71   1
   9   2  -1    0.10    2.02   1
   9   2   2   11.09    2.73   1
   9   2   3   59.60    4.94   1
   9   2   4    7.18    2.79   1
   9   2   5    3.50    2.21   1
   9   2   6   49.14    3.79   1
   9   2   7    1.59    2.19   1
   9   2   8    2.19    1.98   1
   9   2   9   49.84    3.95   1
   9   2  10    1.69    1.79   1
   9   2  11    1.00    2.30   1
   9   2  12   86.49    8.18   1
   9   2  13   -0.71    2.20   1
   9   2  14   22.66    3.24   1
   9   2  15  218.15   10.04   1
   9   2  15  203.06   15.39   1
   9   2  16   14.90    3.01   1
   9   2  16    8.41    2.90   1
   9   2  17   -2.50    2.21   1
   9   2  17   -2.89    2.48   1
   9   2  18    1.00    2.90   1
   9   2  19    5.11    2.62   1
   9   2  20   39.19    4.76   1
   9   2  21   27.25    4.28   1
   9   2  22   36.36    4.34   1
   9   2  23   47.47    5.93   1
   9   2  24   44.76    5.22   1
   9   2  25    3.31    3.31   1
   9   2  26   38.19    4.94   1
   9   2  27   66.75    6.70   1
   9   2  28    0.50    3.11   1
   9   2  29    1.49    3.10   1
   9   2  31    4.00    4.32   1
   9   2  32   10.69    4.90   1
   9   2  33   78.15    6.90   1
   9   2  34    8.82    6.00   1
   9   2  35   -5.02    4.52   1
   9   3  16   -0.71    2.02   1
   9   3  17    1.49    3.20   1
   9   3  18   55.95    5.54   1
   9   3  19   -3.80    2.89   1
   9   3  20    0.90    3.31   1
   9   3  21    1.90    3.70   1
   9   3  22    4.28    2.48   1
   9   3  23    9.18    3.51   1
   9   3  24   29.92    4.27   1
   9   3  25    4.08    3.39   1
   9   3  26    1.39    3.80   1
   9   3  27   19.62    4.87   1
   9   3  28    8.70    4.43   1
   9   3  29    1.69    4.58   1
   9   3  30    5.38    5.20   1
   9   3  31    2.10    5.19   1
   9   3  32   -0.30    4.82   1
   9   3  33   -2.59    4.99   1
   9   3  34  -11.63    5.73   1
   9   4  18    9.00    3.42   1
   9   4  19   -0.40    3.29   1
   9   4  20   61.31    6.26   1
   9   4  21   -3.69    3.61   1
   9   4  22   -2.79    2.30   1
   9   4  23   -1.80    3.48   1
   9   4  24    1.59    3.98   1
   9   4  25   -0.90    4.10   1
   9   4  26   16.16    4.98   1
   9   4  27   -0.90    4.20   1
   9   4  28   12.18    4.61   1
   9   4  29   -2.69    4.20   1
   9   4  30   -1.59    4.99   1
   9   4  31    6.92    5.00   1
   9   4  32   -5.38    5.20   1
   9   4  33    1.69    5.98   1
   9   5  19    7.78    2.62   1
   9   5  20    0.50    3.72   1
   9   5  21  118.59    8.49   1
   9   5  22   -0.59    4.28   1
   9   5  23    0.90    2.70   1
   9   5  24   12.11    4.18   1
   9   5  25    2.69    3.90   1
   9   5  26    1.39    3.89   1
   9   5  27    4.28    3.89   1
   9   5  28   -4.80    4.82   1
   9   5  29    3.61    4.79   1
   9   5  30    6.71    4.51   1
   9   6  21    1.10    3.00   1
   9   6  22   29.38    5.20   1
   9   6  23    4.58    4.79   1
   9   6  24    6.30    4.62   1
   9   6  25   15.76    4.61   1
   9   6  26    2.50    4.30   1
   9   6  27    9.00    5.10   1
   9   6  28   -1.10    3.61   1
   9   6  29   -7.67    4.21   1
   9   7  21   13.40    3.81   1
   9   7  22    1.39    4.48   1
   9   7  23   -5.71    4.49   1
   9   7  24   22.28    5.66   1
   9   7  25    1.21    4.73   1
   9   7  26   -6.81    4.80   1
   9   7  27   -6.10    5.98   1
   9   8  22    9.49    5.30   1
   9   8  23  -13.10    5.79   1
  10  -8 -24   19.01    4.36   1
  10  -8 -23    2.31    5.50   1
  10  -8 -22   -5.02    5.69   1
  10  -7 -27    0.59    5.27   1
  10  -7 -26   -3.69    5.49   1
  10  -7 -25    1.80    4.69   1
  10  -7 -24    9.80    6.07   1
  10  -7 -23    1.80    4.50   1
  10  -7 -22    0.30    5.22   1
  10  -7 -21    7.90    3.82   1
  10  -7 -20   -0.71    4.82   1
  10  -7 -19    3.80    4.29   1
  10  -7 -18   43.56    6.07   1
  10  -6 -30    0.20    4.93   1
  10  -6 -29    0.79    4.98   1
  10  -6 -28    0.90    4.01   1
  10  -6 -26    3.31    4.80   1
  10  -6 -25   -0.79    4.38   1
  10  -6 -22    4.41    2.69   1
  10  -6 -21    8.29    5.18   1
  10  -6 -20   17.39    4.92   1
  10  -6 -19   19.10    4.02   1
  10  -6 -18   80.46    8.25   1
  10  -5 -30    2.19    5.48   1
  10  -5 -27    2.89    3.98   1
  10  -5 -26    0.10    3.64   1
  10  -5 -25   -0.79    4.77   1
  10  -5 -24    0.71    2.60   1
  10  -5 -23    3.20    4.12   1
  10  -5 -22    2.19    4.50   1
  10  -5 -18   67.24    6.56   1
  10  -5 -17    1.21    4.03   1
  10  -5 -16   21.72    4.47   1
  10  -4 -33    1.49    4.98   1
  10  -4 -32    1.10    5.00   1
  10  -4 -31    4.20    4.51   1
  10  -4 -30    3.20    4.90   1
  10  -4 -29   11.02    4.98   1
  10  -4 -28   -5.38    4.59   1
  10  -4 -27   25.70    5.17   1
  10  -4 -26   -0.20    3.92   1
  10  -4 -25   12.60    5.32   1
  10  -4 -22    0.59    2.68   1
  10  -4 -19    0.20    2.62   1
  10  -4  -7    3.20    3.01   1
  10  -4  -4    9.12    3.32   1
  10  -4  -3    9.80    2.63   1
  10  -4  -2   14.36    3.71   1
  10  -4  -1   -2.31    3.31   1
  10  -4   0   24.60    3.97   1
  10  -3 -34   10.37    5.80   1
  10  -3 -33    7.18    5.09   1
  10  -3 -32    2.89    5.00   1
  10  -3 -31    5.52    5.03   1
  10  -3 -30   -0.40    4.18   1
  10  -3 -29   -2.89    4.08   1
  10  -3 -28   -8.01    3.91   1
  10  -3 -27   21.90    4.68   1
  10  -3 -26    2.69    3.61   1
  10  -3 -25   34.81    5.43   1
  10  -3 -17   16.81    3.28   1
  10  -3  -4   15.29    3.36   1
  10  -3  -3  150.31   10.05   1
  10  -3  -2   28.20    4.14   1
  10  -3  -1   35.52    4.65   1
  10  -3   0   11.22    3.82   1
  10  -3   1    0.71    3.41   1
  10  -3   2    0.00    1.00   1
  10  -3   3   25.40    3.83   1
  10  -3   4    2.89    3.09   1
  10  -3   5   33.52    4.75   1
  10  -3   6   -2.59    2.99   1
  10  -3   7    1.39    2.29   1
  10  -3   8    3.80    2.89   1
  10  -3   9    4.41    3.19   1
  10  -3  10    5.90    3.30   1
  10  -3  11    6.60    3.19   1
  10  -3  12   11.90    3.17   1
  10  -3  13    1.21    3.21   1
  10  -3  14    2.59    3.28   1
  10  -3  15  113.64    7.68   1
  10  -3  16   -1.39    3.09   1
  10  -3  17    1.10    3.00   1
  10  -3  18    4.08    3.19   1
  10  -3  19    8.12    3.48   1
  10  -2 -34   -2.50    4.90   1
  10  -2 -33   27.14    6.25   1
  10  -2 -32    2.99    4.50   1
  10  -2 -31   -0.20    3.82   1
  10  -2 -30    4.80    3.99   1
  10  -2 -29   19.80    5.16   1
  10  -2 -28   10.37    5.09   1
  10  -2 -18   21.81    3.18   1
  10  -2   0    1.49    2.78   1
  10  -2   1    4.80    2.80   1
  10  -2   2   79.03    8.00   1
  10  -2   3  117.07    8.22   1
  10  -2   4   16.56    3.66   1
  10  -2   5    8.58    1.99   1
  10  -2   6    1.39    3.00   1
  10  -2   7   11.83    3.10   1
  10  -2   8    3.69    2.80   1
  10  -2   9   54.76    5.48   1
  10  -2  10    1.39    2.78   1
  10  -2  11   -0.79    3.08   1
  10  -2  12    3.88    2.21   1
  10  -2  13    1.90    2.70   1
  10  -2  14    7.29    3.29   1
  10  -2  15   -1.80    3.00   1
  10  -2  16    9.61    3.10   1
  10  -2  17    7.62    2.93   1
  10  -2  17    3.39    3.20   1
  10  -2  18  167.70   13.47   1
  10  -2  18  182.25   11.07   1
  10  -2  19    0.30    3.31   1
  10  -2  20   33.06    4.95   1
  10  -2  21    0.90    3.40   1
  10  -2  26   34.22    5.26   1
  10  -2  27   10.11    3.50   1
  10  -2  31    2.59    3.28   1
  10  -2  32    1.99    4.99   1
  10  -1 -33   11.22    5.02   1
  10  -1 -32    1.99    4.88   1
  10  -1 -31  123.88    8.90   1
  10  -1 -26   -0.10    2.84   1
  10  -1 -16    0.71    2.50   1
  10  -1 -15    9.42    2.82   1
  10  -1   0   18.49    3.78   1
  10  -1   1   13.47    3.30   1
  10  -1   2   12.39    2.46   1
  10  -1   3   37.21    4.76   1
  10  -1   4   13.32    3.14   1
  10  -1   5   -1.80    2.89   1
  10  -1   6   55.35    4.46   1
  10  -1   6   63.52    4.94   1
  10  -1   7    7.18    3.11   1
  10  -1   7   -0.30    2.71   1
  10  -1   8    1.21    2.62   1
  10  -1   8    1.99    2.90   1
  10  -1   9   23.62    3.50   1
  10  -1   9   22.18    3.77   1
  10  -1  10    4.41    2.69   1
  10  -1  11    4.08    2.50   1
  10  -1  11   -1.21    2.51   1
  10  -1  12  186.87   11.21   1
  10  -1  13    0.30    2.71   1
  10  -1  13   -1.00    2.90   1
  10  -1  14   10.18    3.00   1
  10  -1  14    1.00    2.60   1
  10  -1  15  119.25    7.64   1
  10  -1  15  115.99   10.77   1
  10  -1  16    4.58    2.70   1
  10  -1  16    0.40    2.78   1
  10  -1  17   18.84    3.47   1
  10  -1  17   18.66    3.72   1
  10  -1  18    3.39    2.91   1
  10  -1  19    9.18    3.58   1
  10  -1  20    4.49    3.60   1
  10  -1  21    0.90    3.40   1
  10  -1  22    2.69    3.38   1
  10  -1  25   -3.80    3.78   1
  10  -1  26   -3.20    3.62   1
  10  -1  29   23.33    5.22   1
  10  -1  30   87.98    8.63   1
  10  -1  31   -1.00    4.40   1
  10  -1  32   -2.10    5.31   1
  10   0  -2   57.15    4.84   1
  10   0   0  183.60   10.30   1
  10   0   4   33.41    3.70   1
  10   0   6    1.39    2.38   1
  10   0   8    1.99    2.48   1
  10   0  10   -2.19    2.40   1
  10   0  10    0.00    1.00   1
  10   0  12  101.81    7.87   1
  10   0  14   10.11    3.12   1
  10   0  14    7.08    3.09   1
  10   0  16   -0.30    2.71   1
  10   0  16    1.69    3.20   1
  10   0  18   60.84    5.93   1
  10   0  20   77.09    7.20   1
  10   0  22    1.39    3.59   1
  10   0  24  206.78   11.50   1
  10   0  26   67.24    7.54   1
  10   0  28    3.20    4.19   1
  10   0  30    1.90    3.62   1
  10   0  32    0.79    5.27   1
  10   1  -4    2.31    2.80   1
  10   1  -3   65.61    5.83   1
  10   1  -2   13.18    2.98   1
  10   1   1    4.58    2.18   1
  10   1   2    4.58    3.21   1
  10   1   3   43.30    5.00   1
  10   1   4   11.42    3.18   1
  10   1   5    5.02    2.69   1
  10   1   6   48.30    5.56   1
  10   1   7   -0.50    2.31   1
  10   1   9   22.28    3.30   1
  10   1  11    5.20    2.69   1
  10   1  12  176.62    9.83   1
  10   1  12  202.21   10.24   1
  10   1  13    0.50    2.51   1
  10   1  14    7.62    3.09   1
  10   1  14    3.50    2.99   1
  10   1  15  116.21    9.92   1
  10   1  15  116.64    8.21   1
  10   1  16    5.02    3.32   1
  10   1  16    2.59    2.80   1
  10   1  17   13.69    3.77   1
  10   1  18    1.10    3.30   1
  10   1  19   16.16    3.86   1
  10   1  20   12.60    3.62   1
  10   1  21    4.58    3.89   1
  10   1  22   -0.40    3.19   1
  10   1  23    9.12    3.99   1
  10   1  24   47.33    5.78   1
  10   1  25   -0.59    4.28   1
  10   1  27    3.50    4.19   1
  10   1  28   -8.18    4.40   1
  10   1  30   68.39    8.10   1
  10   1  31   -2.10    4.70   1
  10   1  32   -1.80    4.50   1
  10   2 -12   53.00    5.24   1
  10   2  -3   95.45    7.23   1
  10   2  -2   19.71    3.82   1
  10   2  -1    6.40    2.58   1
  10   2   0    9.42    2.82   1
  10   2   1    0.50    2.61   1
  10   2   2   92.16    5.95   1
  10   2   3  104.45    7.15   1
  10   2   4   12.53    3.12   1
  10   2   5    0.40    2.60   1
  10   2   6    6.71    2.59   1
  10   2   7   12.32    3.23   1
  10   2   8    9.12    3.62   1
  10   2  10   -4.28    2.69   1
  10   2  11    1.21    2.42   1
  10   2  13    0.20    2.72   1
  10   2  14    5.71    3.20   1
  10   2  14    3.69    3.38   1
  10   2  15    4.88    2.48   1
  10   2  15    2.10    2.29   1
  10   2  16   13.32    3.72   1
  10   2  17    8.53    3.33   1
  10   2  18  176.09   12.47   1
  10   2  19   -0.20    2.31   1
  10   2  20   26.11    5.31   1
  10   2  21    0.79    3.68   1
  10   2  22    7.18    4.07   1
  10   2  23   59.44    6.17   1
  10   2  24    6.60    4.11   1
  10   2  25    2.31    4.20   1
  10   2  26   31.58    5.28   1
  10   2  27   16.40    4.70   1
  10   2  28    2.50    4.20   1
  10   2  29    1.30    4.70   1
  10   2  30   22.09    5.08   1
  10   2  31    6.20    5.48   1
  10   3  16    4.88    3.58   1
  10   3  17    2.59    3.09   1
  10   3  18    2.89    4.39   1
  10   3  19    7.18    3.59   1
  10   3  20    2.19    3.79   1
  10   3  21   94.28    9.71   1
  10   3  22   -1.00    3.70   1
  10   3  23    3.61    3.19   1
  10   3  24   18.84    4.08   1
  10   3  25    3.50    3.10   1
  10   3  26    8.88    3.58   1
  10   3  27    0.00    1.00   1
  10   3  28   -1.49    3.10   1
  10   3  30   -5.38    5.29   1
  10   4  17   -2.31    3.71   1
  10   4  18    7.18    3.70   1
  10   4  19   -3.80    3.71   1
  10   4  20   13.69    4.37   1
  10   4  21   28.30    4.15   1
  10   4  22    6.10    3.01   1
  10   4  23    6.92    4.42   1
  10   4  24   28.62    5.46   1
  10   4  25    1.30    4.70   1
  10   4  26   -7.78    4.69   1
  10   4  27   42.38    6.77   1
  10   4  28   -2.40    4.40   1
  10   5  19    1.90    3.62   1
  10   5  20    2.19    3.88   1
  10   5  21    3.88    4.29   1
  10   5  22    0.50    3.41   1
  10   5  23   -0.71    3.51   1
  10   5  24   37.45    6.85   1
  10   5  25   -7.08    5.27   1
  10   5  26    3.31    5.02   1
  10   5  27   -5.52    6.02   1
  10   6  20    0.40    4.78   1
  10   6  21   19.62    6.02   1
  10   6  22   -4.71    4.99   1
  10   6  23    9.99    6.00   1
  10   6  24   -7.08    5.21   1
  10   7  21  -11.42    5.27   1
  11  -7 -21    4.88    6.10   1
  11  -7 -19  -11.49    5.63   1
  11  -7 -18   15.76    6.11   1
  11  -7 -17   -3.69    5.61   1
  11  -7 -16   -4.20    5.49   1
  11  -7 -15   41.47    6.96   1
  11  -6 -24   -9.67    5.91   1
  11  -6 -23   -2.99    3.81   1
  11  -6 -22   -0.20    5.13   1
  11  -6 -21    8.41    6.09   1
  11  -6 -20    1.69    5.49   1
  11  -6 -19    0.40    3.59   1
  11  -6 -18   26.01    5.10   1
  11  -6 -17    4.49    5.22   1
  11  -6 -16   -1.10    5.00   1
  11  -6 -11    9.30    3.29   1
  11  -6 -10    4.00    4.20   1
  11  -6  -9    0.30    4.32   1
  11  -6  -8    1.90    4.80   1
  11  -5 -27   -4.41    5.00   1
  11  -5 -26   -0.79    5.57   1
  11  -5 -21    0.71    4.72   1
  11  -5 -20    4.28    5.17   1
  11  -5 -19   12.67    3.99   1
  11  -5 -14    4.20    4.10   1
  11  -5 -10   12.32    3.09   1
  11  -5  -7    0.40    4.78   1
  11  -5  -4    9.18    4.18   1
  11  -5  -1    4.00    3.80   1
  11  -5   0   53.73    7.62   1
  11  -5   1    5.11    3.48   1
  11  -5   2    2.89    3.09   1
  11  -4 -29   -2.19    4.88   1
  11  -4 -26   -2.50    4.11   1
  11  -4 -25   10.82    6.32   1
  11  -4 -24    2.50    5.40   1
  11  -4 -22    5.02    5.02   1
  11  -4 -17    2.19    4.29   1
  11  -4 -16    2.19    2.60   1
  11  -4 -12   35.28    5.70   1
  11  -4  -2   -0.10    3.85   1
  11  -4  -1   -1.80    3.81   1
  11  -4   0   65.93    6.01   1
  11  -4   1    1.69    2.70   1
  11  -4   3    4.88    3.98   1
  11  -4   4   -2.79    2.40   1
  11  -4   5   -0.30    3.72   1
  11  -4   6   10.69    4.12   1
  11  -4   7   -1.80    3.70   1
  11  -4   8   -3.39    3.90   1
  11  -4   9   63.04    5.72   1
  11  -4  10    7.51    4.11   1
  11  -4  11    2.99    3.98   1
  11  -4  12    1.49    3.59   1
  11  -4  13    3.10    3.59   1
  11  -4  14   27.77    5.48   1
  11  -4  15   66.42    7.33   1
  11  -4  16    2.79    4.17   1
  11  -4  17    2.31    4.20   1
  11  -4  18    0.59    3.77   1
  11  -3 -30    4.58    5.48   1
  11  -3 -29   -2.69    5.18   1
  11  -3 -28   -3.80    4.91   1
  11  -3 -27   18.66    5.53   1
  11  -3 -24    0.90    3.00   1
  11  -3 -18    3.31    2.80   1
  11  -3 -17    5.38    3.29   1
  11  -3 -16    9.18    2.97   1
  11  -3 -15  128.82   10.22   1
  11  -3 -14    7.02    3.92   1
  11  -3  -2   -2.50    3.41   1
  11  -3   1   23.62    4.57   1
  11  -3   2    3.80    3.00   1
  11  -3   3   27.88    4.65   1
  11  -3   4   -2.19    3.29   1
  11  -3   5   10.18    3.76   1
  11  -3   6    6.40    4.30   1
  11  -3   7    0.90    2.39   1
  11  -3   8    1.21    2.51   1
  11  -3   9   42.51    5.35   1
  11  -3  10    2.31    3.10   1
  11  -3  11   13.18    3.92   1
  11  -3  12   -1.80    3.48   1
  11  -3  13    1.59    3.58   1
  11  -3  15    0.50    3.51   1
  11  -3  16   -5.52    3.71   1
  11  -3  17    3.10    3.59   1
  11  -2 -29   -1.30    5.49   1
  11  -2 -28    0.59    5.07   1
  11  -2 -27    2.10    3.92   1
  11  -2  -4   38.19    4.94   1
  11  -2  -3  103.84    9.17   1
  11  -2  -2   36.36    5.07   1
  11  -2   1    9.30    3.48   1
  11  -2   2   22.94    3.26   1
  11  -2   3   16.16    4.18   1
  11  -2   4   -1.59    3.28   1
  11  -2   5   11.42    3.31   1
  11  -2   6    3.80    3.78   1
  11  -2   7   -0.10    3.64   1
  11  -2   8   11.22    4.09   1
  11  -2   9   11.29    3.90   1
  11  -2  10    2.19    3.20   1
  11  -2  11   12.18    3.70   1
  11  -2  12   15.60    4.11   1
  11  -2  13    2.99    3.39   1
  11  -2  14   -1.10    3.70   1
  11  -2  15   61.62    5.97   1
  11  -2  16    1.69    2.39   1
  11  -2  17   -1.39    3.59   1
  11  -1 -31    7.62    6.13   1
  11  -1 -30    5.11    5.79   1
  11  -1 -26    0.40    3.59   1
  11  -1 -21    7.29    4.00   1
  11  -1 -20    4.88    2.70   1
  11  -1 -19    5.52    3.10   1
  11  -1 -18   19.54    4.42   1
  11  -1 -17    1.90    2.59   1
  11  -1  -5   20.61    4.27   1
  11  -1  -2    3.50    3.29   1
  11  -1  -1   43.82    5.03   1
  11  -1   0   44.09    4.52   1
  11  -1   1   -1.00    3.20   1
  11  -1   2   -0.90    3.40   1
  11  -1   3   38.56    4.72   1
  11  -1   4    1.00    3.60   1
  11  -1   5   10.11    2.67   1
  11  -1   6    2.69    2.39   1
  11  -1   7    0.20    2.21   1
  11  -1   8   -1.59    2.09   1
  11  -1   9   11.97    4.01   1
  11  -1  10    1.49    3.29   1
  11  -1  11    4.00    3.60   1
  11  -1  12   41.86    6.21   1
  11  -1  13   -0.59    3.37   1
  11  -1  14    1.10    3.51   1
  11  -1  15    7.90    3.99   1
  11  -1  16   13.76    3.86   1
  11  -1  23   -2.31    3.92   1
  11  -1  24   26.42    5.76   1
  11  -1  27   -4.20    5.21   1
  11  -1  28    3.10    5.00   1
  11   0 -28    0.30    5.13   1
  11   0 -24    5.62    3.51   1
  11   0 -22    6.20    4.38   1
  11   0 -16    3.88    3.39   1
  11   0 -14    2.50    3.89   1
  11   0 -10   19.89    4.73   1
  11   0  -2   35.05    4.97   1
  11   0   0   16.48    3.98   1
  11   0   2   23.43    3.68   1
  11   0   4   11.22    4.09   1
  11   0   6    4.88    3.49   1
  11   0   8   56.70    5.72   1
  11   0   8   65.61    5.67   1
  11   0  10    6.00    3.09   1
  11   0  10    1.59    2.80   1
  11   0  12   27.04    4.68   1
  11   0  12   21.62    4.74   1
  11   0  14   12.82    3.44   1
  11   0  14   14.06    3.90   1
  11   0  16    5.20    3.69   1
  11   0  18    1.59    3.78   1
  11   0  20   10.18    4.02   1
  11   0  22   30.25    5.39   1
  11   0  24   26.21    3.89   1
  11   0  26   76.04    7.50   1
  11   0  28    5.62    4.03   1
  11   1 -12   10.30    4.11   1
  11   1 -11    9.99    4.17   1
  11   1  -4   64.96    7.09   1
  11   1  -3   63.52    6.54   1
  11   1  -2    3.10    3.20   1
  11   1  -1   27.14    3.96   1
  11   1   0   34.22    5.38   1
  11   1   1    0.71    3.41   1
  11   1   2   -2.79    3.21   1
  11   1   3   42.90    4.59   1
  11   1   4    2.69    2.98   1
  11   1   5    8.41    3.71   1
  11   1   6   10.11    3.50   1
  11   1   7   -1.49    3.10   1
  11   1   8    3.10    3.48   1
  11   1   9   13.18    3.48   1
  11   1  10    0.10    3.64   1
  11   1  10    0.40    3.09   1
  11   1  11    4.00    2.60   1
  11   1  11   -1.69    3.48   1
  11   1  12   48.44    4.04   1
  11   1  12   41.22    4.88   1
  11   1  13    2.50    2.50   1
  11   1  13   -2.31    3.31   1
  11   1  14    0.50    3.72   1
  11   1  14    5.90    3.30   1
  11   1  17   13.03    4.33   1
  11   1  18   85.38    8.32   1
  11   1  19   -1.30    4.20   1
  11   1  20    5.81    4.82   1
  11   1  21   39.56   54.22   1
  11   1  22    8.41    4.52   1
  11   1  23   -2.19    4.29   1
  11   1  24   33.06    5.41   1
  11   1  25    0.90    4.81   1
  11   1  26   10.37    3.86   1
  11   1  28   -1.21    5.32   1
  11   2 -13    5.02    4.21   1
  11   2 -12   26.21    3.79   1
  11   2 -11    3.50    4.30   1
  11   2 -10    8.88    3.87   1
  11   2  -9    3.10    3.48   1
  11   2  -8    0.30    3.31   1
  11   2  -7    1.21    3.41   1
  11   2  -6   21.07    3.76   1
  11   2  -5    0.50    3.11   1
  11   2  -4   33.76    5.46   1
  11   2  -3   93.51    8.90   1
  11   2  -2   33.52    5.56   1
  11   2  -1   10.37    3.22   1
  11   2   0    4.28    3.39   1
  11   2   1   10.18    3.57   1
  11   2   2   10.50    3.50   1
  11   2   3   10.37    3.28   1
  11   2   4    5.11    3.30   1
  11   2   5   11.42    3.92   1
  11   2   6    0.40    3.29   1
  11   2   7   -2.59    3.38   1
  11   2   8    7.18    3.59   1
  11   2   9    3.20    3.11   1
  11   2  10   -0.30    3.01   1
  11   2  11   11.09    3.60   1
  11   2  12   22.94    4.50   1
  11   2  13   -2.79    3.31   1
  11   2  13   -2.89    3.50   1
  11   2  14    1.10    3.91   1
  11   2  14   -2.40    3.01   1
  11   2  15   54.76    6.07   1
  11   2  16    5.11    4.11   1
  11   2  17    3.10    3.91   1
  11   2  18    1.59    3.78   1
  11   2  19    5.38    4.08   1
  11   2  20   20.79    4.74   1
  11   2  21   23.33    5.41   1
  11   2  22    4.58    4.28   1
  11   2  23   -0.10    4.56   1
  11   2  24   18.66    5.79   1
  11   2  25   -5.29    4.78   1
  11   2  26    4.20    4.71   1
  11   2  27   -1.00    4.60   1
  11   3  15    2.19    3.79   1
  11   3  16    3.39    4.60   1
  11   3  18    5.29    2.99   1
  11   3  19    2.69    4.59   1
  11   3  20    4.41    5.21   1
  11   3  21   16.97    4.78   1
  11   3  22    3.10    4.79   1
  11   3  23   13.03    5.13   1
  11   3  24   -3.88    5.08   1
  11   3  25   -2.31    5.50   1
  11   3  26    1.99    4.60   1
  11   4  16    3.39    3.97   1
  11   4  17    8.82    4.40   1
  11   4  18    2.69    4.59   1
  11   4  19    5.38    4.50   1
  11   4  20   15.60    4.82   1
  11   4  21   48.86    7.55   1
  11   4  22    3.69    4.38   1
  11   4  23    7.78    5.91   1
  11   4  24   -2.99    5.99   1
  11   5  18   50.27    7.37   1
  11   5  19   -2.59    5.28   1
  11   5  20    2.31    5.11   1
  11   5  21   -0.40    5.08   1
  11   5  22   -9.99    5.88   1
  11   6  20    0.71   16.26   1
  12  -6  -9   -8.12    4.50   1
  12  -6  -7   -0.20    5.63   1
  12  -6  -6  100.40    9.42   1
  12  -6  -5   -2.69    5.08   1
  12  -6  -3    9.12    5.01   1
  12  -6  -2   20.79    5.20   1
  12  -6  -1   -4.88    5.39   1
  12  -6   0   29.92    5.25   1
  12  -6   1   -3.61    5.32   1
  12  -6   2    3.31    5.02   1
  12  -6   3    4.28    4.31   1
  12  -6   4  -11.49    5.22   1
  12  -6   5   -6.20    4.58   1
  12  -6   6   -3.39    4.67   1
  12  -6   7   -8.58    4.98   1
  12  -6   8   -1.21    5.13   1
  12  -6   9   -0.59    5.67   1
  12  -6  10    1.80    3.70   1
  12  -6  11    0.40    5.08   1
  12  -6  12  106.50    9.91   1
  12  -5 -15   -3.10    6.09   1
  12  -5 -14   -0.10    5.16   1
  12  -5 -13    4.00    4.60   1
  12  -5 -12   84.46    8.82   1
  12  -5 -11   -0.50    4.91   1
  12  -5 -10    0.10    4.65   1
  12  -5  -9    7.67    5.82   1
  12  -5  -8   13.47    5.36   1
  12  -5  -7    7.08    4.89   1
  12  -5  -6   31.02    6.57   1
  12  -5  -5    6.30    5.02   1
  12  -5  -4   -1.90    4.50   1
  12  -5  -3   46.92    6.58   1
  12  -5  -2    2.79    4.98   1
  12  -5  -1    1.99    5.27   1
  12  -5   0   25.60    6.07   1
  12  -5   1    8.01    5.38   1
  12  -5   2    6.81    5.22   1
  12  -5   3   11.70    4.72   1
  12  -5   4    5.29    4.69   1
  12  -5   5   -0.90    4.71   1
  12  -5   6   44.36    7.06   1
  12  -5   7    4.71    4.60   1
  12  -5   8    7.67    4.76   1
  12  -5   9    9.61    4.40   1
  12  -5  10    2.40    2.91   1
  12  -5  11    4.71    4.99   1
  12  -5  12    7.08    4.68   1
  12  -5  13   -2.99    4.71   1
  12  -5  14   16.56    5.29   1
  12  -5  15   18.49    6.11   1
  12  -5  16    1.99    3.50   1
  12  -4 -19   29.81    7.21   1
  12  -4 -18    5.52    5.50   1
  12  -4 -17    0.50    5.32   1
  12  -4 -16   -1.39    5.10   1
  12  -4 -15   92.16    8.26   1
  12  -4 -14   -3.20    5.01   1
  12  -4 -13    1.69    3.48   1
  12  -4 -12    5.11    5.51   1
  12  -4 -11   -1.99    4.79   1
  12  -4 -10   23.72    5.36   1
  12  -4  -9   80.10    8.05   1
  12  -4  -8   -1.90    4.50   1
  12  -4  -7   -1.90    4.69   1
  12  -4  -6   10.63    3.91   1
  12  -4  -5   -1.00    4.90   1
  12  -4  -4   -3.88    3.19   1
  12  -4  -3   18.32    4.79   1
  12  -4  -2    3.10    2.99   1
  12  -4  -1   -0.10    4.56   1
  12  -4   0    1.59    4.49   1
  12  -4   1    7.08    4.89   1
  12  -4   2    3.88    4.49   1
  12  -4   3   55.06    6.83   1
  12  -4   4   15.52    4.57   1
  12  -4   5    4.20    3.40   1
  12  -4   6   14.59    4.43   1
  12  -4   7    8.53    4.32   1
  12  -4   8   -4.41    4.70   1
  12  -4   9   81.72    8.50   1
  12  -4  10   -0.50    3.92   1
  12  -4  11    4.28    4.31   1
  12  -4  12   22.28    5.38   1
  12  -4  13    2.99    4.71   1
  12  -4  14    3.50    4.30   1
  12  -4  15    1.99    4.09   1
  12  -4  16   -5.20    4.29   1
  12  -3 -23  -20.43    6.78   1
  12  -3 -22   -5.11    4.02   1
  12  -3 -21   53.14    6.42   1
  12  -3 -20    3.20    4.30   1
  12  -3 -19   -2.10    3.19   1
  12  -3 -18   -5.11    3.62   1
  12  -3 -17   -0.71    3.51   1
  12  -3 -14   -4.00    4.68   1
  12  -3 -13   -3.50    4.11   1
  12  -3 -12    1.69    4.78   1
  12  -3  -9   27.56    5.36   1
  12  -3  -8   -1.21    3.21   1
  12  -3  -7   50.55    6.97   1
  12  -3  -6    5.29    4.28   1
  12  -3  -5    2.19    4.80   1
  12  -3  -4    5.20    4.70   1
  12  -3  -3   79.21    8.19   1
  12  -3  -2    1.10    4.09   1
  12  -3  -1    1.30    4.49   1
  12  -3   0   16.00    4.00   1
  12  -3   1    0.50    4.42   1
  12  -3   2    1.59    3.88   1
  12  -3   3   35.05    5.68   1
  12  -3   4    7.51    4.71   1
  12  -3   5   12.39    3.31   1
  12  -3   6    7.08    4.79   1
  12  -3   7   -5.62    4.03   1
  12  -3   9   34.11    6.66   1
  12  -3  10    0.79    4.68   1
  12  -3  11    1.21    3.21   1
  12  -3  12   17.81    4.90   1
  12  -3  13   -4.08    4.61   1
  12  -3  14    1.90    4.42   1
  12  -3  15   75.52    8.52   1
  12  -3  16   -1.21    4.22   1
  12  -2 -24   -5.11    3.62   1
  12  -2 -23    1.69    5.69   1
  12  -2 -22   11.49    5.70   1
  12  -2 -17    6.81    4.28   1
  12  -2 -16   -1.69    3.09   1
  12  -2 -15   58.52    7.19   1
  12  -2 -14   -0.20    4.12   1
  12  -2 -13    2.89    4.79   1
  12  -2 -10   10.11    4.58   1
  12  -2  -9   67.73    7.74   1
  12  -2  -8    2.89    2.89   1
  12  -2  -7   42.12    6.36   1
  12  -2  -6    7.78    3.57   1
  12  -2  -5   -1.80    4.10   1
  12  -2  -4   -3.61    2.62   1
  12  -2  -3   -4.49    4.20   1
  12  -2  -2    5.90    4.81   1
  12  -2  -1   13.18    5.30   1
  12  -2   0   20.70    5.46   1
  12  -2   1   -0.50    4.02   1
  12  -2   2    4.80    2.98   1
  12  -2   3    7.62    4.31   1
  12  -2   4    4.88    4.51   1
  12  -2   5   -5.81    4.19   1
  12  -2   6    3.69    4.11   1
  12  -2   8    3.61    4.10   1
  12  -2   9   23.81    5.08   1
  12  -2  10    2.19    4.20   1
  12  -2  11   41.22   38.91   1
  12  -2  12   18.58    5.43   1
  12  -2  13    6.92    4.21   1
  12  -2  14    2.19    4.29   1
  12  -2  15   -3.10    4.08   1
  12  -1 -21    2.99    4.60   1
  12  -1 -20  -10.11    4.71   1
  12  -1 -12   37.33    5.13   1
  12  -1 -11    3.39    4.31   1
  12  -1 -10   -0.50    3.92   1
  12  -1  -9   -1.00    3.10   1
  12  -1  -8   31.58    5.06   1
  12  -1  -7   36.00    4.80   1
  12  -1  -6    4.20    4.02   1
  12  -1  -5   -0.40    3.09   1
  12  -1  -4   22.75    5.25   1
  12  -1  -3   36.60    5.57   1
  12  -1  -2   -2.19    4.20   1
  12  -1  -1    4.80    4.91   1
  12  -1   0   11.90    4.07   1
  12  -1   1    5.11    4.11   1
  12  -1   2    2.31    4.01   1
  12  -1   3   17.98    4.32   1
  12  -1   4   -0.30    4.32   1
  12  -1   5   21.62    4.84   1
  12  -1   6   11.29    4.17   1
  12  -1   7    2.99    3.70   1
  12  -1   8   -3.31    4.11   1
  12  -1   9   -1.10    3.80   1
  12  -1  10   -1.49    2.88   1
  12  -1  11    1.21    3.61   1
  12  -1  12   19.62    4.78   1
  12  -1  13   -2.19    4.08   1
  12  -1  14    0.20    4.12   1
  12   0 -24   -2.79    3.61   1
  12   0 -22    0.10    3.64   1
  12   0 -20   -1.00    3.20   1
  12   0 -16    3.31    4.80   1
  12   0 -14    0.71    3.51   1
  12   0 -12   13.62    4.50   1
  12   0 -10    5.38    4.59   1
  12   0  -4   37.45    5.75   1
  12   0  -2   27.04    3.54   1
  12   0   0   14.29    3.48   1
  12   0   2   38.56    5.96   1
  12   0   4    3.50    2.58   1
  12   0   6    1.10    4.01   1
  12   0   8   13.69    4.00   1
  12   0  10   -5.11    3.39   1
  12   0  12   20.88    4.20   1
  12   0  14   -7.02    3.39   1
  12   1 -20   -4.88    4.91   1
  12   1 -13   52.56    7.25   1
  12   1 -12   44.49    6.27   1
  12   1  -9   -0.50    2.61   1
  12   1  -8   27.88    5.28   1
  12   1  -7   25.10    4.81   1
  12   1  -6   17.72    4.46   1
  12   1  -5   -0.30    3.62   1
  12   1  -4   22.94    4.79   1
  12   1  -3   29.05    5.50   1
  12   1  -2    1.69    3.69   1
  12   1  -1    2.79    4.01   1
  12   1   0    2.99    3.39   1
  12   1   1    8.58    4.10   1
  12   1   2    3.61    4.22   1
  12   1   3   14.82    4.77   1
  12   1   4    0.20    3.82   1
  12   1   5   15.92    4.31   1
  12   1   6    7.18    3.11   1
  12   1   7    4.49    4.20   1
  12   1   8   -4.58    3.81   1
  12   1   9   -1.49    3.78   1
  12   1  10    0.71    4.32   1
  12   1  10    2.99    3.60   1
  12   1  11   -0.59    4.08   1
  12   1  11   -1.21    3.92   1
  12   1  12   19.80    5.34   1
  12   1  12   18.06    4.76   1
  12   1  13    4.58    3.51   1
  12   1  13    8.88    4.41   1
  12   1  14    5.90    3.99   1
  12   1  15    0.59    4.17   1
  12   1  16    0.10    4.35   1
  12   1  17    1.39    3.89   1
  12   1  18    6.20    4.18   1
  12   1  19    5.29    5.01   1
  12   1  20    7.62    4.91   1
  12   1  21   16.81    4.84   1
  12   1  22   -2.99    5.29   1
  12   2 -10    1.21    4.22   1
  12   2  -9   50.84    6.56   1
  12   2  -8   -6.20    3.59   1
  12   2  -7   30.25    4.95   1
  12   2  -6   11.63    4.09   1
  12   2  -5    4.20    4.18   1
  12   2  -4    3.69    4.49   1
  12   2  -3    6.92    4.52   1
  12   2  -2    0.50    2.81   1
  12   2  -1    0.50    4.02   1
  12   2   0   22.75    5.63   1
  12   2   1    4.41    4.70   1
  12   2   2    4.28    4.10   1
  12   2   3    7.29    4.00   1
  12   2   4    3.61    3.99   1
  12   2   5    1.49    3.78   1
  12   2   6   10.18    4.21   1
  12   2   7    1.99    3.78   1
  12   2   8    7.62    4.53   1
  12   2   9   16.40    4.78   1
  12   2  10    2.31    3.71   1
  12   2  11    2.10    4.09   1
  12   2  11    3.88    4.29   1
  12   2  12   20.34    4.78   1
  12   2  12   18.32    4.71   1
  12   2  13    5.71    4.40   1
  12   2  14    1.00    4.10   1
  12   2  15   -6.20    3.98   1
  12   2  16   -0.20    4.83   1
  12   2  17    4.49    4.79   1
  12   2  20   -0.71    4.72   1
  12   2  21   44.22    6.65   1
  12   3  13    1.30    4.70   1
  12   3  14   -4.80    4.51   1
  12   3  15   98.60    8.74   1
  12   3  16   12.11    5.01   1
  12   3  17    3.50    4.90   1
  12   3  18    0.30    4.82   1
  12   3  19   -4.20    4.92   1
  12   3  20    1.80    5.60   1
  12   4  15   -5.29    4.60   1
  12   4  16   -0.20    4.53   1
  12   4  17   -3.80    4.80   1
  12   4  18   23.72    6.14   1
  13  -4  -3   18.66    8.81   1
  13  -4   3   11.09    4.80   1
  13  -4   4    4.28    6.29   1
  13  -4   5   -7.51    5.43   1
  13  -4   6    5.20    6.20   1
  13  -4   7   -5.38    5.48   1
  13  -3  -6    7.18    6.38   1
  13  -3  -5    6.10    4.10   1
  13  -3  -4   11.09    5.39   1
  13  -3  -2    7.08    6.01   1
  13  -3  -1   -5.90    5.49   1
  13  -3   0    2.31    5.62   1
  13  -3   1   -1.59    3.68   1
  13  -3   2    4.20    5.08   1
  13  -3   3   25.50    5.86   1
  13  -3   4   -8.70    5.31   1
  13  -3   5   -0.30    5.32   1
  13  -3   6    4.41    4.91   1
  13  -3   7    5.02    5.02   1
  13  -3   8    2.69    5.38   1
  13  -3   9   35.05    6.87   1
  13  -3  10   -4.41    5.21   1
  13  -2 -12  -11.70    7.11   1
  13  -2  -9   33.87    7.80   1
  13  -2  -7    5.29    5.70   1
  13  -2  -6    4.49    5.60   1
  13  -2  -5    6.00    5.49   1
  13  -2  -4   71.23    8.27   1
  13  -2  -3   51.41    6.02   1
  13  -2  -2   -5.02    4.79   1
  13  -2   0    7.90    5.11   1
  13  -2   1   -6.60    3.50   1
  13  -2   2    2.50    5.09   1
  13  -2   3    0.20    4.93   1
  13  -2   4    3.80    5.50   1
  13  -2   5   -1.39    4.70   1
  13  -2   6   13.32    5.11   1
  13  -2   7   -2.40    4.40   1
  13  -2   8   10.37    5.02   1
  13  -2   9   18.23    6.06   1
  13  -2  10   21.34    5.54   1
  13  -2  11   17.47    5.27   1
  13  -2  12    1.30    4.79   1
  13  -1 -13    9.18   17.27   1
  13  -1 -11   16.89    4.69   1
  13  -1 -10   -5.11    5.11   1
  13  -1  -8    6.81    5.12   1
  13  -1  -7   29.16    6.48   1
  13  -1  -6   15.68    5.86   1
  13  -1  -5   -3.10    3.59   1
  13  -1  -4   -2.10    4.61   1
  13  -1  -3   27.46    6.18   1
  13  -1  -2   -2.10    3.19   1
  13  -1  -1   30.36    5.73   1
  13  -1   0    0.40    4.98   1
  13  -1   1   11.29    4.97   1
  13  -1   2    4.71    4.69   1
  13  -1   3    0.40    4.69   1
  13  -1   4   -1.10    3.21   1
  13  -1   5   -1.69    3.30   1
  13  -1   6    1.21    3.41   1
  13  -1   7   -4.58    4.49   1
  13  -1   8    3.31    4.80   1
  13  -1   9    1.00    4.70   1
  13  -1  11    8.53    4.73   1
  13  -1  12   12.39    4.01   1
  13  -1  13    2.99    4.29   1
  13   0 -12   65.45    9.06   1
  13   0 -10    9.61    5.83   1
  13   0  -8   -1.69    5.49   1
  13   0  -6   13.40    5.20   1
  13   0  -4   85.56   11.47   1
  13   0  -2   49.00    6.86   1
  13   0   0    7.90    5.40   1
  13   0   2    9.99    4.11   1
  13   0   4    7.51    4.33   1
  13   0   6    4.88    3.49   1
  13   0   8   44.36    6.13   1
  13   0  10   -1.39    4.98   1
  13   0  12    0.90    4.41   1
  13   1 -11   10.37    6.12   1
  13   1  -9    8.70    5.72   1
  13   1  -8   -5.11    5.20   1
  13   1  -7   31.36    6.83   1
  13   1  -6   32.15    7.03   1
  13   1  -5   -5.90    4.71   1
  13   1  -4   -6.60    4.78   1
  13   1  -3   18.92    6.26   1
  13   1  -2   -2.99    5.09   1
  13   1  -1   19.27    4.83   1
  13   1   0   -3.61    4.52   1
  13   1   1    1.00    3.00   1
  13   1   2   12.39    4.01   1
  13   1   3   -3.39    3.20   1
  13   1   4    3.10    3.31   1
  13   1   5   -1.30    4.61   1
  13   1   6    2.69    4.59   1
  13   1   7    8.01    5.32   1
  13   1   9    3.50    3.70   1
  13   1  10    4.58    5.01   1
  13   1  11    6.71    4.92   1
  13   2  -5    9.00    3.72   1
  13   2  -4   59.91    8.05   1
  13   2  -3   43.16    6.96   1
  13   2  -2   -4.88    4.91   1
  13   2  -1    3.69    4.38   1
  13   2   0    9.92    5.61   1
  13   2   1   -2.40    4.31   1
  13   2   2    3.10    5.00   1
  13   2   3    2.40    4.71   1
  13   2   4    1.99    5.08   1
  13   2   5    2.79    4.68   1
  13   2   6    7.90    5.40   1
  13   2   7    6.81    3.39   1
   0   0   0    0.00    0.00   0
;
_shelx_hkl_checksum              83298
_shelx_res_file
;
    shelx.res created by SHELXL-2014/7
TITL s92 in P 21/c
CELL  0.71073  10.5765  11.8088  39.1512   90.000   92.618   90.000
ZERR    12.00   0.0002   0.0002   0.0007    0.000    0.001    0.000
LATT   1
SYMM  - X, 1/2 + Y, 1/2 - Z
SFAC  C    H    N    O    S
UNIT  180 240 48 36 12
MERG   2
EQIV $1 x-1,+y,+z
EQIV $2 x+1,+y,+z
EQIV $3 -x+1,+y-1/2,-z+1/2+1
EQIV $4 -x+2,-y+2,-z+2
EQIV $5 x,+y+1,+z
HTAB N14 O32
HTAB N14 O41
HTAB N24 O42
HTAB N34 O43
HTAB N11 N23_$1
HTAB N21 N13_$2
HTAB N24 O21_$3
HTAB N31 N33_$4
HTAB N34 O11_$5
MPLA 6 C11 N12 C12 C13 C14 N13
MPLA 6 C15 C16 C17 C18 C19 C20
MPLA 6 C21 N22 C22 C23 C24 N23
MPLA 6 C25 C26 C27 C28 C29 C30
MPLA 6 C31 N32 C32 C33 C34 N33
MPLA 6 C35 C36 C37 C38 C39 C40
FMAP   2
PLAN    1
SIZE     0.200   0.220   0.250
ACTA
BOND   $H
L.S.   4
TEMP  -123.00
WGHT    0.068400
FVAR       0.19517
S11   5    0.252909    0.321962    0.860114    11.00000    0.02190    0.02636 =
         0.01563   -0.00114    0.00092    0.00453
S21   5    0.739796    0.659926    0.809750    11.00000    0.02051    0.02524 =
         0.01771   -0.00163   -0.00044    0.00355
S31   5    0.744166    0.834146    0.971681    11.00000    0.02024    0.02769 =
         0.01871    0.00118   -0.00112   -0.00718
O11   4    0.224622    0.209544    0.871489    11.00000    0.02975    0.02515 =
         0.02335   -0.00123   -0.00427    0.00340
O12   4    0.302838    0.335334    0.826859    11.00000    0.03015    0.03961 =
         0.01581   -0.00086    0.00581    0.00556
O21   4    0.780194    0.769501    0.798680    11.00000    0.02745    0.02433 =
         0.02807    0.00183   -0.00624   -0.00019
O22   4    0.691774    0.649498    0.843481    11.00000    0.02967    0.03962 =
         0.01698   -0.00204    0.00421    0.00753
O31   4    0.688507    0.852325    1.003963    11.00000    0.02640    0.04507 =
         0.01634    0.00181    0.00273   -0.01203
O32   4    0.774290    0.720234    0.961775    11.00000    0.02766    0.02648 =
         0.02544    0.00281   -0.00575   -0.00491
N11   3    0.122067    0.398108    0.857340    11.00000    0.02345    0.03520 =
         0.01526    0.00327    0.00033    0.00821
AFIX  43
H11   2    0.097384    0.423944    0.837032    11.00000   -1.20000
AFIX   0
N12   3    0.080981    0.378709    0.914856    11.00000    0.01888    0.03074 =
         0.01584    0.00311    0.00078    0.00140
N13   3   -0.047578    0.495710    0.877455    11.00000    0.02386    0.03103 =
         0.01753    0.00381    0.00084    0.00670
N14   3    0.598362    0.525280    0.965664    11.00000    0.03378    0.03618 =
         0.03185   -0.00155   -0.00247   -0.01127
AFIX  93
H14A  2    0.604412    0.495099    0.986225    11.00000   -1.20000
H14B  2    0.643240    0.585638    0.961011    11.00000   -1.20000
AFIX   0
N21   3    0.860466    0.571750    0.811168    11.00000    0.02267    0.03673 =
         0.01733    0.00636   -0.00225    0.00978
AFIX  43
H21   2    0.883716    0.542888    0.831205    11.00000   -1.20000
AFIX   0
N22   3    0.897895    0.588060    0.753402    11.00000    0.02109    0.03459 =
         0.01556    0.00297    0.00176    0.00385
N23   3    1.016395    0.460169    0.789906    11.00000    0.02401    0.03287 =
         0.01792    0.00017    0.00048    0.00789
N24   3    0.368934    0.485407    0.705744    11.00000    0.03843    0.04853 =
         0.03048   -0.00027   -0.00510   -0.01723
AFIX  93
H24A  2    0.361856    0.517500    0.685461    11.00000   -1.20000
H24B  2    0.321464    0.426681    0.710387    11.00000   -1.20000
AFIX   0
N31   3    0.874871    0.909982    0.975363    11.00000    0.02203    0.03699 =
         0.01873   -0.00494    0.00101   -0.01032
AFIX  43
H31   2    0.892375    0.942552    0.995236    11.00000   -1.20000
AFIX   0
N32   3    0.937024    0.873048    0.920195    11.00000    0.02225    0.03436 =
         0.01678   -0.00158   -0.00028   -0.00439
N33   3    1.055236    0.997782    0.957961    11.00000    0.02457    0.03800 =
         0.01915   -0.00298    0.00126   -0.01371
N34   3    0.419764    1.029714    0.860055    11.00000    0.03461    0.03671 =
         0.02630    0.00439   -0.00172    0.01104
AFIX  93
H34A  2    0.373245    1.089960    0.863654    11.00000   -1.20000
H34B  2    0.418644    0.998469    0.839637    11.00000   -1.20000
AFIX   0
C11   1    0.047857    0.424567    0.884618    11.00000    0.01862    0.02673 =
         0.01460   -0.00154   -0.00070   -0.00115
C12   1    0.013186    0.412124    0.941386    11.00000    0.02073    0.03812 =
         0.01732   -0.00100    0.00124   -0.00094
C13   1   -0.085924    0.487282    0.936990    11.00000    0.03058    0.05030 =
         0.01841   -0.00410    0.00305    0.01169
AFIX  43
H13   2   -0.133462    0.511105    0.955706    11.00000   -1.20000
AFIX   0
C14   1   -0.113199    0.526428    0.904335    11.00000    0.02950    0.04470 =
         0.02657    0.00080    0.00209    0.01520
AFIX  43
H14   2   -0.181814    0.577621    0.900749    11.00000   -1.20000
AFIX   0
C15   1    0.354165    0.383951    0.891279    11.00000    0.01874    0.02205 =
         0.02086   -0.00287    0.00411    0.00448
C16   1    0.425913    0.478640    0.883339    11.00000    0.02462    0.02554 =
         0.02233    0.00258    0.00484    0.00469
AFIX  43
H16   2    0.418616    0.510858    0.861103    11.00000   -1.20000
AFIX   0
C17   1    0.507558    0.525234    0.907979    11.00000    0.02635    0.02373 =
         0.02962    0.00203    0.00705   -0.00370
AFIX  43
H17   2    0.556435    0.589753    0.902573    11.00000   -1.20000
AFIX   0
C18   1    0.519342    0.478457    0.940981    11.00000    0.01811    0.03161 =
         0.02147   -0.00450    0.00281    0.00057
C19   1    0.447512    0.382371    0.948140    11.00000    0.02172    0.02746 =
         0.01972    0.00219    0.00026    0.00002
AFIX  43
H19   2    0.455823    0.348713    0.970168    11.00000   -1.20000
AFIX   0
C20   1    0.365343    0.336089    0.923848    11.00000    0.01968    0.02238 =
         0.02159    0.00064    0.00195    0.00197
AFIX  43
H20   2    0.316229    0.271657    0.929196    11.00000   -1.20000
AFIX   0
C21   1    0.928006    0.539488    0.783508    11.00000    0.01646    0.02796 =
         0.01550    0.00106    0.00017    0.00162
C22   1    0.958332    0.549241    0.726549    11.00000    0.02083    0.03686 =
         0.01955    0.00079    0.00029    0.00116
C23   1    1.050029    0.466158    0.730162    11.00000    0.03106    0.04837 =
         0.01681   -0.00281    0.00492    0.01021
AFIX  43
H23   2    1.093119    0.438967    0.711039    11.00000   -1.20000
AFIX   0
C24   1    1.076610    0.424216    0.762581    11.00000    0.02921    0.03894 =
         0.02635   -0.00224    0.00094    0.01168
AFIX  43
H24   2    1.140034    0.367690    0.765635    11.00000   -1.20000
AFIX   0
C25   1    0.629182    0.608709    0.779383    11.00000    0.01932    0.02202 =
         0.01984    0.00035    0.00410    0.00289
C26   1    0.617635    0.659771    0.747166    11.00000    0.02232    0.02120 =
         0.02257   -0.00003    0.00052    0.00106
AFIX  43
H26   2    0.670505    0.721877    0.741960    11.00000   -1.20000
AFIX   0
C27   1    0.529833    0.620300    0.722949    11.00000    0.02559    0.02834 =
         0.02179    0.00112   -0.00036   -0.00045
AFIX  43
H27   2    0.520861    0.656664    0.701330    11.00000   -1.20000
AFIX   0
C28   1    0.453611    0.526753    0.730021    11.00000    0.02101    0.03032 =
         0.02314   -0.00643    0.00010   -0.00153
C29   1    0.464860    0.476824    0.762657    11.00000    0.02636    0.02619 =
         0.03174    0.00085    0.00716   -0.00637
AFIX  43
H29   2    0.411896    0.414981    0.768049    11.00000   -1.20000
AFIX   0
C30   1    0.552815    0.517431    0.786963    11.00000    0.02667    0.02788 =
         0.02123    0.00360    0.00400    0.00317
AFIX  43
H30   2    0.560827    0.482716    0.808844    11.00000   -1.20000
AFIX   0
C31   1    0.959639    0.926919    0.949872    11.00000    0.02108    0.03004 =
         0.01586    0.00238    0.00018   -0.00229
C32   1    1.018079    0.894991    0.895516    11.00000    0.02885    0.03449 =
         0.02019    0.00145    0.00163   -0.00190
C33   1    1.118216    0.969102    0.901165    11.00000    0.03196    0.04802 =
         0.02227   -0.00034    0.00632   -0.01125
AFIX  43
H33   2    1.174922    0.985244    0.883674    11.00000   -1.20000
AFIX   0
C34   1    1.133047    1.018477    0.932762    11.00000    0.03111    0.04809 =
         0.02596   -0.00456    0.00702   -0.01936
AFIX  43
H34   2    1.201460    1.069513    0.936921    11.00000   -1.20000
AFIX   0
C35   1    0.648772    0.893136    0.938663    11.00000    0.01996    0.02463 =
         0.01828    0.00068    0.00121   -0.00655
C36   1    0.574164    0.987208    0.945140    11.00000    0.02674    0.02762 =
         0.02505   -0.00382    0.00576   -0.00468
AFIX  43
H36   2    0.575852    1.019969    0.967318    11.00000   -1.20000
AFIX   0
C37   1    0.497859    1.032386    0.919111    11.00000    0.02684    0.02488 =
         0.02988   -0.00261    0.00544    0.00286
AFIX  43
H37   2    0.447181    1.096775    0.923442    11.00000   -1.20000
AFIX   0
C38   1    0.494119    0.984452    0.886304    11.00000    0.01914    0.02690 =
         0.02376    0.00579    0.00000   -0.00063
C39   1    0.569771    0.889401    0.880407    11.00000    0.02010    0.02666 =
         0.02069   -0.00170    0.00039   -0.00059
AFIX  43
H39   2    0.567861    0.855798    0.858343    11.00000   -1.20000
AFIX   0
C40   1    0.646455    0.844531    0.906191    11.00000    0.01941    0.02380 =
         0.02355   -0.00028    0.00096   -0.00069
AFIX  43
H40   2    0.697818    0.780529    0.901927    11.00000   -1.20000
AFIX   0
C56   1    0.054489    0.362398    0.975315    11.00000    0.03148    0.05515 =
         0.01880    0.00615    0.00403    0.00750
AFIX 137
H56A  2    0.138389    0.391716    0.982327    11.00000   -1.50000
H56B  2    0.058321    0.279739    0.973388    11.00000   -1.50000
H56C  2   -0.006242    0.383231    0.992412    11.00000   -1.50000
AFIX   0
C57   1    0.921487    0.602601    0.692768    11.00000    0.04114    0.05772 =
         0.01823    0.00702    0.00229    0.01534
AFIX 137
H57A  2    0.912739    0.684597    0.695714    11.00000   -1.50000
H57B  2    0.840690    0.570860    0.684059    11.00000   -1.50000
H57C  2    0.986965    0.587200    0.676466    11.00000   -1.50000
AFIX   0
C58   1    0.991148    0.834948    0.862350    11.00000    0.05075    0.05488 =
         0.02089   -0.01152    0.00922   -0.01542
AFIX 137
H58A  2    0.907327    0.857091    0.852933    11.00000   -1.50000
H58B  2    0.993053    0.752950    0.866196    11.00000   -1.50000
H58C  2    1.055414    0.855453    0.846187    11.00000   -1.50000
AFIX   0
O41   4    0.756151    0.366227    1.011870    11.00000    0.03968    0.04180 =
         0.04346    0.00515    0.00876   -0.00111
O42   4    0.219123    0.631459    0.656064    11.00000    0.04707    0.04360 =
         0.05709    0.01112    0.00990    0.00223
O43   4    0.311527    0.847341    0.814836    11.00000    0.05910    0.03861 =
         0.04709   -0.00449   -0.00345   -0.01021
C41   1    0.763476    0.344541    1.047918    11.00000    0.03556    0.04738 =
         0.03923   -0.00401   -0.00008    0.00215
AFIX  23
H41A  2    0.740707    0.413128    1.060817    11.00000   -1.20000
H41B  2    0.850080    0.320861    1.055482    11.00000   -1.20000
AFIX   0
C42   1    0.669639    0.250162    1.053458    11.00000    0.06423    0.03749 =
         0.04137   -0.00220    0.01795   -0.00008
AFIX  23
H42A  2    0.586952    0.281113    1.059809    11.00000   -1.20000
H42B  2    0.701551    0.198070    1.071695    11.00000   -1.20000
AFIX   0
C43   1    0.657618    0.189223    1.018927    11.00000    0.03623    0.04113 =
         0.03780    0.00285    0.00490   -0.00038
AFIX  23
H43A  2    0.685791    0.109495    1.021093    11.00000   -1.20000
H43B  2    0.569158    0.190823    1.009510    11.00000   -1.20000
AFIX   0
C44   1    0.744156    0.256358    0.996498    11.00000    0.04061    0.05273 =
         0.04038   -0.00594    0.00858   -0.00225
AFIX  23
H44A  2    0.827933    0.219304    0.995697    11.00000   -1.20000
H44B  2    0.706867    0.262315    0.972910    11.00000   -1.20000
AFIX   0
C45   1    0.203425    0.647396    0.619903    11.00000    0.04856    0.05322 =
         0.05835   -0.01177   -0.01050    0.01208
AFIX  23
H45A  2    0.113235    0.660852    0.613263    11.00000   -1.20000
H45B  2    0.232401    0.579482    0.607665    11.00000   -1.20000
AFIX   0
C46   1    0.282262    0.749117    0.611140    11.00000    0.08045    0.04007 =
         0.04546    0.00217    0.01559    0.00908
AFIX  23
H46A  2    0.233477    0.801653    0.595876    11.00000   -1.20000
H46B  2    0.359912    0.725728    0.599829    11.00000   -1.20000
AFIX   0
C47   1    0.314606    0.803998    0.645500    11.00000    0.03609    0.05084 =
         0.05108   -0.00047    0.00066    0.00092
AFIX  23
H47A  2    0.405190    0.793450    0.652250    11.00000   -1.20000
H47B  2    0.295248    0.886016    0.644910    11.00000   -1.20000
AFIX   0
C48   1    0.231828    0.743038    0.669451    11.00000    0.05291    0.05776 =
         0.03985    0.00116    0.00655    0.00989
AFIX  23
H48A  2    0.271452    0.741544    0.692850    11.00000   -1.20000
H48B  2    0.148169    0.780341    0.670183    11.00000   -1.20000
AFIX   0
C49   1    0.321855    0.741170    0.832235    11.00000    0.05160    0.03909 =
         0.04625    0.00344   -0.00353   -0.00552
AFIX  23
H49A  2    0.297327    0.749237    0.856215    11.00000   -1.20000
H49B  2    0.409865    0.712626    0.832228    11.00000   -1.20000
AFIX   0
C50   1    0.232386    0.660517    0.812821    11.00000    0.03928    0.03574 =
         0.04226   -0.00171    0.00625   -0.00217
AFIX  23
H50A  2    0.153839    0.648868    0.825184    11.00000   -1.20000
H50B  2    0.273185    0.586245    0.809282    11.00000   -1.20000
AFIX   0
C51   1    0.204781    0.720764    0.778916    11.00000    0.04946    0.04806 =
         0.04621   -0.00078   -0.00716   -0.00118
AFIX  23
H51A  2    0.220444    0.669977    0.759440    11.00000   -1.20000
H51B  2    0.115880    0.747119    0.777010    11.00000   -1.20000
AFIX   0
C52   1    0.294832    0.819429    0.779673    11.00000    0.04359    0.04443 =
         0.04687    0.00263    0.00586    0.00006
AFIX  23
H52A  2    0.376423    0.797943    0.770068    11.00000   -1.20000
H52B  2    0.258436    0.884062    0.766460    11.00000   -1.20000
AFIX   0
HKLF 4
REM  s92 in P 21/c
REM R1 =  0.0628 for    6070 Fo > 4sig(Fo)  and  0.1262 for all   10636 data
REM    625 parameters refined using      0 restraints
END
WGHT      0.0684      0.0000
REM Highest difference peak  0.410,  deepest hole -0.576,  1-sigma level  0.082
Q1    1   0.6825  0.8126  0.7934  11.00000  0.05    0.41
;
_shelx_res_checksum              8164
loop_
_space_group_symop_operation_xyz
'x, y, z'
'-x, y+1/2, -z+1/2'
'-x, -y, -z'
'x, -y-1/2, z-1/2'
loop_
_atom_site_type_symbol
_atom_site_label
_atom_site_fract_x
_atom_site_fract_y
_atom_site_fract_z
_atom_site_U_iso_or_equiv
_atom_site_adp_type
_atom_site_calc_flag
_atom_site_occupancy
S S11 0.25291(6) 0.32196(6) 0.86011(2) 0.02129(18) Uani d 1
S S21 0.73980(6) 0.65993(6) 0.80975(2) 0.02120(18) Uani d 1
S S31 0.74417(6) 0.83415(6) 0.97168(2) 0.02228(18) Uani d 1
O O11 0.22462(17) 0.20954(15) 0.87149(4) 0.0262(4) Uani d 1
O O12 0.30284(17) 0.33533(16) 0.82686(4) 0.0284(5) Uani d 1
O O21 0.78019(16) 0.76950(15) 0.79868(4) 0.0268(5) Uani d 1
O O22 0.69177(17) 0.64950(16) 0.84348(4) 0.0287(5) Uani d 1
O O31 0.68851(17) 0.85232(16) 1.00396(4) 0.0292(5) Uani d 1
O O32 0.77429(16) 0.72023(15) 0.96177(4) 0.0267(5) Uani d 1
N N11 0.12207(19) 0.39811(19) 0.85734(5) 0.0247(5) Uani d 1
H H11 0.0974 0.4239 0.8370 0.030 Uiso calc 1
N N12 0.08098(19) 0.37871(19) 0.91486(5) 0.0218(5) Uani d 1
N N13 -0.0476(2) 0.49571(19) 0.87746(5) 0.0241(5) Uani d 1
N N14 0.5984(2) 0.5253(2) 0.96566(6) 0.0341(6) Uani d 1
H H14A 0.6044 0.4951 0.9862 0.041 Uiso calc 1
H H14B 0.6432 0.5856 0.9610 0.041 Uiso calc 1
N N21 0.86047(19) 0.5717(2) 0.81117(5) 0.0257(6) Uani d 1
H H21 0.8837 0.5429 0.8312 0.031 Uiso calc 1
N N22 0.89790(19) 0.5881(2) 0.75340(5) 0.0237(5) Uani d 1
N N23 1.0164(2) 0.46017(19) 0.78991(5) 0.0249(5) Uani d 1
N N24 0.3689(2) 0.4854(2) 0.70574(6) 0.0393(7) Uani d 1
H H24A 0.3619 0.5175 0.6855 0.047 Uiso calc 1
H H24B 0.3215 0.4267 0.7104 0.047 Uiso calc 1
N N31 0.87487(19) 0.90998(19) 0.97536(5) 0.0259(6) Uani d 1
H H31 0.8924 0.9426 0.9952 0.031 Uiso calc 1
N N32 0.9370(2) 0.87305(19) 0.92019(5) 0.0245(5) Uani d 1
N N33 1.0552(2) 0.9978(2) 0.95796(5) 0.0272(6) Uani d 1
N N34 0.4198(2) 1.0297(2) 0.86005(6) 0.0326(6) Uani d 1
H H34A 0.3732 1.0900 0.8637 0.039 Uiso calc 1
H H34B 0.4186 0.9985 0.8396 0.039 Uiso calc 1
C C11 0.0479(2) 0.4246(2) 0.88462(6) 0.0200(6) Uani d 1
C C12 0.0132(2) 0.4121(2) 0.94139(7) 0.0254(7) Uani d 1
C C13 -0.0859(3) 0.4873(3) 0.93699(7) 0.0330(8) Uani d 1
H H13 -0.1335 0.5111 0.9557 0.040 Uiso calc 1
C C14 -0.1132(3) 0.5264(3) 0.90433(7) 0.0336(8) Uani d 1
H H14 -0.1818 0.5776 0.9007 0.040 Uiso calc 1
C C15 0.3542(2) 0.3840(2) 0.89128(6) 0.0205(6) Uani d 1
C C16 0.4259(2) 0.4786(2) 0.88334(7) 0.0240(6) Uani d 1
H H16 0.4186 0.5109 0.8611 0.029 Uiso calc 1
C C17 0.5076(2) 0.5252(2) 0.90798(7) 0.0264(7) Uani d 1
H H17 0.5564 0.5898 0.9026 0.032 Uiso calc 1
C C18 0.5193(2) 0.4785(2) 0.94098(7) 0.0237(6) Uani d 1
C C19 0.4475(2) 0.3824(2) 0.94814(7) 0.0230(6) Uani d 1
H H19 0.4558 0.3487 0.9702 0.028 Uiso calc 1
C C20 0.3653(2) 0.3361(2) 0.92385(6) 0.0212(6) Uani d 1
H H20 0.3162 0.2717 0.9292 0.025 Uiso calc 1
C C21 0.9280(2) 0.5395(2) 0.78351(6) 0.0200(6) Uani d 1
C C22 0.9583(2) 0.5492(2) 0.72655(7) 0.0258(7) Uani d 1
C C23 1.0500(3) 0.4662(3) 0.73016(7) 0.0320(7) Uani d 1
H H23 1.0931 0.4390 0.7110 0.038 Uiso calc 1
C C24 1.0766(3) 0.4242(3) 0.76258(7) 0.0315(7) Uani d 1
H H24 1.1400 0.3677 0.7656 0.038 Uiso calc 1
C C25 0.6292(2) 0.6087(2) 0.77938(6) 0.0203(6) Uani d 1
C C26 0.6176(2) 0.6598(2) 0.74717(6) 0.0220(6) Uani d 1
H H26 0.6705 0.7219 0.7420 0.026 Uiso calc 1
C C27 0.5298(2) 0.6203(2) 0.72295(7) 0.0253(6) Uani d 1
H H27 0.5209 0.6567 0.7013 0.030 Uiso calc 1
C C28 0.4536(2) 0.5268(2) 0.73002(7) 0.0249(6) Uani d 1
C C29 0.4649(2) 0.4768(2) 0.76266(7) 0.0279(7) Uani d 1
H H29 0.4119 0.4150 0.7680 0.034 Uiso calc 1
C C30 0.5528(2) 0.5174(2) 0.78696(7) 0.0252(6) Uani d 1
H H30 0.5608 0.4827 0.8088 0.030 Uiso calc 1
C C31 0.9596(2) 0.9269(2) 0.94987(6) 0.0223(6) Uani d 1
C C32 1.0181(3) 0.8950(2) 0.89552(7) 0.0278(7) Uani d 1
C C33 1.1182(3) 0.9691(3) 0.90116(7) 0.0339(7) Uani d 1
H H33 1.1749 0.9852 0.8837 0.041 Uiso calc 1
C C34 1.1330(3) 1.0185(3) 0.93276(7) 0.0349(8) Uani d 1
H H34 1.2015 1.0695 0.9369 0.042 Uiso calc 1
C C35 0.6488(2) 0.8931(2) 0.93866(6) 0.0209(6) Uani d 1
C C36 0.5742(2) 0.9872(2) 0.94514(7) 0.0263(7) Uani d 1
H H36 0.5759 1.0200 0.9673 0.032 Uiso calc 1
C C37 0.4979(2) 1.0324(2) 0.91911(7) 0.0271(7) Uani d 1
H H37 0.4472 1.0968 0.9234 0.032 Uiso calc 1
C C38 0.4941(2) 0.9845(2) 0.88630(7) 0.0233(6) Uani d 1
C C39 0.5698(2) 0.8894(2) 0.88041(7) 0.0225(6) Uani d 1
H H39 0.5679 0.8558 0.8583 0.027 Uiso calc 1
C C40 0.6465(2) 0.8445(2) 0.90619(7) 0.0223(6) Uani d 1
H H40 0.6978 0.7805 0.9019 0.027 Uiso calc 1
C C56 0.0545(3) 0.3624(3) 0.97532(6) 0.0351(8) Uani d 1
H H56A 0.1384 0.3917 0.9823 0.053 Uiso calc 1
H H56B 0.0583 0.2797 0.9734 0.053 Uiso calc 1
H H56C -0.0062 0.3832 0.9924 0.053 Uiso calc 1
C C57 0.9215(3) 0.6026(3) 0.69277(7) 0.0390(8) Uani d 1
H H57A 0.9127 0.6846 0.6957 0.059 Uiso calc 1
H H57B 0.8407 0.5709 0.6841 0.059 Uiso calc 1
H H57C 0.9870 0.5872 0.6765 0.059 Uiso calc 1
C C58 0.9911(3) 0.8349(3) 0.86235(7) 0.0419(9) Uani d 1
H H58A 0.9073 0.8571 0.8529 0.063 Uiso calc 1
H H58B 0.9931 0.7529 0.8662 0.063 Uiso calc 1
H H58C 1.0554 0.8555 0.8462 0.063 Uiso calc 1
O O41 0.75615(19) 0.36623(19) 1.01187(5) 0.0414(6) Uani d 1
O O42 0.2191(2) 0.6315(2) 0.65606(6) 0.0490(6) Uani d 1
O O43 0.3115(2) 0.84734(18) 0.81484(6) 0.0484(6) Uani d 1
C C41 0.7635(3) 0.3445(3) 1.04792(8) 0.0408(8) Uani d 1
H H41A 0.7407 0.4131 1.0608 0.049 Uiso calc 1
H H41B 0.8501 0.3209 1.0555 0.049 Uiso calc 1
C C42 0.6696(3) 0.2502(3) 1.05346(8) 0.0472(9) Uani d 1
H H42A 0.5870 0.2811 1.0598 0.057 Uiso calc 1
H H42B 0.7016 0.1981 1.0717 0.057 Uiso calc 1
C C43 0.6576(3) 0.1892(3) 1.01893(8) 0.0383(8) Uani d 1
H H43A 0.6858 0.1095 1.0211 0.046 Uiso calc 1
H H43B 0.5692 0.1908 1.0095 0.046 Uiso calc 1
C C44 0.7442(3) 0.2564(3) 0.99650(8) 0.0444(9) Uani d 1
H H44A 0.8279 0.2193 0.9957 0.053 Uiso calc 1
H H44B 0.7069 0.2623 0.9729 0.053 Uiso calc 1
C C45 0.2034(3) 0.6474(3) 0.61990(9) 0.0538(10) Uani d 1
H H45A 0.1132 0.6609 0.6133 0.065 Uiso calc 1
H H45B 0.2324 0.5795 0.6077 0.065 Uiso calc 1
C C46 0.2823(4) 0.7491(3) 0.61114(9) 0.0549(10) Uani d 1
H H46A 0.2335 0.8017 0.5959 0.066 Uiso calc 1
H H46B 0.3599 0.7257 0.5998 0.066 Uiso calc 1
C C47 0.3146(3) 0.8040(3) 0.64550(8) 0.0460(9) Uani d 1
H H47A 0.4052 0.7935 0.6522 0.055 Uiso calc 1
H H47B 0.2952 0.8860 0.6449 0.055 Uiso calc 1
C C48 0.2318(3) 0.7430(3) 0.66945(9) 0.0500(9) Uani d 1
H H48A 0.2715 0.7415 0.6928 0.060 Uiso calc 1
H H48B 0.1482 0.7803 0.6702 0.060 Uiso calc 1
C C49 0.3219(3) 0.7412(3) 0.83223(9) 0.0458(9) Uani d 1
H H49A 0.2973 0.7492 0.8562 0.055 Uiso calc 1
H H49B 0.4099 0.7126 0.8322 0.055 Uiso calc 1
C C50 0.2324(3) 0.6605(3) 0.81282(8) 0.0390(8) Uani d 1
H H50A 0.1538 0.6489 0.8252 0.047 Uiso calc 1
H H50B 0.2732 0.5862 0.8093 0.047 Uiso calc 1
C C51 0.2048(3) 0.7208(3) 0.77892(8) 0.0482(9) Uani d 1
H H51A 0.2204 0.6700 0.7594 0.058 Uiso calc 1
H H51B 0.1159 0.7471 0.7770 0.058 Uiso calc 1
C C52 0.2948(3) 0.8194(3) 0.77967(8) 0.0448(9) Uani d 1
H H52A 0.3764 0.7979 0.7701 0.054 Uiso calc 1
H H52B 0.2584 0.8841 0.7665 0.054 Uiso calc 1
loop_
_atom_site_aniso_label
_atom_site_aniso_U_11
_atom_site_aniso_U_22
_atom_site_aniso_U_33
_atom_site_aniso_U_12
_atom_site_aniso_U_13
_atom_site_aniso_U_23
S11 0.0219(4) 0.0264(4) 0.0156(3) 0.0045(3) 0.0009(3) -0.0011(3)
S21 0.0205(4) 0.0252(4) 0.0177(4) 0.0036(3) -0.0004(3) -0.0016(3)
S31 0.0202(4) 0.0277(4) 0.0187(4) -0.0072(3) -0.0011(3) 0.0012(3)
O11 0.0297(11) 0.0252(11) 0.0233(10) 0.0034(9) -0.0043(8) -0.0012(8)
O12 0.0301(11) 0.0396(13) 0.0158(10) 0.0056(9) 0.0058(8) -0.0009(8)
O21 0.0274(10) 0.0243(11) 0.0281(11) -0.0002(9) -0.0062(8) 0.0018(8)
O22 0.0297(11) 0.0396(13) 0.0170(10) 0.0075(9) 0.0042(8) -0.0020(8)
O31 0.0264(11) 0.0451(13) 0.0163(10) -0.0120(10) 0.0027(8) 0.0018(9)
O32 0.0277(10) 0.0265(12) 0.0254(11) -0.0049(9) -0.0058(8) 0.0028(8)
N11 0.0234(12) 0.0352(15) 0.0153(12) 0.0082(11) 0.0003(9) 0.0033(10)
N12 0.0189(12) 0.0307(14) 0.0158(12) 0.0014(10) 0.0008(9) 0.0031(10)
N13 0.0239(12) 0.0310(14) 0.0175(12) 0.0067(11) 0.0008(9) 0.0038(10)
N14 0.0338(14) 0.0362(16) 0.0319(14) -0.0113(12) -0.0025(11) -0.0015(11)
N21 0.0227(12) 0.0367(15) 0.0173(12) 0.0098(11) -0.0023(9) 0.0064(10)
N22 0.0211(12) 0.0346(15) 0.0156(12) 0.0039(11) 0.0018(9) 0.0030(10)
N23 0.0240(12) 0.0329(15) 0.0179(12) 0.0079(11) 0.0005(9) 0.0002(10)
N24 0.0384(15) 0.0485(18) 0.0305(15) -0.0172(13) -0.0051(12) -0.0003(12)
N31 0.0220(12) 0.0370(15) 0.0187(12) -0.0103(11) 0.0010(9) -0.0049(10)
N32 0.0222(12) 0.0344(15) 0.0168(12) -0.0044(11) -0.0003(9) -0.0016(10)
N33 0.0246(12) 0.0380(15) 0.0191(13) -0.0137(11) 0.0013(10) -0.0030(10)
N34 0.0346(14) 0.0367(15) 0.0263(14) 0.0110(12) -0.0017(11) 0.0044(11)
C11 0.0186(13) 0.0267(16) 0.0146(14) -0.0012(12) -0.0007(10) -0.0015(11)
C12 0.0207(14) 0.0381(18) 0.0173(14) -0.0009(13) 0.0012(11) -0.0010(12)
C13 0.0306(16) 0.050(2) 0.0184(15) 0.0117(15) 0.0030(12) -0.0041(13)
C14 0.0295(16) 0.045(2) 0.0266(17) 0.0152(15) 0.0021(13) 0.0008(14)
C15 0.0187(14) 0.0221(15) 0.0209(14) 0.0045(12) 0.0041(11) -0.0029(11)
C16 0.0246(15) 0.0255(16) 0.0223(15) 0.0047(13) 0.0048(12) 0.0026(12)
C17 0.0264(15) 0.0237(16) 0.0296(16) -0.0037(13) 0.0070(12) 0.0020(12)
C18 0.0181(14) 0.0316(17) 0.0215(15) 0.0006(13) 0.0028(11) -0.0045(12)
C19 0.0217(14) 0.0275(16) 0.0197(14) 0.0000(12) 0.0003(11) 0.0022(12)
C20 0.0197(14) 0.0224(15) 0.0216(15) 0.0020(12) 0.0019(11) 0.0006(11)
C21 0.0165(13) 0.0280(16) 0.0155(14) 0.0016(12) 0.0002(10) 0.0011(11)
C22 0.0208(14) 0.0369(18) 0.0196(15) 0.0012(13) 0.0003(11) 0.0008(13)
C23 0.0311(16) 0.048(2) 0.0168(15) 0.0102(15) 0.0049(12) -0.0028(13)
C24 0.0292(16) 0.0389(19) 0.0264(17) 0.0117(14) 0.0009(13) -0.0022(14)
C25 0.0193(14) 0.0220(15) 0.0198(14) 0.0029(12) 0.0041(11) 0.0004(11)
C26 0.0223(14) 0.0212(15) 0.0226(15) 0.0011(12) 0.0005(11) 0.0000(11)
C27 0.0256(15) 0.0283(17) 0.0218(15) -0.0004(13) -0.0004(12) 0.0011(12)
C28 0.0210(14) 0.0303(17) 0.0231(15) -0.0015(13) 0.0001(11) -0.0064(12)
C29 0.0264(15) 0.0262(17) 0.0317(17) -0.0064(13) 0.0072(12) 0.0009(13)
C30 0.0267(15) 0.0279(17) 0.0212(15) 0.0032(13) 0.0040(12) 0.0036(12)
C31 0.0211(14) 0.0300(17) 0.0159(14) -0.0023(12) 0.0002(11) 0.0024(12)
C32 0.0289(16) 0.0345(18) 0.0202(15) -0.0019(14) 0.0016(12) 0.0014(12)
C33 0.0320(17) 0.048(2) 0.0223(16) -0.0113(15) 0.0063(12) -0.0003(14)
C34 0.0311(17) 0.048(2) 0.0260(17) -0.0194(15) 0.0070(13) -0.0046(14)
C35 0.0200(14) 0.0246(16) 0.0183(14) -0.0065(12) 0.0012(11) 0.0007(11)
C36 0.0267(15) 0.0276(17) 0.0250(16) -0.0047(13) 0.0058(12) -0.0038(12)
C37 0.0268(15) 0.0249(16) 0.0299(17) 0.0029(13) 0.0054(12) -0.0026(12)
C38 0.0191(14) 0.0269(16) 0.0238(15) -0.0006(12) 0.0000(11) 0.0058(12)
C39 0.0201(14) 0.0267(16) 0.0207(14) -0.0006(12) 0.0004(11) -0.0017(12)
C40 0.0194(14) 0.0238(16) 0.0236(15) -0.0007(12) 0.0010(11) -0.0003(12)
C56 0.0315(17) 0.055(2) 0.0188(16) 0.0075(16) 0.0040(12) 0.0061(14)
C57 0.0411(19) 0.058(2) 0.0182(16) 0.0153(17) 0.0023(13) 0.0070(14)
C58 0.051(2) 0.055(2) 0.0209(17) -0.0154(18) 0.0092(14) -0.0115(15)
O41 0.0397(13) 0.0418(14) 0.0435(14) -0.0011(11) 0.0088(10) 0.0051(11)
O42 0.0471(14) 0.0436(15) 0.0571(16) 0.0022(12) 0.0099(11) 0.0111(12)
O43 0.0591(16) 0.0386(14) 0.0471(15) -0.0102(12) -0.0034(12) -0.0045(11)
C41 0.0356(19) 0.047(2) 0.039(2) 0.0022(16) -0.0001(15) -0.0040(16)
C42 0.064(2) 0.037(2) 0.041(2) -0.0001(18) 0.0180(17) -0.0022(15)
C43 0.0362(18) 0.041(2) 0.0378(19) -0.0004(16) 0.0049(14) 0.0029(15)
C44 0.0406(19) 0.053(2) 0.040(2) -0.0023(17) 0.0086(15) -0.0059(17)
C45 0.049(2) 0.053(3) 0.058(3) 0.012(2) -0.0105(18) -0.0118(19)
C46 0.080(3) 0.040(2) 0.045(2) 0.009(2) 0.0156(19) 0.0022(17)
C47 0.0361(19) 0.051(2) 0.051(2) 0.0009(17) 0.0007(16) -0.0005(17)
C48 0.053(2) 0.058(3) 0.040(2) 0.0099(19) 0.0065(17) 0.0012(18)
C49 0.052(2) 0.039(2) 0.046(2) -0.0055(18) -0.0035(16) 0.0034(17)
C50 0.0393(19) 0.036(2) 0.042(2) -0.0022(15) 0.0063(15) -0.0017(15)
C51 0.049(2) 0.048(2) 0.046(2) -0.0012(18) -0.0072(17) -0.0008(17)
C52 0.044(2) 0.044(2) 0.047(2) 0.0001(17) 0.0059(16) 0.0026(17)
loop_
_atom_type_symbol
_atom_type_description
_atom_type_scat_dispersion_real
_atom_type_scat_dispersion_imag
_atom_type_scat_source
C C 0.0033 0.0016 'International Tables Vol C Tables 4.2.6.8 and 6.1.1.4'
H H 0.0000 0.0000 'International Tables Vol C Tables 4.2.6.8 and 6.1.1.4'
N N 0.0061 0.0033 'International Tables Vol C Tables 4.2.6.8 and 6.1.1.4'
O O 0.0106 0.0060 'International Tables Vol C Tables 4.2.6.8 and 6.1.1.4'
S S 0.1246 0.1234 'International Tables Vol C Tables 4.2.6.8 and 6.1.1.4'
loop_
_geom_angle_atom_site_label_1
_geom_angle_atom_site_label_2
_geom_angle_atom_site_label_3
_geom_angle
_geom_angle_publ_flag
O11 S11 O12 118.25(11) n
O11 S11 N11 109.77(12) n
O12 S11 N11 102.86(11) n
O12 S11 C15 110.37(12) n
O11 S11 C15 107.49(12) n
N11 S11 C15 107.65(12) n
O21 S21 O22 118.40(11) n
O21 S21 N21 109.83(12) n
O22 S21 N21 102.72(11) n
O21 S21 C25 107.90(12) n
O22 S21 C25 110.03(12) n
N21 S21 C25 107.43(12) n
O31 S31 O32 118.81(12) n
O31 S31 N31 102.59(11) n
O32 S31 N31 109.65(12) n
O31 S31 C35 110.23(12) n
O32 S31 C35 107.49(12) n
N31 S31 C35 107.56(12) n
C11 N11 S11 125.00(17) n
C11 N11 H11 117.5 ?
S11 N11 H11 117.5 ?
C11 N12 C12 116.0(2) ?
C11 N13 C14 114.9(2) ?
C18 N14 H14A 120.0 ?
C18 N14 H14B 120.0 ?
H14A N14 H14B 120.0 ?
C21 N21 S21 125.26(17) ?
C21 N21 H21 117.4 ?
S21 N21 H21 117.4 ?
C21 N22 C22 116.3(2) ?
C24 N23 C21 115.2(2) ?
C28 N24 H24A 120.0 ?
C28 N24 H24B 120.0 ?
H24A N24 H24B 120.0 ?
C31 N31 S31 125.66(18) ?
C31 N31 H31 117.2 ?
S31 N31 H31 117.2 ?
C31 N32 C32 116.0(2) ?
C34 N33 C31 115.1(2) ?
C38 N34 H34A 120.0 ?
C38 N34 H34B 120.0 ?
H34A N34 H34B 120.0 ?
N12 C11 N13 127.5(2) n
N13 C11 N11 115.4(2) ?
N12 C11 N11 117.1(2) ?
N12 C12 C13 121.4(2) ?
N12 C12 C56 115.1(2) ?
C13 C12 C56 123.5(3) ?
C14 C13 C12 117.2(3) ?
C14 C13 H13 121.4 ?
C12 C13 H13 121.4 ?
N13 C14 C13 123.0(3) ?
N13 C14 H14 118.5 ?
C13 C14 H14 118.5 ?
C16 C15 C20 120.3(2) ?
C16 C15 S11 120.2(2) ?
C20 C15 S11 119.5(2) ?
C17 C16 C15 119.6(2) ?
C17 C16 H16 120.2 ?
C15 C16 H16 120.2 ?
C16 C17 C18 120.8(3) ?
C16 C17 H17 119.6 ?
C18 C17 H17 119.6 ?
N14 C18 C19 120.4(2) ?
N14 C18 C17 121.1(3) ?
C19 C18 C17 118.4(2) ?
C20 C19 C18 121.1(2) ?
C20 C19 H19 119.5 ?
C18 C19 H19 119.5 ?
C19 C20 C15 119.8(3) ?
C19 C20 H20 120.1 ?
C15 C20 H20 120.1 ?
N22 C21 N23 127.0(2) n
N22 C21 N21 117.6(2) ?
N23 C21 N21 115.4(2) ?
N22 C22 C23 121.4(2) ?
N22 C22 C57 115.8(2) ?
C23 C22 C57 122.8(3) ?
C24 C23 C22 117.5(3) ?
C24 C23 H23 121.3 ?
C22 C23 H23 121.3 ?
N23 C24 C23 122.5(3) ?
N23 C24 H24 118.8 ?
C23 C24 H24 118.8 ?
C30 C25 C26 120.0(2) ?
C30 C25 S21 120.3(2) ?
C26 C25 S21 119.7(2) ?
C27 C26 C25 120.2(3) ?
C27 C26 H26 119.9 ?
C25 C26 H26 119.9 ?
C26 C27 C28 120.4(2) ?
C26 C27 H27 119.8 ?
C28 C27 H27 119.8 ?
N24 C28 C27 120.6(3) ?
N24 C28 C29 120.5(3) ?
C27 C28 C29 118.9(2) ?
C30 C29 C28 120.3(3) ?
C30 C29 H29 119.8 ?
C28 C29 H29 119.8 ?
C29 C30 C25 120.1(2) ?
C29 C30 H30 120.0 ?
C25 C30 H30 120.0 ?
N32 C31 N33 127.3(2) n
N32 C31 N31 117.5(2) ?
N33 C31 N31 115.2(2) ?
N32 C32 C33 121.0(3) ?
N32 C32 C58 115.5(2) ?
C33 C32 C58 123.6(3) ?
C34 C33 C32 117.9(3) ?
C34 C33 H33 121.0 ?
C32 C33 H33 121.0 ?
N33 C34 C33 122.7(3) ?
N33 C34 H34 118.7 ?
C33 C34 H34 118.7 ?
C36 C35 C40 120.5(2) ?
C36 C35 S31 119.7(2) ?
C40 C35 S31 119.7(2) ?
C37 C36 C35 119.5(3) ?
C37 C36 H36 120.3 ?
C35 C36 H36 120.3 ?
C36 C37 C38 120.8(3) ?
C36 C37 H37 119.6 ?
C38 C37 H37 119.6 ?
N34 C38 C37 121.3(3) ?
N34 C38 C39 120.0(2) ?
C37 C38 C39 118.7(2) ?
C40 C39 C38 120.7(2) ?
C40 C39 H39 119.7 ?
C38 C39 H39 119.7 ?
C39 C40 C35 119.8(3) ?
C39 C40 H40 120.1 ?
C35 C40 H40 120.1 ?
C12 C56 H56A 109.5 ?
C12 C56 H56B 109.5 ?
H56A C56 H56B 109.5 ?
C12 C56 H56C 109.5 ?
H56A C56 H56C 109.5 ?
H56B C56 H56C 109.5 ?
C22 C57 H57A 109.5 ?
C22 C57 H57B 109.5 ?
H57A C57 H57B 109.5 ?
C22 C57 H57C 109.5 ?
H57A C57 H57C 109.5 ?
H57B C57 H57C 109.5 ?
C32 C58 H58A 109.5 ?
C32 C58 H58B 109.5 ?
H58A C58 H58B 109.5 ?
C32 C58 H58C 109.5 ?
H58A C58 H58C 109.5 ?
H58B C58 H58C 109.5 ?
C41 O41 C44 104.6(2) ?
C48 O42 C45 104.3(2) ?
C52 O43 C49 105.2(2) ?
O41 C41 C42 105.4(2) ?
O41 C41 H41A 110.7 ?
C42 C41 H41A 110.7 ?
O41 C41 H41B 110.7 ?
C42 C41 H41B 110.7 ?
H41A C41 H41B 108.8 ?
C41 C42 C43 104.4(3) ?
C41 C42 H42A 110.9 ?
C43 C42 H42A 110.9 ?
C41 C42 H42B 110.9 ?
C43 C42 H42B 110.9 ?
H42A C42 H42B 108.9 ?
C44 C43 C42 103.7(3) ?
C44 C43 H43A 111.0 ?
C42 C43 H43A 111.0 ?
C44 C43 H43B 111.0 ?
C42 C43 H43B 111.0 ?
H43A C43 H43B 109.0 ?
O41 C44 C43 105.9(3) ?
O41 C44 H44A 110.6 ?
C43 C44 H44A 110.6 ?
O41 C44 H44B 110.6 ?
C43 C44 H44B 110.6 ?
H44A C44 H44B 108.7 ?
O42 C45 C46 106.8(3) ?
O42 C45 H45A 110.4 ?
C46 C45 H45A 110.4 ?
O42 C45 H45B 110.4 ?
C46 C45 H45B 110.4 ?
H45A C45 H45B 108.6 ?
C45 C46 C47 104.0(3) ?
C45 C46 H46A 110.9 ?
C47 C46 H46A 110.9 ?
C45 C46 H46B 110.9 ?
C47 C46 H46B 110.9 ?
H46A C46 H46B 109.0 ?
C48 C47 C46 103.6(3) ?
C48 C47 H47A 111.0 ?
C46 C47 H47A 111.0 ?
C48 C47 H47B 111.0 ?
C46 C47 H47B 111.0 ?
H47A C47 H47B 109.0 ?
O42 C48 C47 105.2(3) ?
O42 C48 H48A 110.7 ?
C47 C48 H48A 110.7 ?
O42 C48 H48B 110.7 ?
C47 C48 H48B 110.7 ?
H48A C48 H48B 108.8 ?
O43 C49 C50 106.2(2) ?
O43 C49 H49A 110.5 ?
C50 C49 H49A 110.5 ?
O43 C49 H49B 110.5 ?
C50 C49 H49B 110.5 ?
H49A C49 H49B 108.7 ?
C49 C50 C51 103.5(3) ?
C49 C50 H50A 111.1 ?
C51 C50 H50A 111.1 ?
C49 C50 H50B 111.1 ?
C51 C50 H50B 111.1 ?
H50A C50 H50B 109.0 ?
C52 C51 C50 104.4(2) ?
C52 C51 H51A 110.9 ?
C50 C51 H51A 110.9 ?
C52 C51 H51B 110.9 ?
C50 C51 H51B 110.9 ?
H51A C51 H51B 108.9 ?
O43 C52 C51 104.5(3) ?
O43 C52 H52A 110.9 ?
C51 C52 H52A 110.9 ?
O43 C52 H52B 110.9 ?
C51 C52 H52B 110.9 ?
H52A C52 H52B 108.9 ?
loop_
_geom_bond_atom_site_label_1
_geom_bond_atom_site_label_2
_geom_bond_distance
_geom_bond_publ_flag
S11 O11 1.4361(19) n
S11 O12 1.4359(19) n
S11 N11 1.650(2) n
S11 C15 1.747(3) n
S21 O21 1.4358(19) n
S21 O22 1.4417(19) n
S21 N21 1.646(2) n
S21 C25 1.738(3) n
S31 O31 1.4346(19) n
S31 O32 1.440(2) n
S31 N31 1.648(2) n
S31 C35 1.748(2) n
N11 C11 1.390(3) ?
N11 H11 0.8800 ?
N12 C11 1.334(3) ?
N12 C12 1.348(3) ?
N13 C11 1.333(3) ?
N13 C14 1.337(3) ?
N14 C18 1.365(3) n
N14 H14A 0.8800 ?
N14 H14B 0.8800 ?
N21 C21 1.378(3) ?
N21 H21 0.8800 ?
N22 C21 1.336(3) ?
N22 C22 1.336(3) ?
N23 C24 1.339(3) ?
N23 C21 1.339(3) ?
N24 C28 1.366(3) n
N24 H24A 0.8800 ?
N24 H24B 0.8800 ?
N31 C31 1.386(3) ?
N31 H31 0.8800 ?
N32 C31 1.337(3) ?
N32 C32 1.346(3) ?
N33 C34 1.336(3) ?
N33 C31 1.339(3) ?
N34 C38 1.373(3) ?
N34 H34A 0.8800 ?
N34 H34B 0.8800 ?
C12 C13 1.378(4) ?
C12 C56 1.499(3) ?
C13 C14 1.378(4) ?
C13 H13 0.9500 ?
C14 H14 0.9500 ?
C15 C16 1.394(4) ?
C15 C20 1.395(3) ?
C16 C17 1.379(3) ?
C16 H16 0.9500 ?
C17 C18 1.405(4) ?
C17 H17 0.9500 ?
C18 C19 1.401(4) ?
C19 C20 1.372(3) ?
C19 H19 0.9500 ?
C20 H20 0.9500 ?
C22 C23 1.382(4) ?
C22 C57 1.500(3) ?
C23 C24 1.379(3) ?
C23 H23 0.9500 ?
C24 H24 0.9500 ?
C25 C30 1.387(4) ?
C25 C26 1.398(3) ?
C26 C27 1.378(3) ?
C26 H26 0.9500 ?
C27 C28 1.403(4) ?
C27 H27 0.9500 ?
C28 C29 1.407(4) ?
C29 C30 1.386(3) ?
C29 H29 0.9500 ?
C30 H30 0.9500 ?
C32 C33 1.384(4) ?
C32 C58 1.495(4) ?
C33 C34 1.370(4) ?
C33 H33 0.9500 ?
C34 H34 0.9500 ?
C35 C36 1.393(4) ?
C35 C40 1.394(3) ?
C36 C37 1.378(3) ?
C36 H36 0.9500 ?
C37 C38 1.403(3) ?
C37 H37 0.9500 ?
C38 C39 1.404(4) ?
C39 C40 1.372(3) ?
C39 H39 0.9500 ?
C40 H40 0.9500 ?
C56 H56A 0.9800 ?
C56 H56B 0.9800 ?
C56 H56C 0.9800 ?
C57 H57A 0.9800 ?
C57 H57B 0.9800 ?
C57 H57C 0.9800 ?
C58 H58A 0.9800 ?
C58 H58B 0.9800 ?
C58 H58C 0.9800 ?
O41 C41 1.433(3) ?
O41 C44 1.433(4) ?
O42 C48 1.422(4) ?
O42 C45 1.430(4) ?
O43 C52 1.419(3) ?
O43 C49 1.429(4) ?
C41 C42 1.515(4) ?
C41 H41A 0.9900 ?
C41 H41B 0.9900 ?
C42 C43 1.532(4) ?
C42 H42A 0.9900 ?
C42 H42B 0.9900 ?
C43 C44 1.520(4) ?
C43 H43A 0.9900 ?
C43 H43B 0.9900 ?
C44 H44A 0.9900 ?
C44 H44B 0.9900 ?
C45 C46 1.511(5) ?
C45 H45A 0.9900 ?
C45 H45B 0.9900 ?
C46 C47 1.518(4) ?
C46 H46A 0.9900 ?
C46 H46B 0.9900 ?
C47 C48 1.496(4) ?
C47 H47A 0.9900 ?
C47 H47B 0.9900 ?
C48 H48A 0.9900 ?
C48 H48B 0.9900 ?
C49 C50 1.521(4) ?
C49 H49A 0.9900 ?
C49 H49B 0.9900 ?
C50 C51 1.522(4) ?
C50 H50A 0.9900 ?
C50 H50B 0.9900 ?
C51 C52 1.504(4) ?
C51 H51A 0.9900 ?
C51 H51B 0.9900 ?
C52 H52A 0.9900 ?
C52 H52B 0.9900 ?
loop_
_geom_hbond_atom_site_label_D
_geom_hbond_atom_site_label_H
_geom_hbond_atom_site_label_A
_geom_hbond_site_symmetry_A
_geom_hbond_distance_DH
_geom_hbond_distance_HA
_geom_hbond_distance_DA
_geom_hbond_angle_DHA
N14 H14B O32 . 0.88 2.11 2.968(3) 166
N14 H14A O41 . 0.88 2.40 3.051(3) 131
N24 H24A O42 . 0.88 2.29 2.998(3) 137
N34 H34B O43 . 0.88 2.30 2.983(3) 134
N11 H11 N23 1_455 0.88 2.04 2.913(3) 169
N21 H21 N13 1_655 0.88 2.00 2.873(3) 172
N24 H24B O21 2_646 0.88 2.17 2.999(3) 158
N31 H31 N33 3_777 0.88 2.02 2.893(3) 174
N34 H34A O11 1_565 0.88 2.15 3.009(3) 167

_cod_database_fobs_code 1543127
