#------------------------------------------------------------------------------
#$Date: 2016-06-11 05:21:57 +0300 (Sat, 11 Jun 2016) $
#$Revision: 183364 $
#$URL: file:///home/coder/svn-repositories/cod/cif/1/54/34/1543425.cif $
#------------------------------------------------------------------------------
#
# This file is available in the Crystallography Open Database (COD),
# http://www.crystallography.net/. The original data for this entry
# were provided by IUCr Journals, http://journals.iucr.org/.
#
# The file may be used within the scientific community so long as
# proper attribution is given to the journal article from which the
# data were obtained.
#
data_1543425
loop_
_publ_author_name
'Saravanan, K.'
'Elancheran, R.'
'Divakar, S.'
'Kabilan, S.'
'Selvanayagam, S.'
_publ_section_title
;
 2-Chloro-<i>N</i>-(4-phenyl-1,3-thiazol-2-yl)acetamide
;
_journal_coeditor_code           ZQ4007
_journal_issue                   6
_journal_name_full               IUCrData
_journal_page_first              x160879
_journal_paper_doi               10.1107/S2414314616008798
_journal_volume                  1
_journal_year                    2016
_chemical_formula_iupac          'C11 H9 Cl N2 O S'
_chemical_formula_moiety         'C11 H9 Cl N2 O S'
_chemical_formula_sum            'C11 H9 Cl N2 O S'
_chemical_formula_weight         252.71
_chemical_name_systematic
;
2-Chloro-<i>N</i>-(4-phenyl-1,3-thiazol-2-yl)acetamide
;
_space_group_crystal_system      triclinic
_space_group_IT_number           2
_space_group_name_Hall           '-P 1'
_space_group_name_H-M_alt        'P -1'
_symmetry_space_group_name_Hall  '-P 1'
_symmetry_space_group_name_H-M   'P -1'
_atom_sites_solution_hydrogens   geom
_audit_creation_method           SHELXL-2014/7
_cell_angle_alpha                85.693(19)
_cell_angle_beta                 76.448(19)
_cell_angle_gamma                87.082(19)
_cell_formula_units_Z            4
_cell_length_a                   8.0406(9)
_cell_length_b                   9.2313(14)
_cell_length_c                   15.9898(17)
_cell_measurement_reflns_used    4218
_cell_measurement_temperature    296(2)
_cell_measurement_theta_max      26.8
_cell_measurement_theta_min      3.2
_cell_volume                     1149.9(3)
_computing_cell_refinement
;
SAINT (Bruker, 2002)
;
_computing_data_collection
;
SMART (Bruker, 2002)
;
_computing_data_reduction
;
SAINT (Bruker, 2002)
;
_computing_molecular_graphics
;
ORTEP-3 for Windows (Farrugia, 2012) and PLATON (Spek, 2009)
;
_computing_publication_material
;
SHELXL2014 (Sheldrick, 2015) and PLATON (Spek, 2009)
;
_computing_structure_refinement
;
SHELXL2014 (Sheldrick, 2015)
;
_computing_structure_solution
;
SHELXS97 (Sheldrick, 2008)
;
_diffrn_ambient_temperature      296(2)
_diffrn_measured_fraction_theta_full 0.988
_diffrn_measured_fraction_theta_max 0.973
_diffrn_measurement_device_type  'Bruker SMART APEX CCD area-detector'
_diffrn_measurement_method       '\w scans'
_diffrn_radiation_source         'fine-focus sealed tube'
_diffrn_radiation_type           MoK\a
_diffrn_radiation_wavelength     0.71073
_diffrn_reflns_av_R_equivalents  0.0453
_diffrn_reflns_limit_h_max       10
_diffrn_reflns_limit_h_min       -10
_diffrn_reflns_limit_k_max       7
_diffrn_reflns_limit_k_min       -11
_diffrn_reflns_limit_l_max       19
_diffrn_reflns_limit_l_min       -20
_diffrn_reflns_number            6721
_diffrn_reflns_theta_full        25.242
_diffrn_reflns_theta_max         27.467
_diffrn_reflns_theta_min         3.180
_exptl_absorpt_coefficient_mu    0.492
_exptl_absorpt_correction_type   none
_exptl_crystal_colour            Colourless
_exptl_crystal_density_diffrn    1.460
_exptl_crystal_density_method    'not measured'
_exptl_crystal_description       Block
_exptl_crystal_F_000             520
_exptl_crystal_size_max          0.22
_exptl_crystal_size_mid          0.20
_exptl_crystal_size_min          0.18
_refine_diff_density_max         0.437
_refine_diff_density_min         -0.522
_refine_ls_extinction_method     none
_refine_ls_goodness_of_fit_ref   1.027
_refine_ls_hydrogen_treatment    constr
_refine_ls_matrix_type           full
_refine_ls_number_parameters     289
_refine_ls_number_reflns         5129
_refine_ls_number_restraints     0
_refine_ls_restrained_S_all      1.027
_refine_ls_R_factor_all          0.0771
_refine_ls_R_factor_gt           0.0554
_refine_ls_shift/su_max          0.000
_refine_ls_shift/su_mean         0.000
_refine_ls_structure_factor_coef Fsqd
_refine_ls_weighting_details
'w=1/[\s^2^(Fo^2^)+(0.0971P)^2^] where P=(Fo^2^+2Fc^2^)/3'
_refine_ls_weighting_scheme      calc
_refine_ls_wR_factor_gt          0.1534
_refine_ls_wR_factor_ref         0.1739
_reflns_number_gt                3519
_reflns_number_total             5129
_reflns_threshold_expression     'I > 2\s(I)'
_cod_data_source_file            zq4007sup1.cif
_cod_data_source_block           I
_cod_database_code               1543425
_shelx_space_group_comment
;
The symmetry employed for this shelxl refinement is uniquely defined
by the following loop, which should always be used as a source of
symmetry information in preference to the above space-group names.
They are only intended as comments.
;
_shelx_hkl_file
;
   0   0   318413.70  438.52   1-0.31333 0.28150-0.94674 0.93684-0.07409 0.20754
   0   0   4 1719.33   95.35   1-0.29539 0.25297-0.95421 0.94092-0.04709 0.22510
   0   0  -5135094.7 1143.33   1 0.28469-0.23142 0.95832-0.94121 0.02381-0.24609
   0   0  -643437.15  612.16   1 0.26584-0.20192 0.96400-0.94347-0.00389-0.26283
   0   0  -651835.64  748.40   1-0.91573 0.97821-0.16050 0.18119-0.36832 0.10129
   0   0  -736354.52  525.19   1 0.24655-0.17197 0.96860-0.94465-0.03180-0.27937
   0   0   740544.05  552.05   1-0.24033 0.16609-0.97003 0.94676 0.03575 0.27574
   0   0  -745294.61  714.41   1-0.90501 0.97790-0.16956 0.19369-0.39012 0.07858
   0   0  -8   66.60   45.10   1 0.22680-0.14157 0.97209-0.94472-0.05990-0.29573
   0   0   8  -83.08   93.27   1-0.22112 0.13629-0.97315 0.94657 0.06373 0.29227
   0   0  -8   76.13   49.40   1-0.89363 0.97693-0.17854 0.20613-0.41176 0.05571
   0   0  -966433.18 1470.23   1 0.20602-0.11022 0.97468-0.94335-0.08688-0.31295
   0   0   971495.04 1467.70   1-0.20016 0.10480-0.97536 0.94578 0.09271 0.30743
   0   0  -978605.69 1675.32   1-0.88157 0.97529-0.18745 0.21848-0.43323 0.03268
   0   0 -11 1929.21  431.88   1 0.16411-0.04702 0.97586-0.93756-0.14408-0.34460
   0   0  11 2356.23  178.61   1-0.15952 0.04296-0.97579 0.93963 0.14960 0.33947
   0   0 -11 2108.00  551.19   1-0.85538 0.96993-0.20504 0.24298-0.47568-0.01388
   0   0 -12 3288.67  589.47   1 0.14238-0.01465 0.97457-0.93279-0.17301-0.36010
   0   0 -12 4109.13  871.14   1-0.84155 0.96656-0.21321 0.25378-0.49630-0.03680
   0   0 -13  -13.98   61.11   1 0.12012 0.01825 0.97195-0.92669-0.20217-0.37536
   0   0 -13   53.43   87.11   1-0.82671 0.96214-0.22181 0.26575-0.51704-0.06049
   0   0 -1417843.38 1005.08   1 0.09844 0.05071 0.96778-0.91929-0.23174-0.39028
   0   0 -1422611.37 1320.92   1-0.81113 0.95697-0.23033 0.27765-0.53760-0.08436
   0   0 -15  631.78  178.40   1 0.07502 0.08477 0.96230-0.91035-0.26141-0.40504
   0   0 -15  869.79  245.77   1-0.79477 0.95102-0.23876 0.28946-0.55797-0.10841
   0   0 -16  866.20  209.69   1 0.05097 0.11948 0.95525-0.89984-0.29136-0.41953
   0   0 -16 1522.19  395.78   1-0.77761 0.94428-0.24711 0.30119-0.57814-0.13266
   0   0 -17 2497.08  565.08   1 0.02622 0.15488 0.94651-0.88763-0.32160-0.43371
   0   0 -17 3603.25  762.31   1-0.75963 0.93672-0.25536 0.31283-0.59811-0.15712
   0   0 -18  310.22  110.38   1-0.74097 0.92836-0.26321 0.32403-0.61779-0.18201
   0   0 -19   53.95   73.75   1-0.72123 0.91904-0.27129 0.33549-0.63735-0.20689
   0   0 -20  700.79  224.93   1-0.70055 0.90877-0.27926 0.34684-0.65668-0.23200
   0   1 -19  174.42  106.62   1-0.69276 0.88768-0.28215 0.42357-0.66367-0.18056
   0   1 -18  188.28  108.81   1-0.71320 0.89770-0.27444 0.41249-0.64499-0.15481
   0   1 -17 1091.93  200.65   1 0.11531 0.06314 0.97121-0.83486-0.20842-0.54682
   0   1 -17 1117.48  322.95   1-0.73267 0.90677-0.26667 0.40133-0.62616-0.12921
   0   1 -16  688.84  161.00   1 0.14348 0.02432 0.97466-0.84179-0.17156-0.53925
   0   1 -16  820.30  237.93   1-0.75121 0.91489-0.25883 0.39011-0.60719-0.10375
   0   1 -15  156.18   74.37   1 0.17132-0.01415 0.97600-0.84661-0.13437-0.53202
   0  -1  15  207.05  158.09   1-0.16690 0.01061-0.97606 0.84948 0.13941 0.52750
   0   1 -14  450.03  105.05   1 0.19893-0.05241 0.97523-0.84931-0.09669-0.52527
   0  -1  14  434.17  129.54   1-0.19371 0.04802-0.97575 0.85245 0.10187 0.52058
   0   1 -14  475.92  142.64   1-0.78536 0.92832-0.24340 0.36799-0.56917-0.05278
   0   1 -13  618.71  128.88   1 0.22702-0.09081 0.97206-0.85035-0.05959-0.51831
   0  -1  13  586.16  129.07   1-0.22142 0.08622-0.97312 0.85271 0.06330 0.51520
   0   1 -13  700.33  190.10   1-0.80126 0.93381-0.23547 0.35668-0.55001-0.02751
   0   1 -12 3481.25  664.32   1 0.25452-0.12897 0.96685-0.84856-0.02032-0.51312
   0  -1  12 3353.99  211.33   1-0.24820 0.12361-0.96840 0.85132 0.02414 0.50986
   0   1 -12 4679.87  527.95   1-0.81632 0.93845-0.22754 0.34538-0.53087-0.00223
   0   1 -11 4464.71  747.87   1 0.28220-0.16730 0.95914-0.84428 0.02011-0.50911
   0  -1  11 4436.64  261.74   1-0.27518 0.16119-0.96125 0.84749-0.01621 0.50572
   0   1 -11 4850.34  424.35   1-0.83053 0.94225-0.21964 0.33410-0.51182 0.02313
   0  -1  1024372.31  664.99   1-0.30254 0.19915-0.95136 0.84092-0.05815 0.50316
   0   1 -1026704.20  727.64   1-0.84388 0.94518-0.21182 0.32289-0.49294 0.04868
   0  -1   9  124.10  109.00   1-0.33100 0.23828-0.93809 0.83115-0.10205 0.50239
   0   1  -9  -17.71   73.34   1-0.85614 0.94692-0.20456 0.31284-0.47451 0.07396
   0  -1   812657.08  382.12   1-0.35985 0.27774-0.92106 0.81743-0.14878 0.50464
   0   1  -814747.68  506.41   1-0.86769 0.94805-0.19705 0.30187-0.45637 0.10033
   0  -1   7  340.86   83.48   1-0.38995 0.31845-0.89903 0.79869-0.19918 0.51056
   0   1  -7  144.67   55.57   1-0.87816 0.94810-0.18987 0.29125-0.43906 0.12752
   0  -1   618306.39  499.39   1-0.42279 0.36181-0.86950 0.77232-0.25535 0.52211
   0   1  -620417.67  559.73   1-0.88733 0.94686-0.18326 0.28119-0.42314 0.15611
   0  -1   586465.44  844.67   1-0.45688 0.40652-0.83088 0.73703-0.31762 0.53992
   0   1  -596304.00  965.21   1-0.89475 0.94387-0.17768 0.27216-0.40968 0.18716
   0  -1   416236.84  430.10   1-0.49447 0.45465-0.77670 0.68601-0.39015 0.56804
   0   1  -417993.51  455.77   1-0.89935 0.93805-0.17410 0.26513-0.40106 0.22304
   0  -1   331109.05  372.75   1-0.53657 0.50723-0.69824 0.61111-0.47385 0.60765
   0   1  -333585.58  352.98   1-0.89796 0.92625-0.17519 0.26278-0.40369 0.27017
   0  -1   2128879.7 1029.42   1-0.57797 0.55958-0.57754 0.49351-0.57653 0.66581
   0   1  -2135904.4 1003.26   1-0.87581 0.89369-0.19151 0.27565-0.44301 0.35400
   0  -1  -329584.00  313.77   1-0.17237 0.20684 0.82047-0.88752-0.54506 0.41173
   0  -1  -4 5765.47  176.59   1-0.07867 0.12364 0.89219-0.95578-0.44473 0.26682
   0  -1  -5   66.43   32.04   1-0.02374 0.07935 0.92381-0.98396-0.38209 0.15970
   0  -1  -6    3.69   28.71   1 0.00695 0.05921 0.93866-0.99517-0.34476 0.07818
   0  -1  -711430.60  343.76   1 0.02341 0.05340 0.94542-0.99847-0.32501 0.01399
   0  -1  -713898.12  461.70   1-0.91702 0.99286-0.15937 0.10626-0.36559 0.05405
   0  -1  -823160.73  544.01   1 0.03021 0.05726 0.94801-0.99760-0.31677-0.03866
   0  -1  -938679.18  882.50   1 0.03040 0.06772 0.94808-0.99421-0.31654-0.08333
   0  -1  -949841.73 1192.65   1-0.89459 0.99125-0.17780 0.13160-0.40999 0.00943
   0  -1 -10 1561.53  266.05   1 0.02584 0.08293 0.94636-0.98902-0.32206-0.12224
   0  -1 -10 2436.96  630.15   1-0.88239 0.98947-0.18686 0.14410-0.43181-0.01324
   0  -1 -11  -13.10   54.22   1 0.01773 0.10169 0.94316-0.98236-0.33185-0.15688
   0  -1 -11   33.56   51.09   1-0.86952 0.98701-0.19582 0.15651-0.45341-0.03614
   0  -1 -1220372.34  742.77   1 0.00684 0.12324 0.93861-0.97435-0.34489-0.18827
   0  -1 -1224644.39  875.51   1-0.85595 0.98386-0.20468 0.16882-0.47480-0.05926
   0  -1 -13  836.14  215.70   1-0.00614 0.14701 0.93237-0.96508-0.36143-0.21678
   0  -1 -13 1332.19  336.86   1-0.84202 0.98032-0.21293 0.17960-0.49563-0.08190
   0  -1 -14 1955.78  186.35   1-0.02119 0.17273 0.92509-0.95437-0.37913-0.24356
   0  -1 -14 2370.30  648.83   1-0.82707 0.97578-0.22161 0.19166-0.51656-0.10539
   0  -1 -15 2648.53  217.80   1-0.03790 0.20010 0.91637-0.94222-0.39852-0.26865
   0  -1 -15 3593.43  747.88   1-0.81136 0.97049-0.23020 0.20363-0.53729-0.12909
   0  -1 -16   67.69  101.31   1-0.05610 0.22895 0.90609-0.92851-0.41934-0.29230
   0  -1 -16  157.00  111.02   1-0.79489 0.96444-0.23870 0.21551-0.55782-0.15299
   0  -1 -17 1496.87  342.80   1-0.77762 0.95758-0.24710 0.22729-0.57813-0.17710
   0  -1 -18  170.95  120.13   1-0.75951 0.94990-0.25541 0.23898-0.59824-0.20142
   0  -1 -19   53.97   77.13   1-0.74068 0.94138-0.26333 0.25031-0.61809-0.22615
   0  -1 -20  630.39  177.99   1-0.72082 0.93192-0.27145 0.26180-0.63775-0.25093
   0   2 -19   13.03   63.96   1-0.65267 0.84470-0.29604 0.51469-0.69740-0.14684
   0   2 -18  595.71  186.69   1 0.16060 0.02598 0.97574-0.75872-0.14878-0.65089
   0   2 -18  397.49  117.77   1-0.67362 0.85524-0.28897 0.50424-0.68024-0.11957
   0   2 -17   45.42   70.88   1 0.19069-0.01474 0.97568-0.76215-0.10802-0.64722
   0  -2  17  -30.97   88.84   1-0.18607 0.01126-0.97605 0.76562 0.11264 0.64319
   0   2 -17   47.25   65.12   1-0.69345 0.86466-0.28189 0.49378-0.66306-0.09232
   0   2 -16 1090.94  238.67   1 0.22101-0.05514 0.97289-0.76369-0.06805-0.64321
   0  -2  16 1316.53  206.92   1-0.21571 0.05136-0.97383 0.76626 0.07154 0.64047
   0   2 -16 1103.64  302.10   1-0.71221 0.87301-0.27482 0.48333-0.64592-0.06502
   0   2 -15  107.42   84.15   1 0.25039-0.09517 0.96778-0.76201-0.02628-0.64053
   0  -2  15  -38.93  121.22   1-0.24433 0.09058-0.96923 0.76498 0.02986 0.63764
   0   2 -15   65.86   64.50   1-0.72990 0.88029-0.26780 0.47293-0.62890-0.03761
   0   2 -1436425.79 1057.45   1 0.27954-0.13498 0.95999-0.75764 0.01619-0.63856
   0  -2  1441405.92  802.12   1-0.27277 0.12963-0.96199 0.76107-0.01257 0.63558
   0   2 -1443751.75 1330.95   1-0.74652 0.88650-0.26085 0.46260-0.61208-0.00999
   0  -2  13  170.98  138.60   1-0.30112 0.16858-0.95194 0.75434-0.05595 0.63446
   0   2 -13   41.37   36.40   1-0.76167 0.89134-0.25445 0.45294-0.59590 0.01837
   0  -2  12 8308.97  402.95   1-0.33002 0.20822-0.93860 0.74453-0.10048 0.63427
   0   2 -12 9465.70  515.87   1-0.77606 0.89532-0.24784 0.44295-0.57991 0.04680
   0  -2  11 8448.31  401.49   1-0.35842 0.24724-0.92200 0.73123-0.14643 0.63574
   0   2 -11 8653.99  445.50   1-0.78923 0.89807-0.24151 0.43324-0.56460 0.07592
   0  -2  10 6741.71  399.48   1-0.38697 0.28639-0.90142 0.71395-0.19410 0.63893
   0   2 -10 6397.20  390.72   1-0.80103 0.89945-0.23559 0.42394-0.55030 0.10604
   0  -2   955331.44 1273.30   1-0.41670 0.32661-0.87552 0.69114-0.24456 0.64470
   0   2  -961577.68 1370.26   1-0.81122 0.89923-0.23027 0.41525-0.53747 0.13764
   0  -2   8 9794.50  344.42   1-0.44564 0.36617-0.84460 0.66355-0.29670 0.65239
   0   2  -810771.91  351.14   1-0.81939 0.89698-0.22587 0.40747-0.52685 0.17144
   0  -2   7  -28.74   74.39   1-0.47539 0.40635-0.80616 0.62810-0.35227 0.66359
   0   2  -7   76.05   38.03   1-0.82475 0.89192-0.22291 0.40112-0.51969 0.20871
   0  -2   611526.41  385.39   1-0.50450 0.44606-0.75945 0.58473-0.41073 0.67757
   0   2  -612913.46  369.82   1-0.82578 0.88254-0.22233 0.39716-0.51830 0.25175
   0  -2   5 9661.82  324.07   1-0.53525 0.48720-0.70128 0.53028-0.47085 0.69385
   0   2  -510312.32  291.63   1-0.81895 0.86529-0.22611 0.39756-0.52743 0.30530
   0  -2   4 5265.28  211.49   1-0.56273 0.52532-0.62846 0.46071-0.53699 0.71538
   0   2  -4 5734.21  174.63   1-0.79427 0.83019-0.23901 0.40708-0.55856 0.38086
   0  -2   379529.42  797.59   1-0.58742 0.56119-0.53730 0.37258-0.60516 0.73907
   0   2  -381526.47  646.03   1-0.71206 0.73752-0.27488 0.43947-0.64606 0.51276
   0  -2   211785.71  339.37   1-0.60579 0.59023-0.42071 0.25922-0.67528 0.76447
   0  -2   1249553.5 1916.86   1-0.61250 0.60754-0.27492 0.11678-0.74111 0.78565
   0  -2   0468994.716774.22   1-0.60132 0.60706-0.09980-0.05500-0.79274 0.79274
   0  -2  -1211829.2 1628.22   1-0.56804 0.58399 0.09783-0.24917-0.81715 0.77256
   0  -2  -2  186.21   36.39   1-0.50891 0.53560 0.29232-0.44025-0.80965 0.72062
   0  -2  -3 1199.61   77.54   1-0.43513 0.47239 0.46292-0.60738-0.77224 0.63868
   0  -2  -439309.28  448.39   1-0.36094 0.40836 0.59450-0.73557-0.71853 0.54052
   0  -2  -554255.93  575.80   1-0.29590 0.35421 0.68634-0.82416-0.66436 0.44192
   0  -2  -639899.72  489.44   1-0.24297 0.31198 0.74921-0.88357-0.61614 0.34922
   0  -2  -728405.26  414.14   1-0.20471 0.28434 0.79022-0.92094-0.57761 0.26649
   0  -2  -729295.25  565.40   1-0.91968 0.99847-0.15700 0.02665-0.35989 0.04835
   0  -2  -8  482.66   70.38   1-0.17663 0.26696 0.81666-0.94400-0.54941 0.19385
   0  -2  -8  619.28  158.89   1-0.90974 0.99894-0.16564 0.03874-0.38069 0.02464
   0  -2  -916051.73  432.56   1-0.15781 0.25883 0.83315-0.95712-0.53004 0.13003
   0  -2  -918829.68  803.43   1-0.89909 0.99870-0.17430 0.05086-0.40156 0.00100
   0  -2 -10 5797.49  342.83   1-0.14636 0.25809 0.84270-0.96330-0.51809 0.07364
   0  -2 -10 7259.22  465.22   1-0.88773 0.99775-0.18297 0.06297-0.42243-0.02262
   0  -2 -1138226.35 1077.42   1-0.14081 0.26323 0.84721-0.96444-0.51225 0.02334
   0  -2 -1145749.04 1567.14   1-0.87566 0.99610-0.19161 0.07506-0.44327-0.04628
   0  -2 -12   19.44   60.34   1-0.14001 0.27312 0.84785-0.96172-0.51140-0.02194
   0  -2 -12  173.06  106.99   1-0.86287 0.99373-0.20023 0.08712-0.46405-0.07001
   0  -2 -13  698.34  114.89   1-0.14308 0.28690 0.84537-0.95587-0.51464-0.06314
   0  -2 -13 1009.94  298.73   1-0.84968 0.99085-0.20828 0.09767-0.48441-0.09311
   0  -2 -1417223.67  925.97   1-0.14940 0.30391 0.84020-0.94733-0.52128-0.10095
   0  -2 -1420223.52 1394.36   1-0.83547 0.98706-0.21680 0.10957-0.50494-0.11701
   0  -2 -15 7045.32  316.65   1-0.15847 0.32368 0.83258-0.93634-0.53073-0.13594
   0  -2 -15 8430.59  914.96   1-0.82052 0.98253-0.22525 0.12141-0.52535-0.14103
   0  -2 -16  326.82  125.75   1-0.16994 0.34585 0.82263-0.92302-0.54257-0.16855
   0  -2 -16  488.34  148.82   1-0.80480 0.97722-0.23365 0.13318-0.54561-0.16519
   0  -2 -17 2122.24  447.44   1-0.78828 0.97112-0.24197 0.14488-0.56572-0.18951
   0  -2 -18 1000.21  311.67   1-0.77095 0.96421-0.25022 0.15651-0.58567-0.21399
   0  -2 -19  194.17  183.05   1-0.75277 0.95645-0.25839 0.16806-0.60544-0.23865
   0  -2 -20  156.36  104.18   1-0.73380 0.94780-0.26620 0.17933-0.62503-0.26365
   0   3 -18   54.59   45.64   1 0.22142-0.03653 0.97284-0.67957-0.06748-0.73269
   0  -3  18   26.69   94.56   1-0.21626 0.03336-0.97376 0.68235 0.07075 0.73026
   0   3 -17 2012.80  422.51   1 0.25167-0.07744 0.96750-0.67766-0.02443-0.73128
   0  -3  17 2041.31  364.72   1-0.24575 0.07345-0.96893 0.68084 0.02777 0.72873
   0   3 -17 1670.65  435.40   1-0.63779 0.80611-0.30082 0.58993-0.70902-0.04635
   0   3 -16  829.57  152.84   1 0.28140-0.11782 0.95940-0.67298 0.01894-0.73021
   0  -3  16  654.24  191.05   1-0.27477 0.11308-0.96138 0.67661-0.01559 0.72760
   0   3 -16  831.21  214.41   1-0.65607 0.81398-0.29492 0.58065-0.69468-0.01626
   0  -3  15   -3.80   99.90   1-0.30337 0.15229-0.95101 0.66956-0.05945 0.72697
   0   3 -15   46.91   88.35   1-0.67292 0.82042-0.28921 0.57157-0.68082 0.01431
   0  -3  14  661.08  155.68   1-0.33221 0.19195-0.93745 0.65955-0.10397 0.72673
   0   3 -14  823.02  186.89   1-0.68827 0.82536-0.28378 0.56276-0.66764 0.04556
   0  -3  13  656.94  132.88   1-0.36009 0.23044-0.92091 0.64631-0.14916 0.72744
   0   3 -13  674.29  166.78   1-0.70197 0.82865-0.27873 0.55433-0.65538 0.07774
   0  -3  12  216.10  176.64   1-0.38762 0.26859-0.90090 0.62960-0.19521 0.72900
   0   3 -12  343.36  169.61   1-0.71382 0.83009-0.27420 0.54642-0.64440 0.11119
   0  -3  11 4413.62  272.12   1-0.41576 0.30717-0.87644 0.60818-0.24289 0.73195
   0   3 -11 4539.48  330.36   1-0.72346 0.82932-0.27040 0.53924-0.63519 0.14642
   0  -3  10 6645.79  342.13   1-0.44250 0.34454-0.84825 0.58332-0.29093 0.73554
   0   3 -10 6926.59  393.88   1-0.73033 0.82577-0.26762 0.53309-0.62848 0.18414
   0  -3   9 6365.02  397.32   1-0.46875 0.38141-0.81520 0.55359-0.34016 0.74030
   0   3  -9 6931.96  429.51   1-0.73345 0.81848-0.26635 0.52843-0.62538 0.22547
   0  -3   8  130.65   74.66   1-0.49496 0.41790-0.77590 0.51716-0.39113 0.74692
   0   3  -8   74.86   40.05   1-0.73109 0.80571-0.26731 0.52602-0.62773 0.27225
   0  -3   750903.69 1151.96   1-0.51962 0.45317-0.73066 0.47526-0.44284 0.75415
   0   3  -754118.91 1110.58   1-0.71983 0.78404-0.27184 0.52717-0.63870 0.32766
   0  -3   6 4114.92  257.67   1-0.54509 0.48896-0.67768 0.42606-0.49357 0.76117
   0   3  -6 4384.10  204.96   1-0.69203 0.74584-0.28241 0.53436-0.66432 0.39771
   0  -3   510063.17  373.69   1-0.56665 0.52116-0.61598 0.36761-0.54723 0.77022
   0   3  -510096.61  268.38   1-0.62706 0.67045-0.30415 0.55272-0.71713 0.49496
   0   3  -434674.94  319.87   1-0.44886 0.48216-0.34596 0.59135-0.82391 0.64638
   0  -3   218240.15  507.55   1-0.61025 0.59745-0.36607 0.12723-0.70255 0.79174
   0  -3   128869.56  436.02   1-0.61228 0.61013-0.25774 0.02222-0.74744 0.79198
   0  -3   024073.03  386.86   1-0.60526 0.61370-0.13822-0.09389-0.78393 0.78393
   0  -3  -1194620.5 1610.62   1-0.58819 0.60737-0.01178-0.21702-0.80863 0.76419
   0  -3  -2 5149.32  196.92   1-0.56285 0.59209 0.11862-0.34388-0.81799 0.72881
   0  -3  -3101761.6  956.92   1-0.52721 0.56725 0.24062-0.46252-0.81495 0.68139
   0  -3  -4 2716.86  146.98   1-0.48538 0.53609 0.35209-0.57049-0.80027 0.62219
   0  -3  -5142687.5 1268.23   1-0.44313 0.50438 0.44696-0.66191-0.77707 0.55449
   0  -3  -6126143.9 1176.11   1-0.40203 0.47401 0.52449-0.73595-0.75051 0.48341
   0  -3  -763247.44 1290.23   1-0.36711 0.44893 0.58487-0.79302-0.72328 0.41177
   0  -3  -768843.74 1694.13   1-0.91552 0.99725-0.16069-0.04689-0.36877 0.05723
   0  -3  -8 3158.26  190.20   1-0.33648 0.42898 0.63093-0.83563-0.69906 0.34305
   0  -3  -8 3672.83  417.81   1-0.90673 0.99888-0.16815-0.03598-0.38673 0.03068
   0  -3  -9  110.74   59.01   1-0.31196 0.41513 0.66496-0.86621-0.67859 0.27808
   0  -3  -9  129.75   65.56   1-0.89711 0.99968-0.17585-0.02483-0.40528 0.00472
   0  -3 -10 5271.26  252.25   1-0.29457 0.40878 0.68804-0.88613-0.66318 0.21830
   0  -3 -10 5894.17  428.49   1-0.88671 0.99969-0.18372-0.01352-0.42423-0.02081
   0  -3 -11 9894.30  391.02   1-0.28127 0.40618 0.70467-0.89931-0.65139 0.16202
   0  -3 -1110764.36  551.66   1-0.87554 0.99893-0.19169-0.00209-0.44347-0.04609
   0  -3 -12  732.56  110.96   1-0.27276 0.40837 0.71499-0.90617-0.64372 0.10986
   0  -3 -12  772.71  240.02   1-0.86361 0.99741-0.19974 0.00940-0.46288-0.07118
   0  -3 -13  -10.43   53.61   1-0.26846 0.41477 0.72011-0.90784-0.63980 0.06146
   0  -3 -13  -76.17  113.83   1-0.85120 0.99524-0.20734 0.01946-0.48214-0.09539
   0  -3 -14   -6.56   61.71   1-0.26786 0.42487 0.72083-0.90510-0.63925 0.01642
   0  -3 -14   66.03   62.93   1-0.83779 0.99225-0.21544 0.03094-0.50168-0.12028
   0  -3 -15 1163.44  162.18   1-0.27051 0.43823 0.71767-0.89849-0.64168-0.02563
   0  -3 -15 1328.24  350.93   1-0.82361 0.98849-0.22354 0.04242-0.52122-0.14515
   0  -3 -16   35.07  105.49   1-0.80866 0.98395-0.23163 0.05389-0.54075-0.17006
   0  -3 -17 2082.98  498.64   1-0.79290 0.97862-0.23969 0.06533-0.56021-0.19502
   0  -3 -18  138.89  126.97   1-0.77633 0.97246-0.24771 0.07673-0.57960-0.22005
   0  -3 -19  287.99  127.38   1-0.75891 0.96546-0.25568 0.08808-0.59889-0.24519
   0   4 -18  160.36   91.14   1 0.26894-0.08635 0.96315-0.59266 0.00062-0.80080
   0  -4  18  190.33  153.80   1-0.26278 0.08254-0.96485 0.59623 0.00246 0.79855
   0  -4  17 1751.15  330.91   1-0.29167 0.12203-0.95562 0.59033-0.04136 0.79788
   0  -4  16    7.21   99.76   1-0.32055 0.16184-0.94336 0.58162-0.08546 0.79719
   0  -4  15  289.25  151.15   1-0.34817 0.20006-0.92841 0.56998-0.12968 0.79692
   0  -4  14 7830.47  590.16   1-0.37517 0.23767-0.91043 0.55530-0.17420 0.79696
   0   4 -14 8225.65  580.07   1-0.60123 0.73543-0.31179 0.66799-0.73573 0.11365
   0  -4  13 3044.94  273.60   1-0.40246 0.27538-0.88868 0.53654-0.21968 0.79767
   0   4 -13 2915.80  225.34   1-0.61013 0.73392-0.30922 0.66204-0.72946 0.15181
   0  -4  12   90.69  116.73   1-0.42811 0.31166-0.86404 0.51523-0.26484 0.79837
   0   4 -12  -31.75   63.99   1-0.61544 0.72882-0.30765 0.65710-0.72565 0.19244
   0  -4  1132001.94 1110.32   1-0.45302 0.34719-0.83572 0.49023-0.31038 0.79945
   0   4 -1134595.17 1066.48   1-0.61603 0.71900-0.30748 0.65354-0.72522 0.23645
   0  -4  10 2255.55  225.29   1-0.47769 0.38202-0.80282 0.46006-0.35676 0.80150
   0   4 -10 1984.00  146.36   1-0.61004 0.70260-0.30924 0.65193-0.72952 0.28518
   0  -4   927476.57  897.41   1-0.50075 0.41568-0.76607 0.42664-0.40297 0.80323
   0   4  -928669.62  813.17   1-0.59412 0.67627-0.31380 0.65311-0.74063 0.34072
   0  -4   8 1184.49  162.94   1-0.52262 0.44815-0.72452 0.38843-0.44936 0.80515
   0   4  -8 1177.12  101.47   1-0.56177 0.63351-0.32250 0.65842-0.76183 0.40636
   0  -4   7 7714.59  451.84   1-0.54514 0.48093-0.67755 0.34531-0.49369 0.80588
   0   4  -7 8172.77  383.12   1-0.49747 0.55956-0.33610 0.66912-0.79971 0.48904
   0  -4   618128.75  544.01   1-0.56385 0.51027-0.62498 0.29600-0.53987 0.80746
   0   4  -618777.96  399.35   1-0.36640 0.41788-0.35980 0.68932-0.85807 0.59177
   0   4  -526573.53  509.93   1-0.03647 0.07875-0.38319 0.70908-0.92294 0.70071
   0  -4   467542.75 1445.60   1-0.59429 0.56291-0.50205 0.17925-0.62829 0.80684
   0  -4   3112828.8 1227.20   1-0.60478 0.58420-0.43010 0.11051-0.67025 0.80404
   0  -4   269009.74  869.29   1-0.61104 0.60100-0.35150 0.03531-0.70926 0.79846
   0  -4   1    1.83   75.15   1-0.61242 0.61309-0.26684-0.04605-0.74413 0.78866
   0  -4   1   28.88   16.26   1-0.78649 0.78757-0.24285-0.06962-0.56784 0.61227
   0  -4   011040.91  377.96   1-0.60857 0.61982-0.17708-0.13241-0.77348 0.77348
   0  -4   010465.52  286.88   1-0.88038 0.89217-0.18829-0.12066-0.43527 0.43527
   0  -4  -1 3256.34  178.32   1-0.59942 0.62148-0.08478-0.22142-0.79592 0.75148
   0  -4  -1 3053.23  373.86   1-0.90823 0.93043-0.16690-0.13861-0.38373 0.33923
   0  -4  -2 8595.70  323.60   1-0.58439 0.61703 0.00899-0.31179-0.81141 0.72253
   0  -4  -3325370.0 2612.56   1-0.56693 0.60946 0.10237-0.40155-0.81737 0.68359
   0  -4  -470113.93  828.27   1-0.54311 0.59626 0.18940-0.48509-0.81802 0.63965
   0  -4  -5 1765.97  157.82   1-0.51805 0.58211 0.26717-0.55954-0.81255 0.58996
   0  -4  -5 1259.70  183.75   1-0.91695 0.98080-0.15943-0.13228-0.36575 0.14322
   0  -4  -678424.11 1590.88   1-0.49131 0.56605 0.33765-0.62653-0.80287 0.53576
   0  -4  -679431.61 1691.61   1-0.91192 0.98619-0.16379-0.12448-0.37624 0.10921
   0  -4  -7 1886.45  153.74   1-0.46642 0.55166 0.39773-0.68317-0.79009 0.47847
   0  -4  -7 1982.74  501.30   1-0.90557 0.99025-0.16910-0.11572-0.38902 0.07748
   0  -4  -8   79.51   57.28   1-0.44251 0.53847 0.44823-0.73018-0.77670 0.42056
   0  -4  -8   -2.54   82.89   1-0.89810 0.99320-0.17508-0.10630-0.40341 0.04737
   0  -4  -9  950.54  134.32   1-0.42142 0.52812 0.48925-0.76771-0.76356 0.36290
   0  -4  -9  954.05  268.60   1-0.88966 0.99517-0.18153-0.09639-0.41897 0.01842
   0  -4 -1010505.99  401.98   1-0.40366 0.52108 0.52161-0.79658-0.75164 0.30647
   0  -4 -1011652.03  594.64   1-0.88031 0.99623-0.18835-0.08613-0.43539-0.00966
   0  -4 -11 5395.87  236.27   1-0.39107 0.51795 0.54580-0.81758-0.74105 0.25153
   0  -4 -11 5579.09  675.07   1-0.87011 0.99644-0.19542-0.07561-0.45245-0.03710
   0  -4 -1211107.08  639.57   1-0.38043 0.51799 0.56351-0.83184-0.73329 0.19927
   0  -4 -1212261.47  872.66   1-0.85908 0.99583-0.20269-0.06489-0.46999-0.06407
   0  -4 -1346152.39 2301.63   1-0.37319 0.52143 0.57523-0.84011-0.72789 0.14937
   0  -4 -1353000.16 2743.20   1-0.84748 0.99440-0.20963-0.05552-0.48767-0.08986
   0  -4 -14 1246.47  156.64   1-0.36917 0.52809 0.58162-0.84305-0.72485 0.10183
   0  -4 -14 1552.55  429.47   1-0.83488 0.99222-0.21714-0.04463-0.50577-0.11618
   0  -4 -15  174.10  105.34   1-0.36817 0.53777 0.58321-0.84119-0.72408 0.05656
   0  -4 -15  185.31  172.37   1-0.82149 0.98924-0.22472-0.03367-0.52406-0.14231
   0  -4 -16  681.72  159.88   1-0.80729 0.98546-0.23235-0.02266-0.54247-0.16833
   0  -4 -17  -65.20  130.26   1-0.79228 0.98087-0.24000-0.01163-0.56096-0.19427
   0  -4 -18  350.45  180.21   1-0.77645 0.97545-0.24765-0.00059-0.57947-0.22019
   0  -4 -19  792.55  334.54   1-0.75976 0.96918-0.25530 0.01043-0.59797-0.24611
   0  -5  17   36.40  112.95   1-0.32726 0.16069-0.94003 0.49776-0.09608 0.85229
   0  -5  16  117.47  110.86   1-0.35426 0.19830-0.92466 0.48569-0.13961 0.85133
   0  -5  15 1989.12  380.47   1-0.38045 0.23510-0.90649 0.47083-0.18307 0.85031
   0  -5  14  298.15  191.30   1-0.40671 0.27177-0.88488 0.45219-0.22705 0.84950
   0  -5  13  832.70  167.03   1-0.43118 0.30686-0.86080 0.43144-0.27036 0.84834
   0  -5  12   12.19  108.74   1-0.45473 0.34103-0.83359 0.40755-0.31358 0.84710
   0  -5  11 8392.95  420.85   1-0.47787 0.37418-0.80256 0.37911-0.35710 0.84631
   0  -5  10 2157.48  257.24   1-0.49929 0.40621-0.76857 0.34846-0.39998 0.84472
   0  -5   9 1683.22  235.42   1-0.51949 0.43700-0.73094 0.31417-0.44254 0.84280
   0  -5   818320.14  697.33   1-0.54035 0.46807-0.68932 0.27646-0.48253 0.83932
   0  -5   747024.90 1398.26   1-0.55761 0.49595-0.64383 0.23423-0.52396 0.83615
   0  -5   6 2170.50  215.80   1-0.57300 0.52197-0.59421 0.18786-0.56441 0.83201
   0  -5   5  792.09  142.29   1-0.58652 0.54729-0.54150 0.13800-0.60229 0.82548
   0  -5   4 7553.16  443.31   1-0.59740 0.56871-0.48355 0.08338-0.63974 0.81829
   0  -5   3 7257.75  403.00   1-0.60569 0.58787-0.42166 0.02472-0.67478 0.80857
   0  -5   241750.77  990.01   1-0.61082 0.60354-0.35594-0.03760-0.70724 0.79643
   0  -5   1  567.47  106.61   1-0.61265 0.61592-0.28694-0.10320-0.73641 0.78101
   0  -5   1  525.98   85.78   1-0.69984 0.70387-0.27953-0.10996-0.65732 0.70175
   0  -5   0 3931.52  264.37   1-0.61089 0.62496-0.21591-0.17096-0.76170 0.76170
   0  -5   0 4015.60  308.27   1-0.82270 0.83707-0.22405-0.16231-0.52245 0.52245
   0  -5  -124381.79  651.27   1-0.60573 0.63039-0.14317-0.24031-0.78267 0.73814
   0  -5  -123985.50  596.63   1-0.86585 0.89100-0.19827-0.18448-0.45933 0.41482
   0  -5  -225430.48  652.42   1-0.59759 0.63309-0.07125-0.30895-0.79862 0.70974
   0  -5  -225328.64  648.13   1-0.88540 0.92096-0.18468-0.19463-0.42655 0.33753
   0  -5  -3  140.25  104.37   1-0.58602 0.63211 0.00023-0.37703-0.81029 0.67696
   0  -5  -3  -13.23   56.05   1-0.89430 0.94028-0.17802-0.19783-0.41051 0.27699
   0  -5  -440041.75  928.02   1-0.57444 0.63026 0.07056-0.44366-0.81549 0.63712
   0  -5  -439174.60  928.10   1-0.89751 0.95390-0.17554-0.19687-0.40453 0.22651
   0  -5  -511369.22  388.05   1-0.55850 0.62494 0.13525-0.50486-0.81840 0.59543
   0  -5  -510860.52  485.98   1-0.89722 0.96402-0.17577-0.19319-0.40508 0.18255
   0  -5  -630905.13  783.33   1-0.54148 0.61856 0.19474-0.56085-0.81784 0.55028
   0  -5  -631241.21  837.94   1-0.89454 0.97175-0.17784-0.18767-0.41007 0.14304
   0  -5  -712524.15  623.93   1-0.52537 0.61346 0.24606-0.60890-0.81451 0.50288
   0  -5  -712056.44  631.92   1-0.89007 0.97770-0.18122-0.18084-0.41822 0.10668
   0  -5  -8 3614.58  199.76   1-0.50873 0.60750 0.29281-0.65216-0.80959 0.45345
   0  -5  -8 3728.85  639.69   1-0.88418 0.98222-0.18556-0.17305-0.42869 0.07264
   0  -5  -9   -8.94   61.39   1-0.49324 0.60269 0.33285-0.68871-0.80368 0.40302
   0  -5  -9  -36.13   92.28   1-0.87708 0.98554-0.19062-0.16454-0.44088 0.04033
   0  -5 -10 8649.97  382.56   1-0.47941 0.59954 0.36625-0.71861-0.79750 0.35233
   0  -5 -10 8513.25  602.18   1-0.86892 0.98779-0.19622-0.15550-0.45438 0.00933
   0  -5 -11   34.66   67.64   1-0.46760 0.59841 0.39322-0.74210-0.79165 0.30195
   0  -5 -11  215.48  161.59   1-0.85978 0.98906-0.20224-0.14603-0.46890-0.02065
   0  -5 -12 7409.54  471.85   1-0.45933 0.60074 0.41319-0.75865-0.78630 0.25209
   0  -5 -12 7318.69  858.99   1-0.84988 0.98926-0.20815-0.13765-0.48410-0.04900
   0  -5 -13  844.95  144.73   1-0.45221 0.60435 0.42829-0.77025-0.78234 0.20362
   0  -5 -13 1214.89  294.11   1-0.83898 0.98877-0.21474-0.12768-0.49999-0.07754
   0  -5 -14 5937.87  443.82   1-0.44751 0.61038 0.43803-0.77651-0.77964 0.15640
   0  -5 -14 7028.25 1222.06   1-0.82722 0.98743-0.22152-0.11752-0.51635-0.10560
   0  -5 -15 4425.02 1107.44   1-0.81463 0.98525-0.22846-0.10721-0.53308-0.13330
   0  -5 -16  -15.20  122.96   1-0.80119 0.98224-0.23550-0.09678-0.55010-0.16070
   0  -5 -17  286.29  110.19   1-0.78692 0.97839-0.24263-0.08627-0.56733-0.18790
   0  -5 -18  930.78  288.66   1-0.77180 0.97368-0.24982-0.07570-0.58472-0.21494
   0  -6  16  438.23  204.17   1-0.37883 0.22563-0.90772 0.39152-0.18035 0.89207
   0  -6  15  320.01  173.91   1-0.40436 0.26155-0.88700 0.37375-0.22297 0.88988
   0  -6  14   15.22  127.84   1-0.42802 0.29583-0.86413 0.35422-0.26468 0.88713
   0  -6  13  541.32  205.02   1-0.45067 0.32911-0.83859 0.33200-0.30601 0.88400
   0  -6  12 7332.80  604.64   1-0.47282 0.36112-0.80982 0.30568-0.34730 0.88098
   0  -6  11  203.87  188.64   1-0.49326 0.39216-0.77870 0.27790-0.38770 0.87691
   0  -6  10  252.29  123.09   1-0.51248 0.42198-0.74472 0.24725-0.42749 0.87223
   0  -6   9 6807.43  493.57   1-0.53037 0.45048-0.70782 0.21369-0.46657 0.86683
   0  -6   8  474.75  147.27   1-0.54895 0.47922-0.66773 0.17751-0.50276 0.85955
   0  -6   716537.41  702.31   1-0.56388 0.50477-0.62487 0.13789-0.53997 0.85216
   0  -6   6 9837.01  486.92   1-0.57708 0.52860-0.57905 0.09534-0.57590 0.84349
   0  -6   4  372.66  142.47   1-0.59793 0.57192-0.48024 0.00270-0.64174 0.82030
   0  -6   3 6700.97  427.41   1-0.60516 0.59010-0.42663-0.04765-0.67212 0.80591
   0  -6   2  344.85  172.04   1-0.60997 0.60545-0.37072-0.10017-0.70035 0.78954
   0  -6   1 8393.29  493.78   1-0.61237 0.61840-0.31306-0.15443-0.72594 0.77053
   0  -6   0 5482.87  372.58   1-0.61222 0.62910-0.25469-0.20955-0.74854 0.74854
   0  -6   0 5210.80  410.98   1-0.74854 0.76587-0.25998-0.20335-0.60998 0.60998
   0  -6  -117856.82  558.14   1-0.60979 0.63726-0.19552-0.26533-0.76805 0.72352
   0  -6  -117446.81  452.58   1-0.81163 0.83929-0.23006-0.23020-0.53695 0.49252
   0  -6  -215650.16  516.00   1-0.60510 0.64316-0.13661-0.32085-0.78433 0.69526
   0  -6  -214934.20  344.30   1-0.84251 0.88059-0.21264-0.24424-0.49492 0.40607
   0  -6  -318333.61  570.83   1-0.59877 0.64773-0.07991-0.37428-0.79691 0.66359
   0  -6  -318415.84  553.27   1-0.85872 0.90764-0.20292-0.25018-0.47055 0.33703
   0  -6  -414729.13  406.91   1-0.59033 0.64986-0.02418-0.42660-0.80679 0.62902
   0  -6  -414059.02  766.63   1-0.86717 0.92650-0.19739-0.25226-0.45721 0.27919
   0  -6  -511344.08  460.72   1-0.58052 0.65063 0.02881-0.47620-0.81373 0.59152
   0  -6  -510879.26  561.16   1-0.87072 0.94047-0.19500-0.25120-0.45145 0.22892
   0  -6  -6  473.86  130.20   1-0.57233 0.65206 0.07979-0.52332-0.81612 0.54857
   0  -6  -6  276.20   91.40   1-0.87098 0.95114-0.19483-0.24792-0.45103 0.18399
   0  -6  -722511.90  752.57   1-0.56117 0.65153 0.12514-0.56517-0.81818 0.50603
   0  -6  -722206.79  785.26   1-0.86884 0.95942-0.19627-0.24303-0.45451 0.14297
   0  -6  -8  109.51   75.89   1-0.55002 0.65101 0.16591-0.60245-0.81850 0.46176
   0  -6  -8  133.76   96.89   1-0.86486 0.96584-0.19893-0.23693-0.46091 0.10486
   0  -6  -9 5177.14  267.23   1-0.53931 0.65094 0.20179-0.63484-0.81756 0.41623
   0  -6  -9 5158.30  636.44   1-0.85936 0.97076-0.20251-0.22990-0.46955 0.06900
   0  -6 -1013384.68  761.65   1-0.52944 0.65170 0.23261-0.66215-0.81582 0.36990
   0  -6 -1013674.93 1010.48   1-0.85265 0.97407-0.20643-0.22340-0.47996 0.03570
   0  -6 -11    0.62   73.66   1-0.52201 0.65548 0.25585-0.68219-0.81365 0.32395
   0  -6 -12 3633.82  272.39   1-0.51476 0.65891 0.27638-0.69922-0.81156 0.27734
   0  -6 -12 3691.22  853.75   1-0.83578 0.97803-0.21662-0.20646-0.50451-0.02859
   0  -6 -13 4275.22  362.44   1-0.50907 0.66390 0.29189-0.71124-0.80971 0.23098
   0  -6 -13 4347.11 1082.69   1-0.82585 0.97852-0.22229-0.19740-0.51821-0.05932
   0  -6 -14 4326.45 1062.80   1-0.81499 0.97808-0.22826-0.18806-0.53261-0.08935
   0  -6 -15  760.31  165.98   1-0.80323 0.97674-0.23445-0.17848-0.54757-0.11881
   0  -6 -17  -46.38  136.79   1-0.77707 0.97140-0.24736-0.15881-0.57876-0.17647
   0  -6 -18  859.30  323.22   1-0.76266 0.96741-0.25400-0.14879-0.59482-0.20483
   0  -7  15  584.70  222.34   1-0.42024 0.28018-0.87206 0.28159-0.25080 0.91771
   0  -7  14  144.01  175.32   1-0.44236 0.31293-0.84841 0.26127-0.29068 0.91312
   0  -7  13 6020.09  903.36   1-0.46340 0.34459-0.82243 0.23861-0.32993 0.90791
   0  -7  12 2318.44  303.16   1-0.48384 0.37473-0.79362 0.21214-0.36885 0.90253
   0  -7  10 3666.00  387.28   1-0.52000 0.43209-0.72990 0.15509-0.44365 0.88839
   0  -7   9 3644.40  337.59   1-0.53824 0.46042-0.69434 0.12350-0.47767 0.87906
   0  -7   8 1015.79  246.38   1-0.55305 0.48586-0.65672 0.08913-0.51268 0.86947
   0  -7   7 9036.86  605.85   1-0.56637 0.50981-0.61690 0.05257-0.54648 0.85867
   0  -7   6 5815.32  471.24   1-0.57833 0.53394-0.57614 0.01458-0.57756 0.84539
   0  -7   5  209.64  138.46   1-0.58846 0.55461-0.53236-0.02586-0.60851 0.83170
   0  -7   469675.89 2142.44   1-0.59688 0.57357-0.48680-0.06810-0.63776 0.81631
   0  -7   3  342.16  195.01   1-0.60352 0.59074-0.43969-0.11187-0.66515 0.79906
   0  -7   2  -49.19  114.70   1-0.60846 0.60671-0.39172-0.15652-0.69016 0.77935
   0  -7   129021.81  957.83   1-0.61145 0.62024-0.34257-0.20228-0.71327 0.75787
   0  -7   0  329.02  148.40   1-0.61263 0.63197-0.29295-0.24850-0.73406 0.73406
   0  -7   0   43.47   28.50   1-0.65533 0.67554-0.29516-0.24539-0.69528 0.69528
   0  -7  -1  191.85  144.76   1-0.61195 0.64224-0.24399-0.29423-0.75231 0.70777
   0  -7  -1   59.36   39.35   1-0.74233 0.77296-0.26264-0.27454-0.61640 0.57197
   0  -7  -213398.28  552.59   1-0.60977 0.65064-0.19506-0.33977-0.76819 0.67912
   0  -7  -212569.71  455.18   1-0.78775 0.82871-0.24223-0.29193-0.56635 0.47750
   0  -7  -3 5590.69  345.92   1-0.60611 0.65757-0.14719-0.38425-0.78163 0.64803
   0  -7  -3 5133.39  566.33   1-0.81344 0.86481-0.22909-0.30168-0.53462 0.40134
   0  -7  -4 1713.26  220.77   1-0.60160 0.66401-0.10214-0.42605-0.79223 0.61446
   0  -7  -4 1403.15  316.73   1-0.82839 0.89018-0.22086-0.30653-0.51476 0.33705
   0  -7  -5 3095.15  238.79   1-0.59570 0.66869-0.05816-0.46663-0.80109 0.57888
   0  -7  -5 3185.80  423.98   1-0.83673 0.90894-0.21606-0.30795-0.50318 0.28105
   0  -7  -6 1616.52  216.17   1-0.58906 0.67263-0.01679-0.50458-0.80790 0.54125
   0  -7  -6 1424.75  324.02   1-0.84065 0.92327-0.21375-0.30688-0.49760 0.23105
   0  -7  -7 2528.00  243.47   1-0.58198 0.67612 0.02149-0.53947-0.81291 0.50182
   0  -7  -7 1774.70  452.54   1-0.84140 0.93444-0.21330-0.30395-0.49652 0.18554
   0  -7  -812429.46  737.40   1-0.57474 0.67946 0.05633-0.57091-0.81639 0.46085
   0  -7  -811850.08  804.04   1-0.83975 0.94321-0.21428-0.29959-0.49888 0.14347
   0  -7  -9 2426.44  228.78   1-0.57026 0.68454 0.08861-0.59907-0.81666 0.41533
   0  -7  -9 2510.53  603.96   1-0.83620 0.95008-0.21637-0.29412-0.50392 0.10409
   0  -7 -10  371.83  132.31   1-0.56363 0.68855 0.11555-0.62251-0.81789 0.37197
   0  -7 -10  221.46  100.54   1-0.83107 0.95536-0.21934-0.28777-0.51108 0.06682
   0  -7 -11    6.74  103.96   1-0.55768 0.69322 0.13832-0.64179-0.81844 0.32793
   0  -7 -11   25.89   77.89   1-0.82457 0.95927-0.22301-0.28072-0.51994 0.03126
   0  -7 -12 3511.60  359.97   1-0.55260 0.69877 0.15681-0.65678-0.81855 0.28344
   0  -7 -12 3213.29  780.90   1-0.81685 0.96198-0.22726-0.27310-0.53018-0.00292
   0  -7 -13  650.07  158.93   1-0.54857 0.70537 0.17094-0.66741-0.81844 0.23873
   0  -7 -13  552.82  189.32   1-0.80802 0.96357-0.23196-0.26501-0.54155-0.03598
   0  -7 -14  524.65  154.88   1-0.79816 0.96412-0.23705-0.25654-0.55383-0.06812
   0  -7 -15  115.90  125.31   1-0.78731 0.96369-0.24244-0.24777-0.56687-0.09951
   0  -7 -16  401.49  124.46   1-0.77551 0.96230-0.24810-0.23873-0.58054-0.13027
   0  -7 -17   58.83   88.50   1-0.76276 0.95998-0.25396-0.22949-0.59471-0.16052
   0  -8  14  -42.54  131.51   1-0.45138 0.32471-0.83772 0.17335-0.30734 0.92978
   0  -8  13  282.53  201.05   1-0.47106 0.35501-0.81200 0.15095-0.34460 0.92259
   0  -8  12  215.04  192.01   1-0.49010 0.38357-0.78383 0.12499-0.38132 0.91501
   0  -8  11   42.48  135.00   1-0.50742 0.41150-0.75416 0.09866-0.41684 0.90605
   0  -8  10 3013.12  352.52   1-0.52353 0.43821-0.72261 0.07045-0.45136 0.89610
   0  -8   9  179.59  192.49   1-0.54049 0.46523-0.68899 0.04078-0.48285 0.88424
   0  -8   8 1012.98  228.98   1-0.55407 0.48943-0.65388 0.00892-0.51520 0.87199
   0  -8   7 9262.72  695.43   1-0.56629 0.51228-0.61716-0.02453-0.54627 0.85846
   0  -8   6  405.37  180.55   1-0.57710 0.53372-0.57896-0.05947-0.57597 0.84356
   0  -8   5 1156.14  220.91   1-0.58670 0.55554-0.54067-0.09492-0.60286 0.82605
   0  -8   4  -21.61  126.72   1-0.59464 0.57402-0.50006-0.13220-0.62954 0.80809
   0  -8   3 4797.16  439.08   1-0.60110 0.59102-0.45853-0.17041-0.65453 0.78844
   0  -8   2  210.07  111.07   1-0.60620 0.60721-0.41671-0.20888-0.67739 0.76658
   0  -8   174126.87 1150.73   1-0.60974 0.62129-0.37421-0.24799-0.69869 0.74329
   0  -8   012030.66  744.64   1-0.61186 0.63396-0.33165-0.28716-0.71806 0.71806
   0  -8  -1  192.00  134.84   1-0.61264 0.64529-0.28939-0.32603-0.73546 0.69086
   0  -8  -2 4502.30  409.89   1-0.61207 0.65576-0.24860-0.36361-0.75070 0.66163
   0  -8  -2 3473.93  427.76   1-0.71890 0.76282-0.27221-0.33881-0.63959 0.55072
   0  -8  -3 6061.83  469.31   1-0.61051 0.66478-0.20822-0.40060-0.76414 0.63053
   0  -8  -3 5727.39  563.64   1-0.75645 0.81078-0.25653-0.35111-0.60163 0.46833
   0  -8  -430970.34 1641.14   1-0.60798 0.67284-0.16929-0.43614-0.77568 0.59754
   0  -8  -428557.81 1539.04   1-0.77973 0.84440-0.24610-0.35857-0.57570 0.39800
   0  -8  -5  189.38  136.16   1-0.60466 0.68010-0.13220-0.46984-0.78543 0.56275
   0  -8  -5  146.16   50.61   1-0.79410 0.86918-0.23909-0.36219-0.55877 0.33664
   0  -8  -6 6947.07  381.43   1-0.60118 0.68761-0.09864-0.50014-0.79299 0.52634
   0  -8  -6 5838.81  626.34   1-0.80260 0.88809-0.23478-0.36312-0.54836 0.28181
   0  -8  -7 4696.52  339.47   1-0.59689 0.69390-0.06634-0.52903-0.79956 0.48847
   0  -8  -7 4448.38  618.78   1-0.80694 0.90286-0.23253-0.36200-0.54292 0.23194
   0  -8  -812680.58  478.74   1-0.59242 0.70000-0.03685-0.55512-0.80478 0.44924
   0  -8  -812310.86 1108.88   1-0.80818 0.91452-0.23188-0.35927-0.54135 0.18594
   0  -8  -9 1203.39  199.14   1-0.58795 0.70612-0.01044-0.57812-0.80882 0.40884
   0  -8  -9  981.97  258.41   1-0.80700 0.92375-0.23250-0.35527-0.54284 0.14301
   0  -8 -10 3555.95  339.90   1-0.58369 0.71244 0.01266-0.59783-0.81187 0.36745
   0  -8 -10 3616.28  886.87   1-0.80385 0.93102-0.23414-0.35025-0.54680 0.10254
   0  -8 -11 1510.80  228.53   1-0.57982 0.71914 0.03228-0.61403-0.81410 0.32524
   0  -8 -11 1389.70  389.43   1-0.79904 0.93663-0.23660-0.34441-0.55275 0.06407
   0  -8 -12  443.37  167.13   1-0.57649 0.72639 0.04823-0.62658-0.81567 0.28237
   0  -8 -12  298.39  122.00   1-0.79279 0.94079-0.23975-0.33788-0.56035 0.02724
   0  -8 -13 3755.35 1005.87   1-0.78524 0.94366-0.24345-0.33080-0.56931-0.00822
   0  -8 -14  -22.99  150.69   1-0.77652 0.94535-0.24762-0.32324-0.57939-0.04256
   0  -8 -15  125.66  112.85   1-0.76669 0.94594-0.25218-0.31531-0.59041-0.07597
   0  -9  12  105.93  141.68   1-0.49272 0.38879-0.77957 0.04339-0.38661 0.92030
   0  -9  11   89.54  142.18   1-0.50899 0.41565-0.75128 0.01843-0.42012 0.90933
   0  -9  10 2819.30  496.00   1-0.52407 0.44134-0.72147-0.00803-0.45256 0.89730
   0  -9   9 4312.31  684.22   1-0.54010 0.46738-0.68993-0.03563-0.48194 0.88333
   0  -9   8  138.85  188.05   1-0.55281 0.49072-0.65738-0.06494-0.51210 0.86889
   0  -9   7  189.47  141.16   1-0.56427 0.51281-0.62363-0.09543-0.54098 0.85317
   0  -9   6  732.50  207.63   1-0.57448 0.53364-0.58885-0.12696-0.56852 0.83612
   0  -9   5   -3.92  136.34   1-0.58363 0.55515-0.55440-0.15856-0.59330 0.81648
   0  -9   411897.41  852.38   1-0.59133 0.57340-0.51806-0.19158-0.61800 0.79655
   0  -9   3 1701.85  281.17   1-0.59778 0.59038-0.48119-0.22512-0.64117 0.77508
   0  -9   2 3606.04  412.94   1-0.60299 0.60613-0.44402-0.25896-0.66274 0.75202
   0  -9   1   75.14  193.52   1-0.60711 0.62143-0.40727-0.29229-0.68230 0.72689
   0  -9   0  899.57  200.80   1-0.60999 0.63485-0.37031-0.32585-0.70055 0.70055
   0  -9  -1  271.45  129.69   1-0.61179 0.64720-0.33383-0.35894-0.71712 0.67252
   0  -9  -2  814.37  168.72   1-0.61259 0.65854-0.29812-0.39126-0.73201 0.64282
   0  -9  -3  953.52  193.43   1-0.61239 0.66947-0.26436-0.42183-0.74504 0.61143
   0  -9  -4 6290.99  511.82   1-0.61153 0.67920-0.23119-0.45161-0.75668 0.57854
   0  -9  -4 4860.38  606.23   1-0.71942 0.78706-0.27200-0.40949-0.63908 0.46135
   0  -9  -5 3260.14  353.43   1-0.61004 0.68830-0.19966-0.47975-0.76679 0.54412
   0  -9  -5 2347.68  472.05   1-0.74142 0.81947-0.26302-0.41509-0.61733 0.39516
   0  -9  -6 4327.69  410.17   1-0.60804 0.69688-0.17005-0.50597-0.77547 0.50826
   0  -9  -6 3581.14  847.92   1-0.75569 0.84415-0.25687-0.41787-0.60244 0.33584
   0  -9  -7  156.09  161.10   1-0.60568 0.70511-0.14263-0.53000-0.78281 0.47107
   0  -9  -7  145.15  108.46   1-0.76452 0.86331-0.25316-0.41864-0.59279 0.28181
   0  -9  -8 1076.20  204.23   1-0.60312 0.71314-0.11766-0.55158-0.78891 0.43264
   0  -9  -8  960.43  265.08   1-0.76935 0.87856-0.25096-0.41746-0.58746 0.23205
   0  -9  -9 2289.76  265.37   1-0.60095 0.72199-0.09681-0.56916-0.79339 0.39341
   0  -9  -9 1824.06  427.25   1-0.77109 0.89072-0.25015-0.41489-0.58551 0.18568
   0  -9 -10  577.93  157.88   1-0.59843 0.73005-0.07741-0.58515-0.79741 0.35300
   0  -9 -10  785.90  247.52   1-0.77037 0.90041-0.25049-0.41117-0.58632 0.14206
   0  -9 -11   69.76  106.37   1-0.59613 0.73833-0.06107-0.59808-0.80055 0.31169
   0  -9 -11  154.62  101.26   1-0.76761 0.90806-0.25176-0.40652-0.58939 0.10071
   0  -9 -12 1156.54  357.70   1-0.76310 0.91398-0.25380-0.40110-0.59434 0.06123
   0  -9 -13   68.34   68.81   1-0.75708 0.91837-0.25650-0.39502-0.60086 0.02332
   0  -9 -14   56.25  130.98   1-0.74972 0.92146-0.25948-0.38823-0.60875-0.01331
   0 -10   9  -22.49  140.48   1-0.53757 0.46740-0.69591-0.10703-0.47614 0.87753
   0 -10   8  110.33  145.56   1-0.54968 0.49014-0.66582-0.13386-0.50451 0.86130
   0 -10   7 2721.52  504.92   1-0.56064 0.51172-0.63486-0.16156-0.53162 0.84381
   0 -10   6 2332.91  445.52   1-0.57046 0.53217-0.60317-0.18999-0.55744 0.82503
   0 -10   5 2973.38  512.70   1-0.57934 0.55356-0.57214-0.21820-0.58052 0.80371
   0 -10   4 2349.97  362.85   1-0.58696 0.57171-0.53949-0.24752-0.60367 0.78222
   0 -10   3  118.53  158.60   1-0.59348 0.58877-0.50660-0.27708-0.62540 0.75932
   0 -10   2 3549.09  388.93   1-0.59894 0.60477-0.47365-0.30670-0.64569 0.73497
   0 -10   111137.59  556.41   1-0.60338 0.61974-0.44085-0.33617-0.66451 0.70915
   0 -10   0 1425.06  218.94   1-0.60696 0.63458-0.40893-0.36459-0.68144 0.68144
   0 -10  -1 1793.19  268.73   1-0.60954 0.64771-0.37713-0.39299-0.69729 0.65269
   0 -10  -2  126.20  161.10   1-0.61129 0.66001-0.34615-0.42058-0.71168 0.62248
   0 -10  -3  713.73  219.86   1-0.61230 0.67156-0.31623-0.44712-0.72462 0.59083
   0 -10  -415223.94  598.28   1-0.61265 0.68245-0.28759-0.47236-0.73616 0.55778
   0 -10  -5  592.80  233.76   1-0.61234 0.69341-0.26158-0.49521-0.74605 0.52338
   0 -10  -6 3767.60  358.73   1-0.61171 0.70337-0.23633-0.51707-0.75494 0.48774
   0 -10  -7 1601.05  327.25   1-0.61075 0.71300-0.21304-0.53697-0.76261 0.45087
   0 -10  -7  802.99  206.49   1-0.71284 0.81459-0.27458-0.47400-0.64533 0.33429
   0 -10  -8  980.09  265.14   1-0.60957 0.72240-0.19194-0.55468-0.76913 0.41286
   0 -10  -8  920.93  261.56   1-0.72215 0.83432-0.27092-0.47428-0.63646 0.28099
   0 -10  -9  131.15  157.80   1-0.60828 0.73170-0.17322-0.57000-0.77458 0.37377
   0 -10  -9   92.27   81.32   1-0.72753 0.85011-0.26876-0.47306-0.63123 0.23132
   0 -10 -10 2364.16  429.79   1-0.60699 0.74099-0.15710-0.58274-0.77902 0.33367
   0 -10 -10 1551.94  384.25   1-0.72981 0.86280-0.26784-0.47061-0.62899 0.18465
   0 -10 -11  142.86   70.45   1-0.72956 0.87295-0.26794-0.46713-0.62924 0.14046
   0 -10 -12    4.51   47.82   1-0.72718 0.88099-0.26890-0.46278-0.63157 0.09836
   0 -11   6  241.45  158.64   1-0.56513 0.52939-0.62091-0.24963-0.54322 0.81081
   0 -11   5   90.92  142.51   1-0.57370 0.54859-0.59168-0.27560-0.56636 0.78935
   0 -11   4 2124.52  430.29   1-0.58148 0.56892-0.56349-0.30089-0.58681 0.76536
   0 -11   3 1245.73  340.72   1-0.58812 0.58610-0.53402-0.32702-0.60739 0.74130
   0 -11   2  460.68  190.06   1-0.59383 0.60234-0.50467-0.35305-0.62663 0.71590
   0 -11   1 1037.30  269.44   1-0.59864 0.61770-0.47560-0.37879-0.64453 0.68917
   0 -11   0 1079.50  311.73   1-0.60262 0.63221-0.44700-0.40406-0.66108 0.66108
   0 -11  -1  509.15  210.86   1-0.60591 0.64684-0.41960-0.42788-0.67587 0.63127
   0 -11  -2  217.40  152.32   1-0.60839 0.65987-0.39254-0.45154-0.68975 0.60055
   0 -11  -3 2548.91  483.76   1-0.61022 0.67225-0.36653-0.47416-0.70233 0.56854
   0 -11  -4 1378.24  324.44   1-0.61148 0.68405-0.34176-0.49555-0.71363 0.53525
   0 -11  -5  459.89  170.23   1-0.61225 0.69536-0.31842-0.51550-0.72370 0.50072
   0 -11  -6   27.15  122.59   1-0.61260 0.70626-0.29670-0.53382-0.73258 0.46500
   0 -11  -7  152.93  128.01   1-0.61263 0.71683-0.27681-0.55032-0.74030 0.42812
   0 -11  -8  440.76  221.32   1-0.61232 0.72796-0.26029-0.56370-0.74652 0.39025
   1 -11  -7 1854.43  404.41   1-0.60961 0.80491-0.37612-0.45101-0.69778 0.38560
   1 -11  -6  137.81  167.96   1-0.60844 0.79320-0.39195-0.43857-0.69004 0.42246
   1 -11  -5  204.36  171.68   1-0.60689 0.78111-0.40964-0.42428-0.68107 0.45809
   1 -11  -4 4066.10  644.36   1-0.60491 0.76857-0.42896-0.40834-0.67087 0.49248
   1 -11  -3  157.90  130.87   1-0.60236 0.75470-0.44902-0.39205-0.65994 0.52603
   1 -11  -2   81.22  133.83   1-0.59933 0.74113-0.47104-0.37336-0.64723 0.55796
   1 -11  -1 9518.15 1342.90   1-0.59567 0.72694-0.49409-0.35364-0.63327 0.58863
   1 -11   0  126.33  206.88   1-0.59135 0.71207-0.51798-0.33308-0.61805 0.61805
   1 -11   1  635.34  261.81   1-0.58630 0.69649-0.54251-0.31188-0.60159 0.64623
   1 -11   2 2853.87  515.89   1-0.58049 0.68015-0.56752-0.29020-0.58390 0.67317
   1 -11   3  618.82  252.38   1-0.57380 0.66091-0.59134-0.26943-0.56662 0.70042
   1 -11   4  628.88  197.15   1-0.56640 0.64289-0.61680-0.24722-0.54656 0.72495
   1 -11   5 1426.22  331.68   1-0.55815 0.62401-0.64226-0.22502-0.52531 0.74831
   1 -11   6  401.05  225.31   1-0.54901 0.60425-0.66757-0.20297-0.50291 0.77050
   1 -10 -11  294.88  151.81   1-0.63933 0.87350-0.30033-0.43473-0.70784 0.21906
   1 -10 -10  123.06   64.90   1-0.63537 0.85913-0.30158-0.43686-0.71087 0.26653
   1 -10  -9  286.30  122.14   1-0.62808 0.84143-0.30384-0.43798-0.71636 0.31646
   1 -10  -8  204.85  127.54   1-0.61252 0.81561-0.30398-0.44241-0.72966 0.37288
   1 -10  -8   62.53   86.72   1-0.61673 0.81967-0.30727-0.43793-0.72471 0.36924
   1 -10  -7 2492.68  458.92   1-0.61218 0.80473-0.32093-0.42885-0.72265 0.41047
   1 -10  -6 2110.41  407.26   1-0.61155 0.79355-0.34008-0.41309-0.71438 0.44679
   1 -10  -5    3.47  106.66   1-0.61054 0.78199-0.36119-0.39537-0.70482 0.48184
   1 -10  -4 4495.77  412.71   1-0.60905 0.76996-0.38401-0.37594-0.69396 0.51557
   1 -10  -3  742.34  218.15   1-0.60702 0.75738-0.40828-0.35506-0.68178 0.54799
   1 -10  -2  145.95  127.32   1-0.60429 0.74340-0.43308-0.33395-0.66877 0.57950
   1 -10  -1  109.51  147.69   1-0.60095 0.72953-0.45962-0.31075-0.65390 0.60927
   1 -10   0 3258.14  374.81   1-0.59686 0.71490-0.48691-0.28678-0.63769 0.63769
   1 -10   1 1126.99  241.94   1-0.59196 0.69947-0.51475-0.26227-0.62015 0.66479
   1 -10   2 2909.86  299.23   1-0.58621 0.68317-0.54294-0.23741-0.60130 0.69058
   1 -10   3  363.52  196.40   1-0.57956 0.66599-0.57127-0.21241-0.58116 0.71507
   1 -10   4 1447.95  350.72   1-0.57191 0.64585-0.59810-0.18856-0.56140 0.73980
   1 -10   5  280.50  206.33   1-0.56344 0.62676-0.62624-0.16367-0.53883 0.76182
   1 -10   6  113.80  139.47   1-0.55402 0.60670-0.65404-0.13913-0.51506 0.78265
   1 -10   7 8748.09 1237.20   1-0.54362 0.58568-0.68134-0.11508-0.49013 0.80232
   1 -10   8 1047.31  282.32   1-0.53012 0.56232-0.70837-0.09181-0.46601 0.82180
   1 -10   9  -50.88  147.74   1-0.51782 0.53941-0.73430-0.06921-0.43892 0.83919
   1 -10  10 5404.52  863.66   1-0.50454 0.51553-0.75938-0.04747-0.41081 0.85555
   1  -9 -13  255.84  152.48   1-0.67433 0.92643-0.28872-0.36236-0.67963 0.10199
   1  -9 -12  379.81  178.28   1-0.67741 0.91910-0.28765-0.36681-0.67702 0.14381
   1  -9 -11  611.92  192.64   1-0.67843 0.90971-0.28729-0.37055-0.67616 0.18738
   1  -9 -10 1053.18  345.67   1-0.67704 0.89791-0.28778-0.37344-0.67734 0.23300
   1  -9  -9  -28.08   92.72   1-0.61128 0.82295-0.22476-0.44109-0.75882 0.35800
   1  -9  -9  282.63  100.24   1-0.67279 0.88325-0.28926-0.37534-0.68093 0.28102
   1  -9  -8 2716.73  289.26   1-0.61192 0.81300-0.24281-0.42643-0.75272 0.39644
   1  -9  -8 2171.10  498.90   1-0.66505 0.86510-0.29191-0.37607-0.68737 0.33190
   1  -9  -7 2255.13  249.15   1-0.61237 0.80287-0.26353-0.40911-0.74534 0.43360
   1  -9  -7 1851.88  389.59   1-0.65295 0.84258-0.29595-0.37541-0.69718 0.38614
   1  -9  -6 1448.94  219.37   1-0.61265 0.79189-0.28530-0.39051-0.73705 0.46947
   1  -9  -6 1572.96  404.99   1-0.63520 0.81443-0.30163-0.37310-0.71100 0.44440
   1  -9  -5 1488.59  277.70   1-0.61241 0.78110-0.31059-0.36861-0.72695 0.50397
   1  -9  -5 1063.66  169.41   1-0.60994 0.77876-0.30927-0.36884-0.72959 0.50742
   1  -9  -4  338.14  130.69   1-0.61165 0.76979-0.33766-0.34494-0.71544 0.53705
   1  -9  -4  617.16  153.92   1-0.57430 0.73270-0.31922-0.36227-0.75384 0.57610
   1  -9  -3 5085.18  444.02   1-0.61024 0.75784-0.36622-0.31977-0.70248 0.56869
   1  -9  -2  101.61  105.66   1-0.60811 0.74516-0.39596-0.29342-0.68804 0.59885
   1  -9  -1  229.92  154.25   1-0.60516 0.73167-0.42662-0.26616-0.67213 0.62753
   1  -9   0  393.72  163.91   1-0.60127 0.71662-0.45732-0.23900-0.65523 0.65523
   1  -9   1 3714.68  398.43   1-0.59651 0.70132-0.48906-0.21059-0.63638 0.68101
   1  -9   214861.95  990.65   1-0.59077 0.68504-0.52095-0.18203-0.61611 0.70538
   1  -9   3  308.27  208.43   1-0.58400 0.66774-0.55276-0.15355-0.59446 0.72837
   1  -9   4  302.08  187.28   1-0.57610 0.64749-0.58280-0.12650-0.57310 0.75149
   1  -9   5   70.03  141.95   1-0.56728 0.62805-0.61391-0.09864-0.54889 0.77189
   1  -9   6  114.46  146.31   1-0.55741 0.60755-0.64441-0.07140-0.52347 0.79106
   1  -9   7 2085.47  307.95   1-0.54648 0.58599-0.67414-0.04492-0.49687 0.80906
   1  -9   8  503.66  200.62   1-0.53450 0.56339-0.70297-0.01934-0.46917 0.82596
   1  -9   9  146.83  131.08   1-0.51942 0.53842-0.73108 0.00491-0.44239 0.84265
   1  -9  10  128.76  137.52   1-0.50543 0.51384-0.75777 0.02826-0.41268 0.85741
   1  -9  11   71.07  144.12   1-0.49045 0.48825-0.78326 0.05041-0.38203 0.87124
   1  -9  12 1459.16  414.78   1-0.47447 0.46167-0.80748 0.07129-0.35049 0.88418
   1  -8 -15  117.91  114.64   1-0.68891 0.95895-0.28355-0.28355-0.66707 0.00056
   1  -8 -14   99.02   59.42   1-0.69670 0.95633-0.28070-0.28978-0.66015 0.03807
   1  -8 -13   -1.64  120.74   1-0.70302 0.95224-0.27833-0.29552-0.65443 0.07678
   1  -8 -12  168.44  146.10   1-0.70772 0.94653-0.27655-0.30069-0.65010 0.11689
   1  -8 -11  733.62  232.47   1-0.71059 0.93898-0.27545-0.30517-0.64744 0.15866
   1  -8 -10 1408.12  206.02   1-0.60465 0.82410-0.13211-0.45297-0.78545 0.34010
   1  -8 -10 1492.87  402.11   1-0.71134 0.92932-0.27516-0.30883-0.64673 0.20239
   1  -8  -9   22.94  104.26   1-0.60649 0.81535-0.15143-0.43704-0.78053 0.37971
   1  -8  -9  162.18   92.57   1-0.70960 0.91717-0.27583-0.31154-0.64836 0.24846
   1  -8  -8  514.91  176.47   1-0.60834 0.80661-0.17404-0.41782-0.77435 0.41807
   1  -8  -8  376.05  117.39   1-0.70481 0.90198-0.27766-0.31310-0.65278 0.29731
   1  -8  -7 2011.16  222.28   1-0.61004 0.79772-0.19961-0.39565-0.76681 0.45507
   1  -8  -7 1885.33  427.38   1-0.69625 0.88300-0.28086-0.31327-0.66056 0.34952
   1  -8  -6  853.62  173.34   1-0.61140 0.78850-0.22777-0.37087-0.75782 0.49061
   1  -8  -6  821.97  206.26   1-0.68280 0.85914-0.28574-0.31177-0.67240 0.40580
   1  -8  -512108.31  480.01   1-0.61228 0.77880-0.25818-0.34386-0.74729 0.52461
   1  -8  -510613.75  868.42   1-0.66285 0.82878-0.29265-0.30824-0.68917 0.46700
   1  -8  -460248.36  970.92   1-0.61264 0.76803-0.28937-0.31588-0.73547 0.55708
   1  -8  -457807.57 2889.03   1-0.63394 0.78946-0.30203-0.30224-0.71196 0.53422
   1  -8  -3 8804.42  607.82   1-0.61212 0.75696-0.32329-0.28535-0.72165 0.58786
   1  -8  -3 8658.50  514.06   1-0.59207 0.73718-0.31438-0.29327-0.74203 0.60872
   1  -8  -2 7834.62  540.02   1-0.61069 0.74498-0.35834-0.25369-0.70614 0.61695
   1  -8  -2 7105.41  423.61   1-0.53050 0.66519-0.33022-0.28081-0.78071 0.69184
   1  -8  -1  326.86  146.89   1-0.60826 0.73201-0.39415-0.22127-0.68895 0.64435
   1  -8   0 3811.11  376.02   1-0.60475 0.71795-0.43039-0.18842-0.67010 0.67010
   1  -8   132201.09 1705.03   1-0.60003 0.70215-0.46622-0.15606-0.65007 0.69471
   1  -8   2   -7.63  125.05   1-0.59422 0.68580-0.50248-0.12312-0.62801 0.71729
   1  -8   3  162.80  177.41   1-0.58721 0.66826-0.53832-0.09062-0.60447 0.73838
   1  -8   4 9832.13  481.78   1-0.57900 0.64951-0.57350-0.05877-0.57952 0.75807
   1  -8   5  318.13  149.25   1-0.56952 0.62774-0.60641-0.02878-0.55489 0.77788
   1  -8   6   -1.53  127.78   1-0.55898 0.60657-0.63980 0.00135-0.52742 0.79502
   1  -8   7 7313.45  606.43   1-0.54729 0.58425-0.67205 0.03035-0.49880 0.81099
   1  -8   8  795.52  243.64   1-0.53448 0.56081-0.70303 0.05808-0.46911 0.82590
   1  -8   9 1002.31  247.54   1-0.51851 0.53493-0.73290 0.08408-0.44043 0.84069
   1  -8  1012678.04  591.52   1-0.50360 0.50941-0.76106 0.10889-0.40886 0.85360
   1  -8  11  308.58  199.00   1-0.48765 0.48287-0.78770 0.13220-0.37644 0.86565
   1  -8  12  -34.30  118.62   1-0.47022 0.45558-0.81317 0.15544-0.34298 0.87651
   1  -8  13 2625.16  505.04   1-0.45230 0.42703-0.83661 0.17556-0.30904 0.88702
   1  -8  14   97.87  136.41   1-0.43341 0.39752-0.85840 0.19403-0.27439 0.89684
   1  -7 -16  654.92  159.96   1-0.69937 0.97693-0.27970-0.20679-0.65775-0.05319
   1  -7 -15  552.05  145.06   1-0.70951 0.97666-0.27587-0.21401-0.64844-0.01806
   1  -7 -14 1142.56  302.77   1-0.71840 0.97514-0.27241-0.22085-0.64007 0.01799
   1  -7 -13  279.73  118.90   1-0.72594 0.97227-0.26940-0.22723-0.63278 0.05514
   1  -7 -12  376.64  143.26   1-0.73202 0.96794-0.26693-0.23308-0.62680 0.09359
   1  -7 -11  206.28  132.82   1-0.59045 0.81800-0.02492-0.47943-0.80668 0.31782
   1  -7 -11  258.86  131.98   1-0.73645 0.96195-0.26510-0.23829-0.62237 0.13360
   1  -7 -10 7586.72  547.11   1-0.59375 0.81072-0.04529-0.46247-0.80336 0.35895
   1  -7 -10 7092.52 1132.09   1-0.73899 0.95409-0.26404-0.24273-0.61980 0.17546
   1  -7  -9  956.32  163.19   1-0.59738 0.80377-0.06981-0.44135-0.79890 0.39892
   1  -7  -9 1162.40  282.05   1-0.73932 0.94400-0.26391-0.24624-0.61947 0.21957
   1  -7  -8 1518.90  200.20   1-0.60111 0.79692-0.09812-0.41644-0.79311 0.43757
   1  -7  -8 1518.98  345.43   1-0.73696 0.93124-0.26489-0.24864-0.62185 0.26638
   1  -7  -720774.28 1121.08   1-0.60424 0.78911-0.12806-0.38982-0.78644 0.47469
   1  -7  -720040.17 1101.63   1-0.73128 0.91514-0.26724-0.24967-0.62754 0.31650
   1  -7  -6 1066.65  163.71   1-0.60747 0.78175-0.16283-0.35844-0.77747 0.51026
   1  -7  -6  962.41  278.64   1-0.72129 0.89474-0.27126-0.24902-0.63729 0.37069
   1  -7  -516185.44  644.27   1-0.61006 0.77376-0.20009-0.32458-0.76666 0.54399
   1  -7  -515598.76  749.65   1-0.70558 0.86862-0.27737-0.24630-0.65208 0.42991
   1  -7  -440588.27 1294.75   1-0.61181 0.76493-0.23934-0.28871-0.75391 0.57577
   1  -7  -439118.68 1274.42   1-0.68191 0.83454-0.28606-0.24099-0.67316 0.49543
   1  -7  -3   66.99  109.02   1-0.61264 0.75472-0.27911-0.25218-0.73943 0.60564
   1  -7  -3  151.82   67.88   1-0.64671 0.78893-0.29798-0.23245-0.70211 0.56881
   1  -7  -2   -8.10  101.44   1-0.61218 0.74371-0.32101-0.21367-0.72261 0.63342
   1  -7  -2   10.63   48.16   1-0.59386 0.72566-0.31388-0.21992-0.74081 0.65194
   1  -7  -1 1259.80  195.00   1-0.61041 0.73139-0.36340-0.17467-0.70379 0.65920
   1  -7  -1 1009.17  106.40   1-0.51217 0.63357-0.33445-0.20273-0.79108 0.74665
   1  -7   0 2789.54  263.92   1-0.60724 0.71768-0.40585-0.13561-0.68303 0.68303
   1  -7   0 2160.79  126.32   1-0.37213 0.48431-0.35895-0.18101-0.85596 0.85596
   1  -7   113527.67  577.18   1-0.60256 0.70199-0.44744-0.09747-0.66083 0.70547
   1  -7   256526.16 1759.19   1-0.59653 0.68542-0.48896-0.05928-0.63644 0.72572
   1  -7   326857.57  987.72   1-0.58906 0.66741-0.52949-0.02207-0.61044 0.74435
   1  -7   4 2659.74  244.96   1-0.58017 0.64800-0.56881 0.01390-0.58296 0.76151
   1  -7   5 2104.04  267.04   1-0.56984 0.62551-0.60530 0.04747-0.55576 0.77876
   1  -7   6  175.98  129.11   1-0.55833 0.60337-0.64173 0.08065-0.52577 0.79336
   1  -7   7 2818.80  321.96   1-0.54556 0.57997-0.67649 0.11216-0.49468 0.80687
   1  -7   8 1800.19  252.47   1-0.52951 0.55394-0.70974 0.14160-0.46463 0.82042
   1  -7   9 6416.37  427.50   1-0.51446 0.52829-0.74090 0.16943-0.43172 0.83198
   1  -7  10  210.43  195.13   1-0.49834 0.50156-0.77021 0.19540-0.39802 0.84276
   1  -7  11 3735.11  375.08   1-0.48119 0.47381-0.79764 0.21949-0.36362 0.85283
   1  -7  12  456.80  158.05   1-0.46254 0.44514-0.82356 0.24307-0.32830 0.86183
   1  -7  13 1269.29  318.12   1-0.44345 0.41543-0.84716 0.26334-0.29268 0.87066
   1  -7  14  959.36  254.86   1-0.42345 0.38480-0.86884 0.28169-0.25651 0.87895
   1  -7  15  278.43  194.13   1-0.40255 0.35328-0.88861 0.29813-0.21983 0.88673
   1  -6 -17  171.82   91.24   1-0.70177 0.98685-0.27881-0.12709-0.65557-0.09980
   1  -6 -16  -13.42   69.90   1-0.71391 0.98858-0.27416-0.13511-0.64432-0.06662
   1  -6 -15  290.83  132.37   1-0.72494 0.98920-0.26981-0.14285-0.63376-0.03274
   1  -6 -14  204.15  114.60   1-0.73479 0.98864-0.26579-0.15024-0.62404 0.00196
   1  -6 -13 9954.73 1390.84   1-0.74340 0.98684-0.26218-0.15723-0.61531 0.03766
   1  -6 -12  -21.74  121.25   1-0.75065 0.98368-0.25907-0.16372-0.60778 0.07457
   1  -6 -11  -56.96   74.70   1-0.57091 0.79479 0.08584-0.51189-0.81650 0.32598
   1  -6 -11  -11.82   62.31   1-0.75639 0.97901-0.25680-0.16966-0.60159 0.11290
   1  -6 -10 3280.33  230.76   1-0.57395 0.78805 0.05993-0.49029-0.81669 0.37227
   1  -6 -10 3227.68  769.87   1-0.76044 0.97263-0.25500-0.17484-0.59724 0.15298
   1  -6  -9  452.03  131.16   1-0.58049 0.78401 0.02896-0.46272-0.81375 0.41377
   1  -6  -9  719.35  247.38   1-0.76248 0.96426-0.25408-0.17913-0.59502 0.19519
   1  -6  -8 3078.46  200.24   1-0.58728 0.78023-0.00671-0.43045-0.80934 0.45381
   1  -6  -8 3147.14  803.61   1-0.76212 0.95348-0.25425-0.18235-0.59541 0.24000
   1  -6  -7  861.33  125.73   1-0.59396 0.77632-0.04660-0.39396-0.80314 0.49204
   1  -6  -7  907.58  177.86   1-0.75877 0.93972-0.25574-0.18423-0.59904 0.28806
   1  -6  -611987.41  459.60   1-0.60011 0.77189-0.09013-0.35385-0.79481 0.52816
   1  -6  -611665.94  539.55   1-0.75151 0.92207-0.25870-0.18436-0.60688 0.34027
   1  -6  -5   44.54  105.06   1-0.60493 0.76582-0.13492-0.31236-0.78475 0.56208
   1  -6  -5   72.57   42.34   1-0.73912 0.89927-0.26399-0.18245-0.61968 0.39751
   1  -6  -448095.22 1368.05   1-0.60904 0.75933-0.18375-0.26693-0.77155 0.59342
   1  -6  -444753.07 1302.56   1-0.71950 0.86924-0.27197-0.17785-0.63901 0.46127
   1  -6  -3 2756.67  248.09   1-0.61164 0.75135-0.23402-0.22005-0.75573 0.62212
   1  -6  -3 2615.92  318.25   1-0.68928 0.82861-0.28342-0.16978-0.66675 0.53345
   1  -6  -2  419.02  105.24   1-0.61265 0.74142-0.28415-0.17317-0.73749 0.64830
   1  -6  -2  498.62  115.98   1-0.64259 0.77151-0.29930-0.15728-0.70532 0.61645
   1  -6  -1 4205.18  305.75   1-0.61173 0.72996-0.33530-0.12541-0.71647 0.67188
   1  -6  -1 4372.15  252.42   1-0.56861 0.68712-0.32072-0.13924-0.75750 0.71306
   1  -6   156865.95 1342.59   1-0.60411 0.70085-0.43467-0.03287-0.66790 0.71254
   1  -6   152343.78 1068.52   1-0.21259 0.31005-0.37584-0.09077-0.90196 0.94637
   1  -6   244974.41 1134.76   1-0.59756 0.68376-0.48259 0.01171-0.64033 0.72960
   1  -6   327374.20  793.74   1-0.58923 0.66490-0.52862 0.05441-0.61102 0.74494
   1  -6   4 2522.99  232.82   1-0.57924 0.64437-0.57254 0.09500-0.58023 0.75878
   1  -6   517910.09  677.93   1-0.56761 0.62073-0.61283 0.13237-0.54977 0.77276
   1  -6   6  138.57  155.56   1-0.55465 0.59715-0.65226 0.16854-0.51662 0.78422
   1  -6   726207.48  962.06   1-0.54036 0.57222-0.68931 0.20234-0.48254 0.79474
   1  -6   8 4282.08  340.85   1-0.52279 0.54464-0.72415 0.23336-0.44975 0.80554
   1  -6   9 1777.96  233.25   1-0.50620 0.51744-0.75639 0.26227-0.41427 0.81453
   1  -6  1016164.66  585.90   1-0.48855 0.48919-0.78629 0.28883-0.37822 0.82296
   1  -6  11 1355.98  213.74   1-0.46940 0.45987-0.81430 0.31436-0.34140 0.83047
   1  -6  12   38.86  127.16   1-0.44984 0.42968-0.83960 0.33633-0.30447 0.83800
   1  -6  13 1394.27  269.76   1-0.42940 0.39863-0.86268 0.35609-0.26716 0.84515
   1  -6  14  793.34  199.15   1-0.40813 0.36673-0.88359 0.37367-0.22953 0.85198
   1  -6  15  559.94  200.62   1-0.38522 0.33339-0.90281 0.38991-0.19113 0.85837
   1  -6  16  208.39  209.69   1-0.36231 0.29987-0.91943 0.40324-0.15283 0.86456
   1  -6  17  269.14  190.60   1-0.33862 0.26557-0.93396 0.41446-0.11424 0.87045
   1  -5 -18  138.16  143.65   1-0.69660 0.98920-0.28073-0.04456-0.66025-0.13956
   1  -5 -17  253.78  123.47   1-0.71054 0.99273-0.27547-0.05320-0.64749-0.10789
   1  -5 -16 5078.54 1258.71   1-0.72343 0.99522-0.27041-0.06164-0.63522-0.07571
   1  -5 -15  244.81  144.45   1-0.73525 0.99663-0.26560-0.06983-0.62357-0.04293
   1  -5 -14   14.33   94.24   1-0.74596 0.99693-0.26109-0.07772-0.61266-0.00941
   1  -5 -13  624.83  202.31   1-0.75547 0.99604-0.25721-0.08522-0.60258 0.02504
   1  -5 -12  665.33  157.14   1-0.76373 0.99388-0.25352-0.09228-0.59366 0.06055
   1  -5 -1110213.27  580.88   1-0.53324 0.75445 0.22099-0.56962-0.81658 0.32606
   1  -5 -1110605.89 1185.91   1-0.77058 0.99032-0.25039-0.09879-0.58608 0.09740
   1  -5 -10  357.41   87.71   1-0.54299 0.75357 0.18979-0.54191-0.81800 0.37208
   1  -5 -10  426.98  202.05   1-0.77585 0.98518-0.24793-0.10463-0.58014 0.13588
   1  -5  -9 6392.79  304.61   1-0.55400 0.75395 0.15179-0.50741-0.81855 0.41722
   1  -5  -9 6547.06  390.22   1-0.77928 0.97819-0.24631-0.10963-0.57622 0.17639
   1  -5  -8 2156.01  155.04   1-0.56572 0.75504 0.10727-0.46639-0.81758 0.46084
   1  -5  -8 2141.18  523.75   1-0.78050 0.96899-0.24573-0.11359-0.57482 0.21941
   1  -5  -757677.21 1560.81   1-0.57481 0.75430 0.05602-0.41919-0.81636 0.50527
   1  -5  -755105.71 1781.37   1-0.77897 0.95704-0.24646-0.11624-0.57658 0.26560
   1  -5  -661669.77 1367.08   1-0.58603 0.75495 0.00018-0.36676-0.81028 0.54363
   1  -5  -657678.61 1368.84   1-0.77389 0.94154-0.24885-0.11723-0.58237 0.31581
   1  -5  -522443.46  602.10   1-0.59593 0.75426-0.05966-0.31032-0.80081 0.57860
   1  -5  -522115.93  845.90   1-0.76402 0.92126-0.25339-0.11607-0.59334 0.37121
   1  -5  -4  661.07  104.07   1-0.60344 0.75092-0.12056-0.25275-0.78823 0.61010
   1  -5  -4  653.51  179.49   1-0.74726 0.89411-0.26054-0.11206-0.61132 0.43358
   1  -5  -3  185.72   70.48   1-0.60910 0.74600-0.18473-0.19197-0.77127 0.63766
   1  -5  -3  207.31   60.44   1-0.72046 0.85690-0.27159-0.10438-0.63809 0.50479
   1  -5  -2 3040.44  226.43   1-0.61208 0.73840-0.24899-0.13109-0.75056 0.66149
   1  -5  -2 3039.34  323.43   1-0.67761 0.80364-0.28758-0.09177-0.67685 0.58799
   1  -5  -1 5330.96  306.99   1-0.61240 0.72785-0.31158-0.07178-0.72655 0.68195
   1  -5  -1 5640.20  270.33   1-0.60744 0.72306-0.31000-0.07273-0.73137 0.68693
   1  -5   023105.68  613.78   1-0.60982 0.71473-0.37303-0.01372-0.69925 0.69925
   1  -5   023178.03  515.76   1-0.48066 0.58676-0.33966-0.04602-0.80844 0.80844
   1  -5   122840.69  628.94   1-0.60449 0.69854-0.43131 0.04113-0.66974 0.71438
   1  -5   122072.52  470.32   1-0.25383 0.34839-0.37216-0.01725-0.89278 0.93718
   1  -5   237013.35  900.46   1-0.59684 0.68035-0.48706 0.09355-0.63760 0.72688
   1  -5   232105.85  621.36   1 0.22240-0.13879-0.37197-0.02100-0.90120 0.99009
   1  -5   333150.29  840.03   1-0.58698 0.65995-0.53940 0.14256-0.60373 0.73765
   1  -5   4  104.38  116.05   1-0.57504 0.63624-0.58677 0.18693-0.57010 0.74849
   1  -5   5 2444.98  215.31   1-0.56152 0.61209-0.63219 0.22909-0.53387 0.75687
   1  -5   617698.49  596.47   1-0.54647 0.58642-0.67416 0.26780-0.49685 0.76445
   1  -5   7 6066.30  368.80   1-0.52804 0.55790-0.71296 0.30286-0.46135 0.77266
   1  -5   8 1734.44  224.99   1-0.51054 0.52979-0.74838 0.33494-0.42339 0.77918
   1  -5   9 1741.32  218.30   1-0.49199 0.50064-0.78077 0.36399-0.38513 0.78540
   1  -5  10  725.69  172.93   1-0.47250 0.47056-0.81027 0.39016-0.34668 0.79142
   1  -5  11   34.83  109.63   1-0.45163 0.43934-0.83743 0.41471-0.30779 0.79686
   1  -5  12  211.16  170.44   1-0.43048 0.40757-0.86154 0.43550-0.26910 0.80263
   1  -5  13 1101.06  244.99   1-0.40859 0.37506-0.88317 0.45380-0.23033 0.80832
   1  -5  14 6886.23  447.62   1-0.38515 0.34117-0.90286 0.47050-0.19101 0.81377
   1  -5  15 3987.59  382.88   1-0.36184 0.30725-0.91975 0.48408-0.15205 0.81930
   1  -5  16  503.36  191.34   1-0.33786 0.27266-0.93438 0.49541-0.11302 0.82475
   1  -5  17   39.22  116.76   1-0.31320 0.23740-0.94680 0.50453-0.07390 0.83011
  -1   5 -18  -20.93  117.63   1 0.29348-0.20422 0.95525-0.50753 0.03689-0.83707
   1  -5  18  131.71  178.14   1-0.28726 0.20048-0.95722 0.51141-0.03460 0.83562
   1  -4 -18  299.41  152.80   1-0.69960 0.98932-0.27962 0.03154-0.65754-0.14227
   1  -4 -17  613.97  149.53   1-0.71421 0.99352-0.27405 0.02259-0.64404-0.11133
   1  -4 -16 1082.16  200.84   1-0.72780 0.99670-0.26865 0.01382-0.63097-0.07997
   1  -4 -15  -28.17  140.31   1-0.74034 0.99882-0.26348 0.00526-0.61844-0.04807
   1  -4 -14 2652.15  725.34   1-0.75175 0.99987-0.25883-0.00293-0.60651-0.01544
   1  -4 -1313253.86  701.30   1-0.76207 0.99978-0.25427-0.01088-0.59546 0.01793
   1  -4 -12 3829.53  266.27   1-0.46138 0.69129 0.40876-0.67674-0.78742 0.25321
   1  -4 -12 4185.04 1052.40   1-0.77117 0.99846-0.25012-0.01841-0.58542 0.05231
   1  -4 -11  303.18   89.80   1-0.47113 0.69024 0.38530-0.65672-0.79345 0.30375
   1  -4 -11  487.01  150.78   1-0.77893 0.99580-0.24648-0.02543-0.57663 0.08794
   1  -4 -10 2444.77  152.98   1-0.48584 0.69427 0.35097-0.62589-0.80047 0.35530
   1  -4 -10 2670.65  671.92   1-0.78518 0.99163-0.24348-0.03180-0.56938 0.12513
   1  -4  -9   15.90   40.50   1-0.50335 0.70110 0.30708-0.58548-0.80767 0.40701
   1  -4  -9  -44.62   91.57   1-0.78967 0.98571-0.24129-0.03738-0.56408 0.16424
   1  -4  -8 4066.39  245.35   1-0.52291 0.70998 0.25324-0.53514-0.81389 0.45774
   1  -4  -8 3425.43  337.39   1-0.79207 0.97769-0.24010-0.04195-0.56121 0.20580
   1  -4  -760119.48 1283.76   1-0.54206 0.71809 0.19286-0.47806-0.81790 0.50575
   1  -4  -760738.05 1470.99   1-0.79186 0.96706-0.24021-0.04522-0.56147 0.25048
   1  -4  -5 6466.62  309.39   1-0.57831 0.73377 0.03959-0.33217-0.81485 0.59264
   1  -4  -5 6634.67  375.75   1-0.78002 0.93438-0.24596-0.04622-0.57538 0.35325
   1  -4  -449444.73 1045.44   1-0.59369 0.73858-0.04491-0.25107-0.80343 0.62566
   1  -4  -450115.32 1107.57   1-0.76513 0.90908-0.25289-0.04268-0.59212 0.41442
   1  -4  -3 2318.83  176.87   1-0.60437 0.73846-0.12936-0.16996-0.78612 0.65252
   1  -4  -3 1857.59  406.60   1-0.73995 0.87351-0.26364-0.03511-0.61883 0.48552
   1  -4  -2 4634.24  213.99   1-0.61083 0.73433-0.21461-0.08810-0.76211 0.67304
   1  -4  -2 4843.14  218.38   1-0.69831 0.82145-0.28010-0.02203-0.65871 0.56984
   1  -4  -1 4122.41  210.44   1-0.61261 0.72531-0.29580-0.01021-0.73294 0.68834
   1  -4  -1 4325.16  196.12   1-0.62742 0.74016-0.30404-0.00147-0.71686 0.67242
   1  -4   0   78.42   42.76   1-0.60982 0.71198-0.37290 0.06349-0.69932 0.69932
   1  -4   0   98.40   48.78   1-0.50024 0.60257-0.33710 0.02820-0.79756 0.79756
   1  -4   2108650.6 1173.08   1-0.59307 0.67389-0.50883 0.19270-0.62397 0.71325
   1  -4   293781.80  737.94   1 0.24731-0.16653-0.36960 0.05383-0.89567 0.98456
   1  -4   3  445.27  131.35   1-0.58041 0.65069-0.56787 0.24841-0.58364 0.71755
   1  -4   414406.52  473.34   1-0.56548 0.62413-0.61978 0.29730-0.54414 0.72253
   1  -4   5 2335.06  206.99   1-0.54892 0.59695-0.66781 0.34207-0.50269 0.72569
   1  -4   6 6031.90  353.40   1-0.52891 0.56678-0.71106 0.38164-0.46329 0.73013
   1  -4   746211.09 1132.36   1-0.50985 0.53712-0.74967 0.41691-0.42194 0.73326
   1  -4   8  -63.29  100.14   1-0.48985 0.50652-0.78422 0.44813-0.38083 0.73662
  -1   4  -8   17.79   16.79   1-0.84437 0.82543-0.21152 0.54766-0.49222 0.13682
   1  -4   916327.44  630.14   1-0.46852 0.47472-0.81551 0.47667-0.33972 0.73987
  -1   4  -916374.53  551.85   1-0.82921 0.82068-0.22040 0.55992-0.51364 0.11380
   1  -4  10  172.69  103.84   1-0.44700 0.44258-0.84300 0.50083-0.29922 0.74382
  -1   4 -10  254.77   57.11   1-0.81328 0.81517-0.22918 0.57208-0.53482 0.09057
   1  -4  11 2635.81  256.56   1-0.42486 0.40981-0.86740 0.52191-0.25903 0.74809
  -1   4 -11 2205.35  462.32   1-0.79655 0.80886-0.23786 0.58414-0.55580 0.06711
   1  -4  12   31.00  115.99   1-0.40214 0.37647-0.88896 0.54015-0.21913 0.75266
  -1   4 -12  179.05   74.24   1-0.77898 0.80171-0.24645 0.59612-0.57656 0.04345
   1  -4  13 3448.30  298.03   1-0.37801 0.34188-0.90833 0.55650-0.17896 0.75724
  -1   4 -13 2983.48  634.09   1-0.76055 0.79369-0.25495 0.60799-0.59712 0.01958
   1  -4  1410233.03  732.78   1-0.35420 0.30746-0.92470 0.56956-0.13951 0.76227
  -1   4 -14 9865.37  789.42   1-0.74193 0.78536-0.26281 0.61901-0.61681-0.00526
   1  -4  15  339.78  163.46   1-0.32987 0.27252-0.93868 0.58025-0.10024 0.76748
   1  -4  16 4787.89  371.28   1-0.30445 0.23621-0.95056 0.58859-0.06113 0.77314
  -1   4 -17  883.75  219.56   1 0.28521-0.20431 0.95814-0.59108 0.02458-0.78030
   1  -4  17  854.08  248.44   1-0.27905 0.20021-0.96002 0.59472-0.02208 0.77859
  -1   4 -18   92.89   84.84   1 0.25869-0.16713 0.96585-0.59536-0.01430-0.78587
   1  -4  18  -25.39  107.91   1-0.25308 0.16363-0.96729 0.59868 0.01692 0.78409
   1  -3 -19   -7.73  134.84   1-0.68095 0.97819-0.28640 0.11893-0.67399-0.17025
   1  -3 -18  130.12   86.30   1-0.69721 0.98404-0.28051 0.10965-0.65970-0.14011
   1  -3 -17 2015.11  640.52   1-0.71245 0.98887-0.27473 0.10050-0.64570-0.10967
   1  -3 -16 5194.57 1388.28   1-0.72666 0.99267-0.26911 0.09150-0.63208-0.07886
   1  -3 -1514593.67 1671.05   1-0.73983 0.99543-0.26369 0.08270-0.61895-0.04755
   1  -3 -14 2141.39  570.48   1-0.75187 0.99711-0.25878 0.07428-0.60639-0.01556
   1  -3 -13   33.49  135.12   1-0.76284 0.99767-0.25392 0.06604-0.59463 0.01709
   1  -3 -12 3123.37  231.94   1-0.35643 0.58265 0.60142-0.79231-0.71501 0.18100
   1  -3 -12 3635.75  986.35   1-0.77260 0.99701-0.24945 0.05819-0.58382 0.05071
   1  -3 -1121500.66  683.96   1-0.36854 0.58408 0.58262-0.77696-0.72437 0.23485
   1  -3 -1126302.28 1002.77   1-0.78104 0.99503-0.24547 0.05083-0.57420 0.08551
   1  -3 -10 1991.92  131.19   1-0.38630 0.59116 0.55381-0.75160-0.73760 0.29259
   1  -3 -10 2212.04  619.34   1-0.78799 0.99157-0.24211 0.04409-0.56607 0.12181
   1  -3  -9 3740.10  217.25   1-0.40821 0.60340 0.51350-0.71449-0.75476 0.35410
   1  -3  -9 3857.20  438.67   1-0.79322 0.98637-0.23953 0.03813-0.55984 0.16000
   1  -3  -844084.65  953.86   1-0.43797 0.62243 0.45732-0.66180-0.77397 0.41783
   1  -3  -848057.14 1217.70   1-0.79636 0.97910-0.23796 0.03318-0.55603 0.20063
   1  -3  -757244.66 1149.75   1-0.47106 0.64479 0.38546-0.59339-0.79341 0.48179
   1  -3  -759975.08 1377.51   1-0.79690 0.96922-0.23769 0.02953-0.55538 0.24440
   1  -3  -6 2280.32  144.39   1-0.50857 0.67162 0.29324-0.50466-0.80954 0.54243
   1  -3  -6 2482.26  472.95   1-0.79401 0.95591-0.23914 0.02759-0.55888 0.29233
   1  -3  -520827.51  798.31   1-0.54378 0.69590 0.18715-0.40192-0.81808 0.59512
   1  -3  -520799.12  605.91   1-0.78638 0.93787-0.24290 0.02798-0.56797 0.34584
   1  -3  -4 1051.77   85.88   1-0.57293 0.71494 0.06453-0.28311-0.81705 0.63929
   1  -3  -4 1070.98  277.37   1-0.77180 0.91287-0.24983 0.03152-0.58472 0.40702
   1  -3  -314913.59  405.15   1-0.59632 0.72776-0.06235-0.15964-0.80031 0.66699
   1  -3  -314930.97  497.30   1-0.74618 0.87684-0.26100 0.03946-0.61244 0.47914
   1  -3  -217225.16  460.32   1-0.60904 0.72972-0.18381-0.04153-0.77154 0.68247
   1  -3  -217636.15  482.95   1-0.70213 0.82238-0.27867 0.05376-0.65524 0.56638
   1  -3  -181835.11  809.34   1-0.61260 0.72254-0.29675 0.06808-0.73256 0.68796
   1  -3  -182851.36  783.69   1-0.62396 0.73381-0.30510 0.07680-0.71942 0.67499
   1  -3   0 5579.97  210.73   1-0.60796 0.70735-0.39770 0.16564-0.68717 0.68717
   1  -3   0 5781.43  187.82   1-0.47219 0.57221-0.34139 0.10998-0.81269 0.81269
   1  -3   1  241.18  103.78   1-0.59722 0.68589-0.48472 0.24928-0.63903 0.68367
   1  -3   293477.04  961.77   1-0.58236 0.66049-0.55982 0.32105-0.58945 0.67872
   1  -3   279082.61  630.92   1 0.35115-0.27335-0.35635 0.11783-0.86585 0.95466
   1  -3   397336.07 1018.06   1-0.56459 0.63132-0.62264 0.38078-0.54180 0.67559
   1  -3   4 5878.45  268.37   1-0.54504 0.60114-0.67780 0.43268-0.49346 0.67186
   1  -3   552510.09  745.66   1-0.52223 0.56812-0.72532 0.47659-0.44852 0.67089
   1  -3   6219674.9 1371.45   1-0.50066 0.53594-0.76622 0.51415-0.40278 0.66963
   1  -3   7 4958.82  294.90   1-0.47849 0.50317-0.80164 0.54624-0.35833 0.66964
   1  -3   811836.21  621.33   1-0.45539 0.46945-0.83277 0.57448-0.31481 0.67050
   1  -3   924110.86  706.20   1-0.43241 0.43586-0.85948 0.59787-0.27258 0.67273
  -1   3  -925494.58  645.30   1-0.90809 0.90278-0.16702 0.42978-0.38401-0.01653
   1  -3  10 2056.94  193.62   1-0.40914 0.40196-0.88267 0.61773-0.23128 0.67588
  -1   3 -10 2129.85  468.89   1-0.88821 0.89330-0.18261 0.44882-0.42158-0.02347
   1  -3  1129115.61  997.99   1-0.38469 0.36702-0.90323 0.63522-0.19023 0.67954
  -1   3 -1128905.15  955.55   1-0.86851 0.88402-0.19649 0.46615-0.45504-0.03451
   1  -3  12 6410.84  387.80   1-0.36080 0.33252-0.92044 0.64914-0.15034 0.68413
  -1   3 -12 7070.08  518.81   1-0.85003 0.87563-0.20806 0.48045-0.48388-0.04922
   1  -3  13 1294.94  209.11   1-0.33661 0.29772-0.93507 0.66047-0.11102 0.68930
  -1   3 -13 1202.56  288.14   1-0.83003 0.86605-0.21993 0.49570-0.51251-0.06502
   1  -3  14   29.24  102.09   1-0.31210 0.26261-0.94730 0.66939-0.07218 0.69494
  -1   3 -14  155.27  108.83   1-0.80961 0.85604-0.23113 0.51028-0.53954-0.08242
  -1   3 -1515259.63 1019.15   1 0.29311-0.23122 0.95538-0.67238 0.03634-0.70315
   1  -3  1517065.51 1091.09   1-0.28671 0.22642-0.95742 0.67597-0.03376 0.70127
  -1   3 -1518140.04 1189.12   1-0.78864 0.84549-0.24180 0.52432-0.56531-0.10107
  -1   3 -16 2610.88  555.88   1 0.26734-0.19480 0.96359-0.67717-0.00170-0.70956
   1  -3  16 2840.91  317.12   1-0.26147 0.19057-0.96520 0.68043 0.00441 0.70759
  -1   3 -16 2461.20  623.90   1-0.76701 0.83428-0.25203 0.53794-0.59005-0.12075
  -1   3 -17  911.08  267.51   1 0.24112-0.15792 0.96968-0.67984-0.03957-0.71615
   1  -3  17  918.41  244.08   1-0.23581 0.15431-0.97087 0.68278 0.04237 0.71414
  -1   3 -17  761.28  230.46   1-0.74509 0.82264-0.26146 0.55058-0.61356-0.14181
  -1   3 -18  112.03   91.76   1 0.21439-0.12054 0.97368-0.68041-0.07733-0.72284
   1  -3  18  181.70  104.42   1-0.20912 0.11720-0.97461 0.68361 0.07993 0.72036
  -1   3 -19   59.19   47.03   1 0.18641-0.08279 0.97584-0.67817-0.11388-0.73022
   1  -3  19  319.39  174.01   1-0.18250 0.07998-0.97613 0.68185 0.11765 0.72710
   1  -2 -19  267.65  202.35   1-0.67199 0.96634-0.28954 0.19929-0.68160-0.16264
   1  -2 -18   50.92   71.10   1-0.68884 0.97278-0.28357 0.18995-0.66714-0.13267
   1  -2 -17 2327.30  535.55   1-0.70465 0.97818-0.27772 0.18071-0.65294-0.10243
   1  -2 -16 1590.08  465.41   1-0.71941 0.98253-0.27201 0.17162-0.63909-0.07184
   1  -2 -15  156.04  107.81   1-0.73311 0.98582-0.26648 0.16272-0.62571-0.04079
   1  -2 -14   74.19   83.27   1-0.74571 0.98801-0.26120 0.15405-0.61292-0.00915
   1  -2 -13 2800.94  208.58   1-0.20693 0.44188 0.78688-0.89706-0.58136 0.00302
   1  -2 -13 4083.12  938.13   1-0.75707 0.98902-0.25650 0.14589-0.60087 0.02333
   1  -2 -12 6764.64  290.77   1-0.20587 0.43011 0.78794-0.90157-0.58031 0.04645
   1  -2 -12 8241.29  868.06   1-0.76728 0.98882-0.25191 0.13792-0.58975 0.05664
   1  -2 -11  -25.10   43.30   1-0.21011 0.42365 0.78372-0.90081-0.58449 0.09512
   1  -2 -11   55.52   82.95   1-0.77614 0.98725-0.24780 0.13043-0.57982 0.09114
   1  -2 -1014665.90  455.87   1-0.22102 0.42387 0.77262-0.89317-0.59514 0.15026
   1  -2 -1017161.48  796.54   1-0.78345 0.98415-0.24432 0.12357-0.57140 0.12714
   1  -2  -9 5363.28  280.43   1-0.24047 0.43261 0.75196-0.87596-0.61377 0.21338
   1  -2  -9 6233.94  418.57   1-0.78896 0.97925-0.24164 0.11751-0.56492 0.16508
   1  -2  -8 4142.15  200.84   1-0.27083 0.45228 0.71729-0.84475-0.64197 0.28607
   1  -2  -8 4501.93  455.19   1-0.79229 0.97216-0.23999 0.11249-0.56095 0.20554
   1  -2  -721849.36  481.69   1-0.31308 0.48355 0.66346-0.79417-0.67955 0.36804
   1  -2  -724782.66  681.48   1-0.79283 0.96228-0.23973 0.10884-0.56030 0.24932
   1  -2  -619682.94  742.51   1-0.37268 0.53248 0.57604-0.71020-0.72751 0.46050
   1  -2  -620790.20  698.91   1-0.78965 0.94868-0.24130 0.10703-0.56410 0.29755
   1  -2  -516109.39  399.84   1-0.44420 0.59394 0.44481-0.58229-0.77770 0.55511
   1  -2  -517073.94  514.76   1-0.78120 0.92981-0.24540 0.10775-0.57401 0.35188
   1  -2  -429006.61  327.03   1-0.51945 0.65847 0.26319-0.40414-0.81295 0.63488
   1  -2  -431188.79  490.51   1-0.76479 0.90299-0.25304 0.11201-0.59250 0.41479
   1  -2  -3 6903.51  198.18   1-0.57638 0.70495 0.04873-0.19332-0.81572 0.68239
   1  -2  -3 7396.12  258.07   1-0.73538 0.86316-0.26554 0.12123-0.62344 0.49014
   1  -2  -237567.46  394.31   1-0.60755 0.72542-0.16389 0.01592-0.77718 0.68811
   1  -2  -237766.47  478.57   1-0.68310 0.80047-0.28563 0.13794-0.67214 0.58327
   1  -2  -122550.92  294.70   1-0.61143 0.71860-0.34308 0.19177-0.71305 0.66845
   1  -2  -122734.60  854.52   1-0.58659 0.69354-0.31589 0.16482-0.74573 0.70129
   1  -2   093234.73  826.08   1-0.59790 0.69442-0.48040 0.32566-0.64165 0.64165
   1  -2   093763.38  786.16   1-0.39436 0.49133-0.35549 0.20121-0.84740 0.84740
   1  -2   225454.81  373.75   1-0.55169 0.62651-0.66041 0.49918-0.50938 0.59858
  -1   2  -224820.45  259.01   1 0.00676-0.08178-0.38333 0.54460-0.92358 0.83469
   1  -2   221067.13  232.22   1 0.50395-0.42887-0.32728 0.16564-0.79931 0.88804
   1  -2   332892.58  464.36   1-0.52422 0.58872-0.72117 0.55646-0.45288 0.58630
   1  -2   493970.75  954.75   1-0.49886 0.55276-0.76932 0.60127-0.39909 0.57698
   1  -2   525955.78  444.80   1-0.47385 0.51715-0.80836 0.63697-0.34930 0.57167
   1  -2   6178160.1 1636.76   1-0.44881 0.48137-0.84083 0.66643-0.30257 0.56933
   1  -2   710430.12  358.11   1-0.42455 0.44648-0.86772 0.68999-0.25847 0.56970
   1  -2   841320.91  968.25   1-0.40055 0.41186-0.89035 0.70929-0.21638 0.57206
   1  -2   9  337.55  102.98   1-0.37583 0.37663-0.90994 0.72578-0.17532 0.57566
   1  -2  10 8895.19  503.22   1-0.35206 0.34224-0.92604 0.73857-0.13601 0.58084
   1  -2  11 4411.76  271.35   1-0.32829 0.30786-0.93950 0.74873-0.09772 0.58703
  -1   2 -11 4708.05  423.34   1-0.90878 0.92724-0.16644 0.35886-0.38262-0.10693
   1  -2  12  -93.41   94.36   1-0.30396 0.27282-0.95076 0.75649-0.06037 0.59437
  -1   2 -12   58.38   38.39   1-0.89002 0.91889-0.18126 0.37713-0.41832-0.11574
  -1   2 -13 2037.59  399.89   1 0.28627-0.24339 0.95779-0.75885 0.02615-0.60406
   1  -2  13 1947.01  227.33   1-0.27998 0.23824-0.95971 0.76211-0.02350 0.60201
  -1   2 -13 2134.97  526.33   1-0.87086 0.91014-0.19491 0.39422-0.45122-0.12734
  -1   2 -14 3343.42  594.47   1 0.26159-0.20806 0.96512-0.76277-0.01008-0.61228
   1  -2  14 3532.70  291.14   1-0.25581 0.20346-0.96664 0.76571 0.01286 0.61014
  -1   2 -14 3612.83  911.05   1-0.85240 0.90171-0.20659 0.40846-0.48033-0.14163
  -1   2 -15 8190.99 1182.97   1 0.23663-0.17244 0.97051-0.76473-0.04597-0.62083
   1  -2  15 8740.28  408.98   1-0.23138 0.16843-0.97163 0.76738 0.04884 0.61866
  -1   2 -15 8018.44  592.14   1-0.83227 0.89200-0.21865 0.42390-0.50942-0.15696
  -1   2 -16 2138.70  533.00   1 0.21066-0.13647 0.97424-0.76419-0.08043-0.63038
   1  -2  16 2368.49  307.07   1-0.20593 0.13253-0.97491 0.76776 0.08450 0.62687
  -1   2 -16 2570.13  612.91   1-0.81151 0.88165-0.23012 0.43876-0.53711-0.17369
  -1   2 -17  382.92  128.27   1 0.18494-0.10010 0.97589-0.76235-0.11588-0.63936
   1  -2  17  430.29  158.82   1-0.18083 0.09684-0.97616 0.76573 0.12001 0.63582
  -1   2 -17  520.67  161.92   1-0.79005 0.87061-0.24110 0.45312-0.56363-0.19160
  -1   2 -18  122.66   73.95   1 0.15876-0.06327 0.97566-0.75864-0.15125-0.64842
  -1   2 -18  149.96  128.20   1-0.76782 0.85880-0.25166 0.46705-0.58916-0.21050
  -1   2 -19   -8.15   95.78   1 0.13205-0.02592 0.97351-0.75302-0.18661-0.65748
  -1   2 -19   64.19   78.87   1-0.74507 0.84633-0.26147 0.48012-0.61359-0.23065
   1  -1 -19    0.48   63.64   1-0.65624 0.94770-0.29486 0.28184-0.69454-0.14970
   1  -1 -18   90.44   92.47   1-0.67362 0.95467-0.28897 0.27257-0.68024-0.11957
   1  -1 -17 8863.28  893.80   1-0.68990 0.96055-0.28319 0.26340-0.66620-0.08917
   1  -1 -16 4600.87 1019.54   1-0.70510 0.96533-0.27755 0.25439-0.65253-0.05841
   1  -1 -15  120.52  139.09   1-0.71917 0.96899-0.27210 0.24556-0.63933-0.02718
   1  -1 -14 2224.69  173.40   1-0.06180 0.30436 0.90270-0.93198-0.42580-0.19689
   1  -1 -14 2920.69  659.94   1-0.73208 0.97150-0.26691 0.23699-0.62674 0.00466
   1  -1 -13 2002.77  217.62   1-0.04439 0.27630 0.91280-0.94551-0.40598-0.17223
   1  -1 -13 2767.90  831.89   1-0.74377 0.97277-0.26203 0.22873-0.61493 0.03728
   1  -1 -1224377.98  779.17   1-0.02915 0.25040 0.92102-0.95717-0.38840-0.14533
   1  -1 -1231069.93 1135.26   1-0.75398 0.97264-0.25786 0.22115-0.60416 0.07104
   1  -1 -1112290.74  415.40   1-0.01653 0.22712 0.92741-0.96698-0.37367-0.11558
   1  -1 -1115968.31  645.86   1-0.76286 0.97111-0.25391 0.21382-0.59460 0.10592
   1  -1 -10 2677.63  172.36   1-0.00725 0.20719 0.93185-0.97485-0.36275-0.08202
   1  -1 -10 3431.75  714.44   1-0.77005 0.96788-0.25063 0.20716-0.58667 0.14241
   1  -1  -9 1295.58  244.30   1-0.00248 0.19175 0.93405-0.98049-0.35710-0.04319
   1  -1  -9 2073.94  690.14   1-0.77523 0.96263-0.24823 0.20138-0.58085 0.18102
   1  -1  -8120326.9 1114.92   1-0.77790 0.95489-0.24697 0.19673-0.57781 0.22240
   1  -1  -7 4093.52  210.13   1-0.01587 0.18383 0.92773-0.98102-0.37289 0.06154
   1  -1  -7 3735.79  435.98   1-0.77732 0.94390-0.24724 0.19363-0.57847 0.26748
   1  -1  -638002.47  398.08   1-0.04443 0.20173 0.91278-0.96950-0.40602 0.13915
   1  -1  -644620.09  658.83   1-0.77229 0.92844-0.24960 0.19261-0.58417 0.31762
   1  -1  -517400.71  412.44   1-0.10621 0.25315 0.87348-0.93378-0.47512 0.25289
   1  -1  -518923.25  547.79   1-0.76073 0.90647-0.25487 0.19450-0.59692 0.37479
   1  -1  -4153118.9 1121.27   1-0.22678 0.36301 0.76663-0.83036-0.60070 0.42275
   1  -1  -4173625.8 1525.58   1-0.73905 0.87435-0.26402 0.20031-0.61975 0.44201
   1  -1  -3999998.635734.79   1-0.69998 0.82487-0.27948 0.21239-0.65720 0.52389
  -1   1   211315.29  258.24   1-0.44596 0.33093 0.44122-0.37073-0.77874 0.86777
   1  -1  -212098.41  275.99   1-0.61123 0.72629-0.22355 0.15296-0.75921 0.67014
   1  -1  -212817.84  349.98   1-0.62899 0.74348-0.30356 0.23309-0.71568 0.62681
  -1   1   1   20.09   13.79   1-0.61257 0.50817-0.29960 0.37356-0.73142 0.77602
   1  -1  -1   10.60   24.40   1-0.49428 0.59835-0.33839 0.26455-0.80073 0.75630
  -1   1   067632.68  566.00   1-0.57233 0.47881-0.59663 0.67400-0.56255 0.56255
   1  -1   068672.68  574.74   1-0.52134 0.61506-0.72716 0.64981-0.44658 0.44658
   1  -1   069052.93  595.12   1-0.23003 0.32366-0.37437 0.29717-0.89829 0.89829
   1  -1   174822.28  652.33   1-0.48287 0.56599-0.79510 0.71441-0.36693 0.41140
  -1   1  -173663.36  608.09   1 0.02969-0.11262-0.38311 0.46375-0.92322 0.87877
   1  -1   170299.03  585.39   1 0.21387-0.13087-0.37273 0.29206-0.90295 0.94740
   1  -1   240279.12  440.04   1-0.45203 0.52433-0.83693 0.75305-0.30854 0.39746
   1  -1   3381298.113652.32   1-0.42560 0.48727-0.86664 0.77943-0.26036 0.39374
   1  -1   411598.85  340.43   1-0.40160 0.45265-0.88944 0.79891-0.21819 0.39603
   1  -1   5   -2.24   58.19   1-0.37820 0.41867-0.90819 0.81445-0.17929 0.40170
   1  -1   6198216.7 1707.59   1-0.35637 0.38623-0.92332 0.82629-0.14306 0.40995
   1  -1   7 5053.36  249.52   1-0.33499 0.35425-0.93595 0.83562-0.10843 0.41981
   1  -1   840592.10  922.24   1-0.31384 0.32248-0.94651 0.84287-0.07490 0.43076
   1  -1   9  648.31  109.64   1-0.29232 0.29033-0.95538 0.84827-0.04236 0.44287
  -1   1 -10 3149.95  611.10   1 0.27713-0.26392 0.96074-0.84930 0.01264-0.45719
   1  -1  10 3086.96  236.42   1-0.27115 0.25856-0.96248 0.85204-0.01013 0.45514
  -1   1 -1112985.87  493.81   1 0.25541-0.23154 0.96664-0.85178-0.01904-0.46995
   1  -1  1113524.12  514.80   1-0.24984 0.22664-0.96804 0.85428 0.02172 0.46778
  -1   1 -1216592.09  866.28   1 0.23342-0.19890 0.97106-0.85277-0.05053-0.48291
   1  -1  1217724.33  643.13   1-0.22830 0.19450-0.97212 0.85504 0.05332 0.48068
  -1   1 -1220073.11  728.62   1-0.91418 0.94600-0.16185 0.28047-0.37157-0.16249
  -1   1 -13   -7.89   82.72   1 0.21052-0.16576 0.97425-0.85182-0.08063-0.49690
   1  -1  13  167.16  145.58   1-0.20559 0.16133-0.97494 0.85493 0.08497 0.49301
  -1   1 -13   -7.42   90.31   1-0.89655 0.93878-0.17629 0.29836-0.40634-0.17223
  -1   1 -14   16.06   30.75   1 0.18784-0.13244 0.97580-0.84988-0.11192-0.51005
   1  -1  14   67.57  104.85   1-0.18345 0.12858-0.97612 0.85282 0.11633 0.50611
  -1   1 -14   92.78   67.10   1-0.87829 0.93093-0.18978 0.31530-0.43884-0.18423
  -1   1 -15 1618.45  412.45   1 0.16475-0.09870 0.97588-0.84648-0.14321-0.52318
   1  -1  15 1977.44  226.00   1-0.16092 0.09546-0.97585 0.84927 0.14766 0.51924
  -1   1 -15 1838.98  467.43   1-0.85938 0.92244-0.20249 0.33146-0.46952-0.19806
  -1   1 -16 1813.14  410.19   1 0.14120-0.06451 0.97446-0.84158-0.17457-0.53625
  -1   1 -16 1961.13  536.78   1-0.84096 0.91398-0.21356 0.34492-0.49715-0.21366
  -1   1 -17 9564.76  465.60   1 0.11715-0.02981 0.97150-0.83514-0.20603-0.54921
  -1   1 -1711019.49  795.69   1-0.82072 0.90416-0.22514 0.35988-0.52508-0.23015
  -1   1 -18  148.72  107.55   1 0.09370 0.00469 0.96678-0.82715-0.23779-0.56195
  -1   1 -18  145.58  110.32   1-0.79971 0.89356-0.23626 0.37438-0.55193-0.24772
  -1   1 -19  -39.62   83.15   1 0.06850 0.04054 0.96053-0.81743-0.26959-0.57458
  -1   1 -19  -61.38  101.69   1-0.77788 0.88215-0.24698 0.38848-0.57784-0.26625
  -1   1 -20  547.41  179.42   1-0.75516 0.86985-0.25734 0.40222-0.60290-0.28560
   1   0 -19  289.30  124.35   1-0.63247 0.92105-0.30249 0.36668-0.71307-0.13117
   1   0 -18   70.62   76.44   1-0.65026 0.92843-0.29683 0.35765-0.69931-0.10049
   1   0 -17  323.10  120.62   1-0.66688 0.93463-0.29129 0.34873-0.68586-0.06951
   1   0 -16  727.47  204.82   1-0.68231 0.93965-0.28592 0.33998-0.67282-0.03811
   1   0 -15  752.98  224.97   1 0.05399 0.19694 0.95621-0.90426-0.28763-0.37882
   1   0 -15 1262.53  306.47   1-0.69651 0.94345-0.28077 0.33145-0.66032-0.00618
   1   0 -14 1517.61  329.56   1 0.08216 0.15811 0.96412-0.91563-0.25242-0.36960
   1   0 -14 2235.75  568.01   1-0.70943 0.94595-0.27590 0.32320-0.64852 0.02644
   1   0 -13  363.05  104.53   1 0.11005 0.11957 0.96998-0.92496-0.21684-0.36075
   1   0 -13  484.32  146.57   1-0.72097 0.94708-0.27139 0.31532-0.63760 0.05995
   1   0 -12 1854.06  383.72   1 0.13651 0.08232 0.97400-0.93223-0.18075-0.35236
   1   0 -12 2512.74  624.22   1-0.73099 0.94670-0.26735 0.30790-0.62782 0.09461
   1   0 -11  887.15  149.33   1 0.16440 0.04379 0.97587-0.93757-0.14368-0.34500
   1   0 -11  908.25  278.25   1-0.73930 0.94459-0.26391 0.30108-0.61949 0.13072
   1   0 -1010582.30  524.54   1 0.19268 0.00487 0.97559-0.94078-0.10529-0.33897
   1   0 -1012007.96  671.43   1-0.74558 0.94046-0.26125 0.29504-0.61305 0.16871
   1   0  -941255.63  929.63   1 0.22239-0.03547 0.97271-0.94191-0.06611-0.33397
  -1   0   944060.34  974.33   1-0.21404 0.02785-0.97410 0.94451 0.07287 0.32727
   1   0  -951146.63 1237.38   1-0.74940 0.93387-0.25961 0.29002-0.60908 0.20917
   1   0  -8  132.79   36.09   1 0.25281-0.07654 0.96724-0.93987-0.02279-0.33284
  -1   0   8   66.92   43.89   1-0.24480 0.06917-0.96913 0.94254 0.02917 0.32682
   1   0  -8  142.49   65.86   1-0.75008 0.92414-0.25932 0.28635-0.60837 0.25290
   1   0  -7  326.38   64.90   1 0.28560-0.11999 0.95801-0.93406 0.02516-0.33634
  -1   0   7  293.57   57.58   1-0.27619 0.11116-0.96093 0.93767-0.01774 0.32924
   1   0  -7  232.25   81.05   1-0.74653 0.91018-0.26085 0.28450-0.61208 0.30104
  -1   0   6  439.27   55.88   1-0.31138 0.15696-0.94755 0.92761-0.07194 0.33895
   1   0  -6  463.46  140.75   1-0.73697 0.89021-0.26488 0.28516-0.62184 0.35524
  -1   0   5 1534.21   82.77   1-0.35402 0.21021-0.92481 0.90831-0.13921 0.36162
   1   0  -5 1701.76  237.16   1-0.71832 0.86115-0.27244 0.28933-0.64014 0.41797
  -1   0   4  135.81   31.93   1-0.41100 0.27772-0.88094 0.86764-0.23453 0.41238
   1   0  -4  261.88   61.90   1-0.68487 0.81728-0.28501 0.29852-0.67061 0.49287
   1   0  -3572148.520429.84   1-0.61120 0.73394-0.34820 0.35837-0.71076 0.57697
  -1   0   3528743.318880.27   1-0.49450 0.37155-0.77666 0.76665-0.39020 0.52362
   1   0  -3581204.020785.54   1-0.62536 0.74736-0.30467 0.31481-0.71839 0.58509
   1   0  -268453.97  516.16   1-0.56484 0.67709 0.11078-0.10379-0.81772 0.72854
  -1   0   267443.32  510.01   1-0.60602 0.49381-0.41695 0.41030-0.67740 0.76668
   1   0  -269696.96  648.95   1-0.51649 0.62808-0.33347 0.34023-0.78868 0.69981
   1   0  -138744.23  310.39   1-0.22886 0.33059 0.76444-0.76098-0.60270 0.55821
  -1   0   139291.20  314.24   1-0.40854 0.30678 0.51291-0.51640-0.75499 0.79950
   1   0  -142161.44  418.90   1-0.31129 0.41267-0.36584 0.36928-0.87707 0.83266
  -1   0  -2 2069.42  249.39   1 0.17323-0.24305 0.97602-0.96906-0.13179 0.04293
   1   0   2 2038.14   86.98   1-0.17101 0.24064-0.97615 0.96958 0.13370-0.04478
  -1   0  -323690.54  318.32   1 0.20144-0.26062 0.97505-0.96460-0.09323-0.04004
   1   0   324502.88  341.49   1-0.19808 0.25712-0.97550 0.96564 0.09567 0.03770
  -1   0  -442353.84  484.91   1 0.21312-0.26154 0.97381-0.96012-0.07910-0.09871
   1   0   444297.30  503.61   1-0.20855 0.25699-0.97467 0.96152 0.08074 0.09709
  -1   0  -530654.10  427.35   1 0.21493-0.25270 0.97362-0.95651-0.07657-0.14569
   1   0   534483.03  459.24   1-0.21000 0.24784-0.97453 0.95809 0.07868 0.14362
  -1   0  -6111832.6 1067.21   1 0.21050-0.23774 0.97426-0.95337-0.08066-0.18589
   1   0   6118818.7 1134.57   1-0.20595 0.23320-0.97490 0.95518 0.08446 0.18230
  -1   0  -750730.46 1930.33   1 0.20282-0.21942 0.97494-0.95057-0.09132-0.21966
  -1   0  -827216.40  686.60   1 0.19244-0.19839 0.97560-0.94775-0.10562-0.24978
   1   0   828509.52  709.42   1-0.18802 0.19407-0.97599 0.94969 0.10991 0.24577
  -1   0  -948609.30 1150.85   1 0.18002-0.17533 0.97599-0.94466-0.12258-0.27725
   1   0   953109.87 1179.93   1-0.17581 0.17126-0.97619 0.94661 0.12702 0.27312
  -1   0 -10 6031.84  607.73   1 0.16598-0.15065 0.97591-0.94110-0.14156-0.30270
   1   0  10 6683.89  387.58   1-0.16205 0.14691-0.97590 0.94303 0.14611 0.29850
  -1   0 -11  836.35  187.01   1 0.15061-0.12463 0.97520-0.93691-0.16211-0.32657
  -1   0 -1226739.97 1002.00   1 0.13409-0.09747 0.97374-0.93197-0.18394-0.34917
  -1   0 -13  986.71  379.54   1 0.11654-0.06928 0.97141-0.92615-0.20682-0.37072
  -1   0 -13 1350.74  333.00   1-0.91171 0.95689-0.16397 0.20880-0.37668-0.20188
  -1   0 -14 6063.06  689.11   1 0.09908-0.04106 0.96791-0.91942-0.23092-0.39110
  -1   0 -14 7230.98  832.64   1-0.89485 0.95045-0.17760 0.22587-0.40949-0.21358
  -1   0 -15 9632.79  516.96   1 0.07975-0.01107 0.96352-0.91157-0.25547-0.41098
  -1   0 -1511547.17  828.35   1-0.87728 0.94328-0.19049 0.24221-0.44055-0.22702
  -1   0 -16   81.61   50.08   1 0.05957 0.01975 0.95793-0.90252-0.28071-0.43017
  -1   0 -16   65.77   75.63   1-0.85896 0.93538-0.20276 0.25794-0.47017-0.24191
  -1   0 -17 3517.01  776.27   1 0.03857 0.05141 0.95105-0.89218-0.30659-0.44873
  -1   0 -17 4891.67 1160.84   1-0.84100 0.92731-0.21354 0.27100-0.49709-0.25814
  -1   0 -18   45.08   62.74   1 0.01674 0.08389 0.94276-0.88042-0.33304-0.46670
  -1   0 -18  124.83  111.12   1-0.82121 0.91794-0.22487 0.28572-0.52444-0.27522
  -1   0 -19   34.65   93.41   1-0.00601 0.11747 0.93243-0.86725-0.36128-0.48379
  -1   0 -19   56.83   91.39   1-0.80059 0.90773-0.23581 0.30004-0.55085-0.29323
  -1   0 -20 1601.42  439.20   1-0.77910 0.89666-0.24640 0.31401-0.57644-0.31207
   1   1 -19  877.21  235.79   1-0.59893 0.88462-0.31245 0.45387-0.73732-0.10692
   1   1 -18 1280.98  293.42   1-0.61695 0.89223-0.30720 0.44525-0.72455-0.07525
   1   1 -17 3373.34  947.15   1-0.63365 0.89852-0.30212 0.43678-0.71217-0.04320
   1   1 -16   21.98   42.20   1 0.13389 0.12502 0.97372-0.84085-0.18419-0.52663
   1   1 -16  -76.30  107.44   1-0.64900 0.90346-0.29723 0.42852-0.70031-0.01063
   1   1 -15  428.63  144.63   1 0.16690 0.08137 0.97593-0.84654-0.14032-0.52606
  -1  -1  15  393.21  134.40   1-0.16219-0.08491-0.97590 0.84932 0.14592 0.52099
   1   1 -15  594.67  139.85   1-0.66294 0.90699-0.29262 0.42053-0.68910 0.02259
   1   1 -1410846.81 1015.65   1 0.19992 0.03771 0.97516-0.84924-0.09532-0.52664
  -1  -1  1413178.51  424.80   1-0.19408-0.04242-0.97573 0.85243 0.10135 0.52110
   1   1 -1414987.17  665.53   1-0.67537 0.90901-0.28836 0.41289-0.67875 0.05667
   1   1 -13  505.35  123.61   1 0.23378-0.00654 0.97100-0.84929-0.05002-0.52788
  -1  -1  13  302.14   94.92   1-0.22731 0.00132-0.97228 0.85187 0.05477 0.52373
   1   1 -13  604.43  198.04   1-0.68615 0.90937-0.28454 0.40569-0.66949 0.09185
   1   1 -12 1037.01  185.11   1 0.26744-0.05085 0.96357-0.84528-0.00156-0.53188
  -1  -1  12 1348.98  155.35   1-0.25992 0.04453-0.96560 0.84852 0.00673 0.52727
   1   1 -12 1334.96  375.33   1-0.69506 0.90788-0.28130 0.39907-0.66162 0.12841
  -1  -1  1118462.49  612.69   1-0.29326 0.08847-0.95502 0.84127-0.04381 0.53332
   1   1 -1120971.67  759.59   1-0.70180 0.90420-0.27879 0.39319-0.65554 0.16677
  -1  -1  1022287.64  599.53   1-0.32824 0.13415-0.93953 0.82929-0.09764 0.54247
   1   1 -1025226.35  734.32   1-0.70590 0.89789-0.27725 0.38826-0.65179 0.20745
  -1  -1   916159.37  463.59   1-0.36400 0.18051-0.91830 0.81136-0.15561 0.55596
   1   1  -917240.77  529.36   1-0.70667 0.88825-0.27695 0.38458-0.65107 0.25117
  -1  -1   829373.53  685.20   1-0.40275 0.22973-0.88843 0.78460-0.22017 0.57586
   1   1  -832427.20  799.32   1-0.70305 0.87422-0.27832 0.38258-0.65440 0.29893
  -1  -1   7  393.96   67.15   1-0.44231 0.27992-0.84847 0.74797-0.29058 0.60180
   1   1  -7  483.64  145.05   1-0.69330 0.85406-0.28195 0.38282-0.66319 0.35215
  -1  -1   628105.67  413.04   1-0.48489 0.33273-0.79201 0.69464-0.37093 0.63777
   1   1  -630487.97  487.42   1-0.67452 0.82487-0.28866 0.38616-0.67947 0.41287
  -1  -1   550753.48  562.67   1-0.52811 0.38655-0.71282 0.61878-0.46150 0.68386
   1   1  -555509.25  650.36   1-0.64156 0.78150-0.29963 0.39375-0.70612 0.48395
  -1  -1   3260515.7 1946.31   1-0.60520 0.48522-0.42633 0.33880-0.67228 0.80607
   1   1  -3267639.4 2035.80   1-0.48548 0.60460-0.34026 0.42762-0.80531 0.67200
  -1  -1   2275552.4 2023.55   1-0.60910 0.49967-0.18466 0.10050-0.77129 0.86036
   1   1  -2274835.6 2032.30   1-0.30916 0.41829-0.36610 0.45017-0.87771 0.78890
  -1  -1   161991.18  557.48   1-0.56175 0.46279 0.12289-0.20380-0.81812 0.86271
   1   1  -158276.21  522.33   1-0.01057 0.10934-0.38343 0.46403-0.92350 0.87904
  -1  -1   0 4249.34  138.19   1-0.45251 0.36401 0.42766-0.50513-0.78251 0.78251
  -1  -1   0 3946.53  125.42   1 0.24635-0.33439-0.36970 0.29248-0.89589 0.89589
   1   1   0 3643.37  119.08   1 0.38598-0.29798-0.35097 0.42822-0.85313 0.85313
  -1  -1  -1155796.2 1208.70   1-0.31864 0.24067 0.65592-0.72991-0.68426 0.63976
  -1  -1  -2134987.9 1087.38   1-0.20120 0.13389 0.79365-0.86406-0.57412 0.48523
  -1  -1  -3337488.612082.76   1-0.11395 0.05734 0.86787-0.93492-0.48352 0.35019
  -1  -1  -417779.39  459.01   1-0.05375 0.00769 0.90746-0.97104-0.41667 0.23876
  -1  -1  -5   -5.22   39.92   1-0.01427-0.02113 0.92851-0.98866-0.37102 0.14863
  -1  -1  -6150275.6 1339.44   1 0.01033-0.03529 0.94010-0.99662-0.34072 0.07414
  -1  -1  -731264.27  474.22   1 0.02515-0.03945 0.94609-0.99915-0.32290 0.01189
  -1  -1  -8  102.92   52.69   1 0.03255-0.03621 0.94889-0.99848-0.31392-0.04152
  -1  -1  -9   11.84   61.56   1 0.03446-0.02746 0.94958-0.99571-0.31159-0.08828
  -1  -1 -1014055.28  481.71   1 0.03218-0.01452 0.94875-0.99141-0.31437-0.12992
  -1  -1 -11 1615.13  394.81   1 0.02660 0.00170 0.94665-0.98585-0.32115-0.16758
  -1  -1 -12  800.25  177.31   1 0.01836 0.02060 0.94341-0.97915-0.33110-0.20206
  -1  -1 -13 4736.40  938.24   1 0.00791 0.04170 0.93907-0.97134-0.34362-0.23397
  -1  -1 -13 4793.51  304.23   1-0.91968 0.96781-0.15700 0.12459-0.35990-0.21867
  -1  -1 -14 7361.86  495.66   1-0.00431 0.06482 0.93322-0.96250-0.35927-0.26341
  -1  -1 -14 7455.58 1043.58   1-0.90406 0.96260-0.17033 0.14136-0.39198-0.23109
  -1  -1 -15 7204.52  348.19   1-0.01829 0.08946 0.92654-0.95239-0.37573-0.29144
  -1  -1 -15 8701.67  907.14   1-0.88767 0.95663-0.18301 0.15749-0.42253-0.24505
  -1  -1 -16    9.42   78.25   1-0.03373 0.11555 0.91861-0.94103-0.39370-0.31795
  -1  -1 -16   86.36   55.12   1-0.87052 0.94988-0.19514 0.17307-0.45178-0.26030
  -1  -1 -17 1258.93  205.29   1-0.05051 0.14299 0.90934-0.92833-0.41297-0.34315
  -1  -1 -17 1372.31  310.75   1-0.85359 0.94277-0.20584 0.18603-0.47854-0.27669
  -1  -1 -18 1179.64  225.83   1-0.06854 0.17168 0.89859-0.91415-0.43339-0.36721
  -1  -1 -18 1049.73  337.42   1-0.83491 0.93451-0.21712 0.20069-0.50573-0.29392
  -1  -1 -19  179.51  155.32   1-0.81541 0.92543-0.22804 0.21498-0.53207-0.31201
  -1  -1 -20   34.05   88.62   1-0.79504 0.91547-0.23862 0.22895-0.55764-0.33087
   1   2 -18   12.99  102.61   1-0.57110 0.84349-0.32007 0.53533-0.75590-0.04390
   1   2 -16   90.19   70.39   1 0.22215 0.03475 0.97274-0.76354-0.06645-0.64481
  -1  -2  16   65.09   83.27   1-0.21639-0.03874-0.97375 0.76618 0.07055 0.64145
   1   2 -16   49.32  129.49   1-0.60224 0.85381-0.31150 0.52001-0.73502 0.02407
   1   2 -15   73.22   61.84   1 0.25631-0.01006 0.96642-0.76065-0.01773-0.64907
  -1  -2  15  121.84   81.88   1-0.24955 0.00501-0.96810 0.76385 0.02214 0.64536
   1   2 -15    1.32   88.27   1-0.61527 0.85643-0.30770 0.51283-0.72577 0.05926
   1   2 -14  -17.34   72.99   1 0.29033-0.05473 0.95638-0.75402 0.03219-0.65455
  -1  -2  14   53.53   91.36   1-0.28263 0.04869-0.95883 0.75791-0.02752 0.65053
   1   2 -14  215.73  107.01   1-0.62641 0.85716-0.30435 0.50610-0.71761 0.09553
  -1  -2  13  112.50   90.89   1-0.31637 0.09321-0.94535 0.74797-0.07886 0.65714
   1   2 -13   94.53   70.83   1-0.63541 0.85575-0.30157 0.49994-0.71084 0.13320
  -1  -2  12 1308.41  161.07   1-0.34955 0.13700-0.92757 0.73350-0.13193 0.66573
   1   2 -12 1477.45  427.91   1-0.64192 0.85185-0.29951 0.49451-0.70584 0.17263
  -1  -2  11 6422.99  332.96   1-0.38289 0.18095-0.90462 0.71385-0.18720 0.67651
   1   2 -11 6660.73  559.04   1-0.64544 0.84495-0.29839 0.49000-0.70311 0.21433
  -1  -2  1023334.10  757.81   1-0.41750 0.22600-0.87474 0.68704-0.24597 0.69057
   1   2 -1026027.12  907.72   1-0.64519 0.83429-0.29847 0.48670-0.70330 0.25896
  -1  -2   9 3713.87  259.38   1-0.45102 0.27014-0.83817 0.65379-0.30666 0.70680
   1   2  -9 4053.73  374.23   1-0.64001 0.81871-0.30012 0.48498-0.70732 0.30741
  -1  -2   8  445.76   89.49   1-0.48510 0.31432-0.79168 0.61029-0.37135 0.72714
   1   2  -8  705.28  174.79   1-0.62810 0.79638-0.30383 0.48531-0.71635 0.36088
  -1  -2   7 1609.41  146.53   1-0.51771 0.35753-0.73452 0.55646-0.43869 0.75000
   1   2  -7 1739.35  144.52   1-0.60646 0.76433-0.31029 0.48839-0.73206 0.42102
  -1  -2   624140.02  442.19   1-0.55082 0.40117-0.66278 0.48852-0.50725 0.77485
   1   2  -625086.52  588.64   1-0.57005 0.71751-0.32034 0.49506-0.75657 0.48997
  -1  -2   567596.26  765.06   1-0.57894 0.44050-0.57374 0.40235-0.57934 0.80253
   1   2  -571060.88  735.01   1-0.50993 0.64698-0.33496 0.50630-0.79231 0.57014
  -1  -2   4 1934.92  121.85   1-0.60047 0.47256-0.46313 0.29507-0.65187 0.83042
   1   2  -4 2072.91  106.38   1-0.40858 0.53582-0.35315 0.52141-0.84162 0.66409
  -1  -2   3 1681.43  110.36   1-0.61200 0.49479-0.32745 0.16257-0.71987 0.85366
   1   2  -3 1262.82   75.96   1-0.24403 0.36091-0.37310 0.53781-0.89511 0.76189
  -1  -2   241663.24  498.38   1-0.60783 0.50121-0.16734 0.00580-0.77623 0.86530
   1   2  -240403.09  406.26   1 0.02215 0.08450-0.38320 0.54448-0.92339 0.83450
  -1  -2   126456.51  368.03   1-0.58390 0.48796 0.01159-0.16980-0.81174 0.85618
   1   2  -122536.08  264.68   1 0.37212-0.27619-0.35318 0.51107-0.85836 0.81395
  -1  -2   0  230.53   54.56   1-0.54051 0.45484 0.19794-0.35277-0.81772 0.81772
  -1  -2  -115337.05  405.29   1-0.47781 0.40285 0.36997-0.52139-0.79674 0.75222
  -1  -2  -236040.21  441.54   1-0.40675 0.34225 0.51611-0.66406-0.75377 0.66473
  -1  -2  -321562.28  327.31   1-0.33762 0.28336 0.62929-0.77381-0.69999 0.56649
  -1  -2  -462099.24  668.64   1-0.27641 0.23298 0.71059-0.85187-0.64702 0.46907
  -1  -2  -5  291.28   56.24   1-0.22521 0.19248 0.76827-0.90609-0.59919 0.37675
  -1  -2  -6  714.89   94.77   1-0.18594 0.16380 0.80814-0.94222-0.55886 0.29218
  -1  -2  -7  347.08   78.42   1-0.15600 0.14456 0.83468-0.96539-0.52817 0.21705
  -1  -2  -846022.12 1002.23   1-0.13447 0.13373 0.85225-0.97960-0.50553 0.14997
  -1  -2  -919264.94  518.87   1-0.11989 0.12984 0.86347-0.98744-0.48994 0.08992
  -1  -2 -10 3682.33  250.71   1-0.11099 0.13164 0.87004-0.99064-0.48032 0.03586
  -1  -2 -11 4891.14  260.94   1-0.10676 0.13811 0.87309-0.99032-0.47572-0.01318
  -1  -2 -1234093.63 1019.74   1-0.10640 0.14845 0.87334-0.98721-0.47533-0.05801
  -1  -2 -13   17.05   77.26   1-0.10929 0.16203 0.87127-0.98177-0.47847-0.09932
  -1  -2 -14  492.08  113.78   1-0.11493 0.17837 0.86715-0.97428-0.48459-0.13765
  -1  -2 -14  732.97  239.58   1-0.90775 0.96924-0.16730 0.06109-0.38468-0.23839
  -1  -2 -15 3178.74  256.37   1-0.12296 0.19709 0.86115-0.96491-0.49324-0.17344
  -1  -2 -15 3539.79  826.80   1-0.89237 0.96427-0.17949 0.07673-0.41405-0.25353
  -1  -2 -16 2299.86  280.99   1-0.13308 0.21791 0.85335-0.95374-0.50405-0.20707
  -1  -2 -16 2247.30  608.94   1-0.87621 0.95853-0.19123 0.09192-0.44234-0.26974
  -1  -2 -17 2348.37  248.73   1-0.14508 0.24061 0.84375-0.94077-0.51674-0.23883
  -1  -2 -17 2548.95  665.80   1-0.85927 0.95199-0.20257 0.10670-0.46969-0.28689
  -1  -2 -18 2816.52  455.74   1-0.15878 0.26501 0.83232-0.92597-0.53106-0.26896
  -1  -2 -18 3279.28  887.45   1-0.84250 0.94498-0.21264 0.11894-0.49493-0.30472
  -1  -2 -19  536.37  138.59   1-0.82398 0.93688-0.22334 0.13301-0.52073-0.32335
  -1  -2 -20  651.55  142.95   1-0.80460 0.92791-0.23375 0.14680-0.54586-0.34265
   1   3 -16   50.25   54.43   1 0.28875-0.03413 0.95693-0.67051 0.02983-0.74110
  -1  -3  16   44.95   87.47   1-0.28144 0.02896-0.95923 0.67446-0.02572 0.73774
   1   3 -16  -66.68   93.35   1-0.53771 0.78639-0.32849 0.61423-0.77649 0.06555
  -1  -3  15  202.21  107.22   1-0.31457 0.07295-0.94617 0.66497-0.07605 0.74329
   1   3 -15  105.80  132.30   1-0.54880 0.78707-0.32578 0.60813-0.76985 0.10334
  -1  -3  14 8698.40  612.43   1-0.34655 0.11554-0.92938 0.65148-0.12705 0.74981
   1   3 -14 9574.77  672.83   1-0.55734 0.78520-0.32363 0.60261-0.76461 0.14253
  -1  -3  13 1902.51  199.97   1-0.37807 0.15767-0.90829 0.63368-0.17907 0.75735
   1   3 -13 1919.13  219.42   1-0.56291 0.78036-0.32220 0.59780-0.76112 0.18348
  -1  -3  12  120.08   97.74   1-0.41015 0.20016-0.88173 0.61014-0.23305 0.76658
   1   3 -12    8.25   79.41   1-0.56490 0.77194-0.32169 0.59391-0.75986 0.22665
  -1  -3  1120935.04  767.54   1-0.44055 0.24118-0.85049 0.58223-0.28735 0.77642
   1   3 -1123170.74  799.89   1-0.56243 0.75906-0.32233 0.59117-0.76142 0.27264
  -1  -3  10  247.44  100.63   1-0.47017 0.28143-0.81323 0.54830-0.34289 0.78750
   1   3 -10  197.55   97.28   1-0.55418 0.74040-0.32443 0.58989-0.76656 0.32222
  -1  -3   9 5715.26  298.65   1-0.49945 0.32066-0.76831 0.50623-0.40030 0.80056
   1   3  -9 6450.34  313.06   1-0.53811 0.71392-0.32840 0.59048-0.77626 0.37635
  -1  -3   897941.82  993.80   1-0.52655 0.35836-0.71620 0.45746-0.45803 0.81381
   1   3  -8100854.7 2095.99   1-0.51102 0.67641-0.33471 0.59342-0.79171 0.43624
  -1  -3   767199.56 1440.64   1-0.55374 0.39601-0.65481 0.39994-0.51437 0.82656
   1   3  -769534.93 1416.58   1-0.46556 0.62158-0.34272 0.59860-0.81595 0.50528
  -1  -3   6 6072.18  325.56   1-0.57594 0.42884-0.58340 0.33178-0.57265 0.84024
   1   3  -6 6594.82  303.76   1-0.39776 0.54317-0.35494 0.60732-0.84604 0.57975
  -1  -3   533399.24  804.15   1-0.59443 0.45868-0.50129 0.25254-0.62876 0.85195
   1   3  -532214.37  682.96   1-0.29295 0.42823-0.36801 0.61680-0.88246 0.66042
   1   3  -4 6041.18  192.42   1-0.12715 0.25229-0.38061 0.62576-0.91594 0.73808
  -1  -3   314049.48  429.57   1-0.61257 0.49813-0.29964 0.05741-0.73140 0.86519
   1   3  -313679.84  346.29   1 0.12613-0.01156-0.37997 0.62189-0.91635 0.78301
  -1  -3   217816.53  505.92   1-0.60891 0.50511-0.18189-0.05700-0.77209 0.86116
   1   3  -214087.19  349.51   1 0.43786-0.33401-0.34185 0.58037-0.83151 0.74269
  -1  -3   1158699.7 1414.61   1-0.59544 0.50238-0.05635-0.17925-0.80141 0.84586
  -1  -3   0209205.5 1751.38   1-0.57365 0.49064 0.07406-0.30632-0.81574 0.81574
  -1  -3  -1 1679.47  123.28   1-0.53986 0.46748 0.20002-0.42878-0.81763 0.77304
  -1  -3  -279548.50  834.59   1-0.49974 0.43812 0.31643-0.54182-0.80630 0.71726
  -1  -3  -327166.61  424.01   1-0.45600 0.40476 0.42030-0.64223-0.78447 0.65092
  -1  -3  -4  119.12   50.22   1-0.41139 0.37087 0.50777-0.72621-0.75691 0.57884
  -1  -3  -542316.63  579.42   1-0.37078 0.34023 0.57908-0.79414-0.72607 0.50356
  -1  -3  -633096.21  523.94   1-0.33352 0.31365 0.63517-0.84677-0.69664 0.42963
  -1  -3  -761716.70 1295.82   1-0.30281 0.29388 0.67742-0.88587-0.67037 0.35896
  -1  -3  -8 5218.65  282.29   1-0.27682 0.27859 0.71010-0.91510-0.64739 0.29149
  -1  -3  -945043.77 1058.40   1-0.25636 0.26883 0.73419-0.93574-0.62867 0.22828
  -1  -3 -10  814.49  122.33   1-0.24099 0.26416 0.75139-0.94948-0.61427 0.16939
  -1  -3 -11 3370.03  206.38   1-0.23019 0.26406 0.76303-0.95767-0.60397 0.11461
  -1  -3 -12 4598.40  249.75   1-0.22343 0.26800 0.77013-0.96131-0.59747 0.06361
  -1  -3 -1336390.26 1840.38   1-0.22024 0.27552 0.77343-0.96116-0.59438 0.01604
  -1  -3 -14 6888.43  443.08   1-0.22019 0.28617 0.77348-0.95775-0.59433-0.02849
  -1  -3 -14 9438.71 1001.77   1-0.90698 0.97142-0.16794-0.01550-0.38622-0.23685
  -1  -3 -15   59.68  115.35   1-0.22293 0.29961 0.77064-0.95146-0.59699-0.07032
  -1  -3 -15  208.50   91.09   1-0.89244 0.96729-0.17944-0.00055-0.41393-0.25365
  -1  -3 -16 2065.48  257.01   1-0.22816 0.31554 0.76517-0.94254-0.60203-0.10977
  -1  -3 -16 2192.57  547.56   1-0.87713 0.96239-0.19059 0.01404-0.44080-0.27128
  -1  -3 -17  259.76  113.70   1-0.23562 0.33370 0.75721-0.93112-0.60917-0.14711
  -1  -3 -17  242.44  119.52   1-0.86103 0.95671-0.20143 0.02832-0.46694-0.28965
  -1  -3 -18  162.44  120.25   1-0.84505 0.95040-0.21111 0.04013-0.49124-0.30842
  -1  -3 -19 1886.90  518.90   1-0.82738 0.94315-0.22143 0.05383-0.51613-0.32795
  -1  -3 -20    8.59  133.73   1-0.80887 0.93506-0.23152 0.06730-0.54047-0.34803
  -1  -4  16  168.99   97.91   1-0.33051 0.08103-0.93835 0.57661-0.10126 0.81298
  -1  -4  15  693.91  190.76   1-0.36118 0.12231-0.92019 0.56175-0.15096 0.81820
  -1  -4  14  681.95  171.29   1-0.39104 0.16278-0.89814 0.54301-0.20103 0.82379
   1   4 -14  566.22  129.01   1-0.45666 0.68389-0.34446 0.70194-0.82024 0.19888
  -1  -4  13  184.22  133.66   1-0.42102 0.20316-0.87128 0.51914-0.25220 0.83018
   1   4 -13   30.31   75.07   1-0.45627 0.67289-0.34454 0.69852-0.82042 0.24345
  -1  -4  12  788.14  162.01   1-0.44902 0.24178-0.84059 0.49178-0.30294 0.83647
   1   4 -12  818.02  163.34   1-0.45043 0.65645-0.34566 0.69615-0.82317 0.29058
  -1  -4  11 2493.02  230.19   1-0.47657 0.27916-0.80445 0.45835-0.35457 0.84378
   1   4 -11 2660.07  208.21   1-0.43762 0.63302-0.34805 0.69504-0.82906 0.34085
  -1  -4  10 1278.79  182.91   1-0.50212 0.31531-0.76367 0.42091-0.40579 0.85053
   1   4 -10  879.23  135.96   1-0.41549 0.60029-0.35198 0.69547-0.83873 0.39490
  -1  -4   911266.34  477.55   1-0.52607 0.34987-0.71723 0.37780-0.45697 0.85723
   1   4  -912459.92  433.60   1-0.38051 0.55471-0.35767 0.69768-0.85280 0.45336
  -1  -4   8 4123.84  267.70   1-0.55021 0.38440-0.66441 0.32891-0.50578 0.86257
   1   4  -8 4206.86  204.36   1-0.32950 0.49382-0.36353 0.69983-0.87136 0.51611
  -1  -4   7 7916.88  446.30   1-0.56988 0.41470-0.60518 0.27294-0.55586 0.86805
   1   4  -7 8007.55  393.91   1-0.24929 0.40297-0.37260 0.70546-0.89387 0.58302
  -1  -4   6 7954.21  448.15   1-0.58691 0.44332-0.53970 0.21024-0.60352 0.87135
   1   4  -6 8691.33  409.62   1-0.13215 0.27576-0.38037 0.70947-0.91534 0.64853
  -1  -4   528360.57  736.44   1-0.59998 0.46692-0.46654 0.14041-0.64988 0.87307
   1   4  -526308.84  554.67   1 0.04788 0.08523-0.38279 0.70868-0.92259 0.70035
  -1  -4   427966.78  717.33   1-0.60889 0.48666-0.38615 0.06318-0.69291 0.87130
   1   4  -424532.78  508.63   1 0.29303-0.17069-0.36457 0.68725-0.88386 0.70607
  -1  -4   345772.88 1046.34   1-0.61258 0.50089-0.29946-0.02012-0.73148 0.86527
  -1  -4   2110767.4 1190.83   1-0.61045 0.50947-0.20717-0.10910-0.76447 0.85354
  -1  -4   129059.89  525.23   1-0.60239 0.51199-0.11113-0.20175-0.79042 0.83496
  -1  -4   053255.50  716.61   1-0.58853 0.50891-0.01371-0.29590-0.80835 0.80835
  -1  -4  -128394.82  492.34   1-0.57118 0.50146 0.08470-0.39087-0.81643 0.77184
  -1  -4  -2   75.00   75.31   1-0.54663 0.48754 0.17758-0.48026-0.81832 0.72914
  -1  -4  -344456.65  635.07   1-0.51948 0.47121 0.26310-0.56245-0.81296 0.67940
  -1  -4  -470028.82  865.35   1-0.48987 0.45228 0.34119-0.63705-0.80225 0.62418
  -1  -4  -555968.58 1203.85   1-0.46085 0.43360 0.40991-0.70233-0.78713 0.56454
  -1  -4  -634275.16  810.08   1-0.43224 0.41572 0.46857-0.75750-0.77045 0.50334
  -1  -4  -7 5084.55  293.69   1-0.40590 0.40010 0.51764-0.80307-0.75318 0.44156
  -1  -4  -8   11.19   65.75   1-0.38398 0.38783 0.55765-0.83979-0.73591 0.37990
  -1  -4  -942518.10 1028.10   1-0.36408 0.37860 0.58963-0.86831-0.72095 0.32044
  -1  -4 -10  115.98   76.22   1-0.34770 0.37289 0.61455-0.88978-0.70811 0.26310
  -1  -4 -1114518.32  559.07   1-0.33480 0.37068 0.63334-0.90512-0.69769 0.20818
  -1  -4 -1228847.50  965.40   1-0.32526 0.37181 0.64681-0.91513-0.68981 0.15579
  -1  -4 -13   15.88   92.67   1-0.31886 0.37609 0.65562-0.92050-0.68445 0.10593
  -1  -4 -13   45.19  130.65   1-0.91537 0.97233-0.16082-0.10331-0.36909-0.20948
  -1  -4 -14  -64.11   76.79   1-0.31540 0.38331 0.66033-0.92176-0.68152 0.05850
  -1  -4 -14   69.54   65.09   1-0.90229 0.96967-0.17176-0.08892-0.39543-0.22765
  -1  -4 -15 4088.20  356.99   1-0.31463 0.39322 0.66137-0.91934-0.68087 0.01335
  -1  -4 -15 4056.43 1018.41   1-0.88846 0.96626-0.18242-0.07481-0.42112-0.24646
  -1  -4 -16 1054.46  182.80   1-0.31636 0.40562 0.65903-0.91355-0.68233-0.02968
  -1  -4 -16 1616.02  406.79   1-0.87388 0.96208-0.19285-0.06094-0.44625-0.26584
  -1  -4 -17  404.72  146.13   1-0.32039 0.42033 0.65353-0.90460-0.68574-0.07078
  -1  -4 -17  518.52  243.25   1-0.85851 0.95714-0.20305-0.04729-0.47086-0.28573
  -1  -4 -18  816.65  269.36   1-0.84320 0.95143-0.21222-0.03602-0.49392-0.30574
  -1  -4 -19  290.56   99.77   1-0.82629 0.94493-0.22205-0.02282-0.51762-0.32646
  -1  -5  16 1494.14  318.25   1-0.36570 0.11898-0.91714 0.47817-0.15844 0.87016
  -1  -5  15 1331.77  268.69   1-0.39428 0.15817-0.89546 0.45980-0.20657 0.87381
  -1  -5  14 1298.91  234.20   1-0.42273 0.19700-0.86957 0.43688-0.25523 0.87768
  -1  -5  13   36.63  113.04   1-0.44906 0.23396-0.84054 0.41117-0.30303 0.88101
  -1  -5  12  433.28  163.54   1-0.47479 0.26936-0.80703 0.38024-0.35110 0.88479
  -1  -5  11  228.72  123.08   1-0.49848 0.30366-0.76996 0.34651-0.39832 0.88753
  -1  -5  10 6604.52  472.87   1-0.52062 0.33640-0.72864 0.30852-0.44500 0.88974
  -1  -5   9 3556.53  275.35   1-0.54310 0.36921-0.68264 0.26653-0.48891 0.89030
  -1  -5   812171.32  558.45   1-0.56152 0.39826-0.63220 0.21934-0.53386 0.89065
  -1  -5   7 3575.86  236.99   1-0.57759 0.42497-0.57706 0.16745-0.57739 0.88958
  -1  -5   6 2760.14  238.55   1-0.59134 0.45043-0.51802 0.11120-0.61802 0.88585
  -1  -5   5 2598.75  220.75   1-0.60175 0.47139-0.45368 0.05019-0.65730 0.88049
  -1  -5   4 1810.17  184.33   1-0.60898 0.48951-0.38501-0.01531-0.69347 0.87186
  -1  -5   358504.06 1313.81   1-0.61237 0.50345-0.31265-0.08427-0.72610 0.85990
  -1  -5   2 3660.84  273.73   1-0.61175 0.51358-0.23732-0.15633-0.75461 0.84367
  -1  -5   187391.22 1821.26   1-0.60723 0.51965-0.16002-0.23023-0.77823 0.82277
  -1  -5   0 5973.52  332.70   1-0.59909 0.52235-0.08232-0.30469-0.79643 0.79643
  -1  -5  -1 5866.77  326.96   1-0.58699 0.52082-0.00505-0.37855-0.80957 0.76513
  -1  -5  -232288.68  801.88   1-0.57414 0.51771 0.07190-0.45200-0.81559 0.72640
  -1  -5  -3 1979.01  197.10   1-0.55626 0.51046 0.14355-0.52016-0.81851 0.68473
  -1  -5  -4 9855.59  361.06   1-0.53662 0.50145 0.21040-0.58350-0.81716 0.63879
  -1  -5  -535283.12  855.79   1-0.51702 0.49277 0.27007-0.63990-0.81224 0.58965
  -1  -5  -615033.39  476.71   1-0.49654 0.48298 0.32457-0.69090-0.80504 0.53793
  -1  -5  -7 6617.44  388.20   1-0.47678 0.47389 0.37238-0.73523-0.79624 0.48462
  -1  -5  -8 3349.17  218.52   1-0.45926 0.46673 0.41333-0.77274-0.78627 0.43013
  -1  -5  -917039.49  613.74   1-0.44268 0.46088 0.44787-0.80380-0.77681 0.37615
  -1  -5 -1015196.19  607.45   1-0.42825 0.45717 0.47630-0.82874-0.76793 0.32276
  -1  -5 -11  835.07  143.18   1-0.41615 0.45580 0.49906-0.84801-0.76009 0.27040
  -1  -5 -12   93.23  127.73   1-0.40648 0.45685 0.51661-0.86206-0.75358 0.21937
  -1  -5 -12   -5.15  112.85   1-0.91804 0.96754-0.15846-0.18636-0.36342-0.17064
  -1  -5 -13  356.38  113.77   1-0.39925 0.46035 0.52937-0.87133-0.74857 0.16984
  -1  -5 -13  594.39  170.70   1-0.90632 0.96623-0.16848-0.17289-0.38754-0.19103
  -1  -5 -14 8169.75  577.55   1-0.39441 0.46625 0.53773-0.87621-0.74516 0.12192
  -1  -5 -14 9152.20 1012.28   1-0.89387 0.96420-0.17835-0.15957-0.41131-0.21177
  -1  -5 -15  189.75  126.36   1-0.39190 0.47446 0.54203-0.87702-0.74337 0.07561
  -1  -5 -15  417.92  150.19   1-0.88069 0.96143-0.18808-0.14640-0.43475-0.23283
  -1  -5 -16 1523.02  221.84   1-0.39161 0.48490 0.54252-0.87402-0.74316 0.03088
  -1  -5 -16 2104.64  472.56   1-0.86675 0.95791-0.19767-0.13336-0.45788-0.25420
  -1  -5 -17  231.37  125.25   1-0.85278 0.95346-0.20635-0.12255-0.47976-0.27547
  -1  -5 -18  295.11  115.78   1-0.83733 0.94843-0.21571-0.10981-0.50232-0.29733
  -1  -5 -19 2158.95  583.13   1-0.82108 0.94259-0.22495-0.09719-0.52461-0.31947
  -1  -6  16 1136.69  287.10   1-0.39080 0.14685-0.89833 0.38214-0.20063 0.91236
  -1  -6  15  154.21  130.15   1-0.41824 0.18465-0.87402 0.36078-0.24727 0.91418
  -1  -6  14  332.75  152.05   1-0.44352 0.22054-0.84708 0.33717-0.29279 0.91524
  -1  -6  13 1029.77  206.87   1-0.46750 0.25515-0.81692 0.31032-0.33775 0.91574
  -1  -6  12 1959.81  283.41   1-0.49069 0.28786-0.78287 0.27873-0.38252 0.91621
  -1  -6  11  104.11  124.83   1-0.51181 0.31957-0.74599 0.24519-0.42607 0.91528
  -1  -6  10 3305.11  292.15   1-0.53131 0.34968-0.70571 0.20824-0.46869 0.91342
  -1  -6   914986.48  540.67   1-0.55121 0.37988-0.66172 0.16824-0.50821 0.90960
  -1  -6   8 4226.22  365.74   1-0.56710 0.40639-0.61452 0.12429-0.54841 0.90520
  -1  -6   710472.58  516.91   1-0.58117 0.43241-0.56477 0.07724-0.58589 0.89835
  -1  -6   6   65.36  120.29   1-0.59266 0.45444-0.51107 0.02687-0.62254 0.89036
  -1  -6   417685.31  664.20   1-0.60819 0.49149-0.39494-0.08273-0.68855 0.86694
  -1  -6   328792.79  940.23   1-0.61181 0.50565-0.33330-0.14098-0.71735 0.85114
  -1  -6   2 5740.45  390.41   1-0.61246 0.51710-0.27008-0.20095-0.74293 0.83199
  -1  -6   1 2100.63  204.88   1-0.61038 0.52561-0.20582-0.26182-0.76489 0.80943
  -1  -6   0  171.48   97.86   1-0.60555 0.53137-0.14128-0.32296-0.78315 0.78315
  -1  -6  -1 4225.95  320.19   1-0.59851 0.53521-0.07796-0.38305-0.79730 0.75286
  -1  -6  -212919.35  670.33   1-0.58887 0.53615-0.01568-0.44192-0.80807 0.71918
  -1  -6  -3 2405.54  206.81   1-0.57733 0.53520 0.04425-0.49846-0.81530 0.68197
  -1  -6  -4 9822.76  549.28   1-0.56683 0.53432 0.10278-0.55330-0.81739 0.63902
  -1  -6  -5 8425.93  385.37   1-0.55291 0.53103 0.15568-0.60271-0.81856 0.59559
  -1  -6  -611964.86  492.35   1-0.53857 0.52732 0.20418-0.64771-0.81746 0.54990
  -1  -6  -7    1.92   87.79   1-0.52529 0.52507 0.24629-0.68659-0.81449 0.50286
  -1  -6  -8  148.38  130.34   1-0.51165 0.52211 0.28491-0.72172-0.81057 0.45443
  -1  -6  -9 1554.81  205.48   1-0.49893 0.52007 0.31850-0.75181-0.80599 0.40532
  -1  -6 -10 1019.09  191.99   1-0.48745 0.51927 0.34709-0.77692-0.80119 0.35601
  -1  -6 -1115096.04  854.85   1-0.47744 0.51994 0.37083-0.79717-0.79656 0.30687
  -1  -6 -1115350.26 1045.88   1-0.91495 0.95698-0.16118-0.26433-0.36997-0.11959
  -1  -6 -12 1119.26  163.41   1-0.46909 0.52227 0.38990-0.81275-0.79241 0.25820
  -1  -6 -12 1198.97  288.31   1-0.90459 0.95704-0.16990-0.25216-0.39095-0.14311
  -1  -6 -13  845.92  162.11   1-0.46359 0.52723 0.40396-0.82339-0.78860 0.20987
  -1  -6 -13  958.96  261.51   1-0.89351 0.95637-0.17863-0.23998-0.41197-0.16659
  -1  -6 -14 1810.21  232.16   1-0.45885 0.53322 0.41421-0.83016-0.78604 0.16280
  -1  -6 -14 1933.37  587.07   1-0.88169 0.95497-0.18736-0.22781-0.43301-0.19006
  -1  -6 -15  320.12  115.17   1-0.45595 0.54105 0.42040-0.83285-0.78445 0.11668
  -1  -6 -15  437.61  155.68   1-0.86914 0.95283-0.19607-0.21564-0.45403-0.21355
  -1  -6 -16  529.75  161.55   1-0.85582 0.94993-0.20476-0.20351-0.47500-0.23709
  -1  -6 -17  441.06  164.16   1-0.84241 0.94597-0.21270-0.19348-0.49506-0.26017
  -1  -6 -18  154.14  110.83   1-0.82758 0.94155-0.22132-0.18147-0.51587-0.28379
  -1  -7  15   34.57  114.18   1-0.43376 0.20292-0.85802 0.26755-0.27502 0.94193
  -1  -7  14  157.08  135.44   1-0.45713 0.23692-0.83056 0.24342-0.31809 0.94053
  -1  -7  13 1959.64  359.78   1-0.47970 0.26886-0.79985 0.21502-0.36071 0.93886
  -1  -7  12  529.26  201.95   1-0.50030 0.30005-0.76684 0.18535-0.40205 0.93573
  -1  -7  11 1496.48  249.00   1-0.51941 0.32977-0.73110 0.15295-0.44237 0.93158
  -1  -7  10  765.80  200.72   1-0.53907 0.35965-0.69240 0.11830-0.47956 0.92555
  -1  -7   9 4324.52  442.93   1-0.55501 0.38622-0.65127 0.08042-0.51750 0.91889
  -1  -7   8  195.33  166.19   1-0.56917 0.41101-0.60759 0.04000-0.55395 0.91074
  -1  -7   7 3281.87  310.43   1-0.58175 0.43569-0.56236-0.00252-0.58762 0.90009
  -1  -7   6 3801.32  347.36   1-0.59209 0.45656-0.51408-0.04747-0.62059 0.88842
  -1  -7   520066.46 1164.52   1-0.60038 0.47539-0.46377-0.09445-0.65149 0.87468
  -1  -7   496978.07 1310.98   1-0.60668 0.49274-0.41186-0.14317-0.67992 0.85831
  -1  -7   3 3651.25  310.63   1-0.61068 0.50729-0.35851-0.19312-0.70606 0.83985
  -1  -7   2 3139.78  296.21   1-0.61252 0.51966-0.30419-0.24405-0.72957 0.81876
  -1  -7   110523.59  483.48   1-0.61210 0.53014-0.24975-0.29526-0.75029 0.79483
  -1  -7   0  113.84  114.86   1-0.60977 0.53840-0.19516-0.34646-0.76816 0.76816
  -1  -7  -1  318.17  139.87   1-0.60555 0.54476-0.14120-0.39703-0.78317 0.73864
  -1  -7  -239266.11 1217.30   1-0.60000 0.55015-0.08923-0.44578-0.79500 0.70612
  -1  -7  -3 9519.16  466.73   1-0.59267 0.55340-0.03842-0.49318-0.80452 0.67120
  -1  -7  -440462.01 1329.35   1-0.58419 0.55550 0.01006-0.53826-0.81155 0.63378
  -1  -7  -5104288.7 1211.77   1-0.57487 0.55676 0.05573-0.58053-0.81634 0.59413
  -1  -7  -6  411.67  138.59   1-0.56755 0.55896 0.09984-0.62079-0.81725 0.54970
  -1  -7  -7  231.92  160.35   1-0.55759 0.55963 0.13864-0.65610-0.81845 0.50630
  -1  -7  -8 5264.35  394.56   1-0.54779 0.56046 0.17361-0.68756-0.81839 0.46165
  -1  -7  -9 1174.51  183.98   1-0.53845 0.56174 0.20458-0.71504-0.81744 0.41611
  -1  -7  -9  858.13  190.29   1-0.91330 0.93745-0.16261-0.34704-0.37340-0.02714
  -1  -7 -1020641.88  603.68   1-0.52982 0.56375 0.23148-0.73844-0.81590 0.36998
  -1  -7 -1020763.28  669.42   1-0.90532 0.93989-0.16930-0.33690-0.38950-0.05555
  -1  -7 -11 2569.66  295.84   1-0.52321 0.56838 0.25237-0.75616-0.81397 0.32427
  -1  -7 -11 2685.89  668.51   1-0.89655 0.94153-0.17629-0.32646-0.40633-0.08322
  -1  -7 -12 8219.01  604.53   1-0.51667 0.57251 0.27104-0.77134-0.81214 0.27793
  -1  -7 -12 7394.39 1332.49   1-0.88699 0.94239-0.18351-0.31579-0.42374-0.11032
  -1  -7 -13 1696.31  206.63   1-0.51136 0.57788 0.28571-0.78252-0.81047 0.23174
  -1  -7 -13 1814.56  432.13   1-0.87666 0.94246-0.19092-0.30494-0.44160-0.13697
  -1  -7 -14  702.12  188.45   1-0.50738 0.58458 0.29643-0.78975-0.80912 0.18587
  -1  -7 -14  616.12  157.09   1-0.86555 0.94177-0.19847-0.29394-0.45981-0.16326
  -1  -7 -15  -39.54   83.84   1-0.50480 0.59268 0.30326-0.79309-0.80820 0.14043
  -1  -7 -15  122.82   77.85   1-0.85422 0.93982-0.20545-0.28476-0.47758-0.18879
  -1  -7 -16 2372.69  673.13   1-0.84158 0.93759-0.21320-0.27364-0.49626-0.21454
  -1  -7 -17   65.14   82.64   1-0.82815 0.93458-0.22100-0.26245-0.51509-0.24014
  -1  -8  13   94.49  139.10   1-0.48637 0.27811-0.78971 0.12754-0.37388 0.95204
  -1  -8  12 3969.85  647.25   1-0.50540 0.30775-0.75783 0.09899-0.41261 0.94630
  -1  -8  11  973.23  282.72   1-0.52300 0.33594-0.72373 0.06823-0.45019 0.93940
  -1  -8  10  -55.59  125.05   1-0.54124 0.36437-0.68719 0.03573-0.48457 0.93056
  -1  -8   9  490.16  182.01   1-0.55585 0.38961-0.64888 0.00067-0.51958 0.92097
  -1  -8   8  637.36  183.17   1-0.56886 0.41324-0.60866-0.03629-0.55310 0.90989
  -1  -8   7 3057.57  383.23   1-0.58047 0.43710-0.56760-0.07466-0.58384 0.89630
  -1  -8   6 2706.66  352.40   1-0.59015 0.45731-0.52410-0.11483-0.61403 0.88185
  -1  -8   5  -28.68  122.71   1-0.59808 0.47579-0.47923-0.15637-0.64235 0.86554
  -1  -8   4 5370.36  389.70   1-0.60427 0.49251-0.43324-0.19902-0.66868 0.84724
  -1  -8   324539.65 1355.96   1-0.60885 0.50822-0.38669-0.24230-0.69264 0.82643
  -1  -8   2  154.74  143.30   1-0.61158 0.52149-0.33946-0.28613-0.71465 0.80384
  -1  -8   1 2174.72  273.17   1-0.61263 0.53309-0.29210-0.33010-0.73440 0.77900
  -1  -8   0 2502.49  312.92   1-0.61199 0.54344-0.24551-0.37348-0.75178 0.75178
  -1  -8  -1 2355.57  274.49   1-0.61001 0.55204-0.19921-0.41639-0.76693 0.72240
  -1  -8  -249457.21 2540.23   1-0.60672 0.55933-0.15400-0.45821-0.77985 0.69078
  -1  -8  -242666.92 2122.00   1-0.88480 0.83901-0.18512-0.42591-0.42761 0.33859
  -1  -8  -329694.06 1598.91   1-0.60229 0.56549-0.11028-0.49854-0.79061 0.65701
  -1  -8  -327422.92 1450.05   1-0.89503 0.85965-0.17746-0.43012-0.40916 0.27564
  -1  -8  -4  417.33  171.63   1-0.59733 0.57151-0.06944-0.53615-0.79897 0.62120
  -1  -8  -4  421.22   98.85   1-0.89983 0.87487-0.17372-0.43042-0.40014 0.22212
  -1  -8  -5 3388.02  326.62   1-0.59129 0.57605-0.02995-0.57224-0.80589 0.58368
  -1  -8  -5 3224.90  415.67   1-0.90119 0.88664-0.17264-0.42805-0.39754 0.17501
  -1  -8  -6 5754.44  355.83   1-0.58477 0.58011 0.00699-0.60578-0.81116 0.54451
  -1  -8  -6 4793.58  690.19   1-0.90016 0.89602-0.17346-0.42378-0.39952 0.13249
  -1  -8  -7 1271.14  312.55   1-0.89731 0.90359-0.17570-0.41809-0.40491 0.09337
  -1  -8  -8   43.88   96.97   1-0.57373 0.58905 0.07372-0.66509-0.81571 0.45897
  -1  -8  -8   52.69   66.20   1-0.89301 0.90970-0.17900-0.41133-0.41288 0.05683
  -1  -8  -9  742.30  200.24   1-0.56716 0.59312 0.10143-0.68930-0.81733 0.41599
  -1  -8  -9  675.78  146.81   1-0.88749 0.91459-0.18314-0.40375-0.42285 0.02230
  -1  -8 -10 1570.10  243.86   1-0.56101 0.59759 0.12575-0.71013-0.81820 0.37227
  -1  -8 -10 1735.19  417.05   1-0.88088 0.91840-0.18794-0.39550-0.43441-0.01064
  -1  -8 -11  130.24  113.29   1-0.55544 0.60265 0.14658-0.72746-0.81853 0.32801
  -1  -8 -11  133.36   80.80   1-0.87328 0.92121-0.19326-0.38674-0.44723-0.04232
  -1  -8 -12  189.80  161.42   1-0.55060 0.60845 0.16387-0.74125-0.81852 0.28341
  -1  -8 -12   -1.84  127.32   1-0.86476 0.92310-0.19899-0.37755-0.46107-0.07299
  -1  -8 -13 1089.08  257.46   1-0.54663 0.61511 0.17757-0.75146-0.81832 0.23862
  -1  -8 -13  856.69  203.46   1-0.85535 0.92410-0.20507-0.36803-0.47573-0.10284
  -1  -8 -14  115.94  146.93   1-0.54363 0.62274 0.18765-0.75805-0.81807 0.19377
  -1  -8 -14  235.12  119.12   1-0.84556 0.92361-0.21080-0.36006-0.49049-0.13146
  -1  -8 -15  286.13  104.27   1-0.83446 0.92293-0.21738-0.35010-0.50636-0.16002
  -1  -8 -16  297.59  170.62   1-0.82253 0.92142-0.22414-0.33996-0.52267-0.18813
  -1  -9  11   29.81  133.40   1-0.52358 0.33911-0.72251-0.01033-0.45147 0.94068
  -1  -9  10 1158.22  357.15   1-0.54079 0.36647-0.68826-0.04056-0.48355 0.92954
  -1  -9   9 2970.93  529.22   1-0.55448 0.39079-0.65274-0.07282-0.51620 0.91759
  -1  -9   8 1826.04  368.39   1-0.56671 0.41365-0.61579-0.10653-0.54738 0.90418
  -1  -9   7 3432.25  345.33   1-0.57747 0.43503-0.57754-0.14151-0.57702 0.88922
  -1  -9   6  -34.23  131.70   1-0.58702 0.45688-0.53918-0.17712-0.60388 0.87171
  -1  -9   5 4716.83  410.40   1-0.59484 0.47523-0.49895-0.21402-0.63024 0.85343
  -1  -9   420015.27 1312.05   1-0.60117 0.49210-0.45802-0.25162-0.65482 0.83337
  -1  -9   317871.99 1180.33   1-0.60618 0.50831-0.41691-0.28942-0.67728 0.81107
  -1  -9   2  148.16  136.64   1-0.60966 0.52233-0.37540-0.32755-0.69812 0.78732
  -1  -9   1  355.97  167.90   1-0.61178 0.53500-0.33398-0.36558-0.71705 0.76165
  -1  -9   0  601.62  228.61   1-0.61263 0.54639-0.29294-0.40322-0.73407 0.73407
  -1  -9  -1  144.40  191.13   1-0.61218 0.55703-0.25325-0.43973-0.74905 0.70452
  -1  -9  -2 4381.27  375.97   1-0.61080 0.56623-0.21405-0.47554-0.76229 0.67322
  -1  -9  -3  711.60  197.40   1-0.60850 0.57451-0.17616-0.51004-0.77375 0.64014
  -1  -9  -4 5420.71  479.76   1-0.60542 0.58202-0.13988-0.54292-0.78351 0.60537
  -1  -9  -4 3668.31  804.44   1-0.84859 0.82535-0.20895-0.47299-0.48602 0.30832
  -1  -9  -516224.78 1053.16   1-0.60213 0.58976-0.10656-0.57303-0.79125 0.56904
  -1  -9  -514147.52 1312.84   1-0.85617 0.84334-0.20421-0.47435-0.47461 0.25248
  -1  -9  -6  760.62  188.86   1-0.59802 0.59623-0.07440-0.60179-0.79801 0.53136
  -1  -9  -6  743.84  171.33   1-0.85922 0.85803-0.20260-0.47188-0.46977 0.20273
  -1  -9  -7  630.66  165.34   1-0.59364 0.60243-0.04460-0.62818-0.80348 0.49239
  -1  -9  -7  412.78  134.61   1-0.85994 0.86916-0.20213-0.46889-0.46865 0.15711
  -1  -9  -8  721.64  229.41   1-0.58916 0.60853-0.01737-0.65201-0.80782 0.45228
  -1  -9  -8  402.94  116.46   1-0.85845 0.87808-0.20309-0.46449-0.47096 0.11492
  -1  -9  -9   -2.00  114.91   1-0.58474 0.61469 0.00712-0.67309-0.81118 0.41120
  -1  -9  -9  -30.14   94.80   1-0.85560 0.88444-0.20458-0.46047-0.47549 0.07565
  -1  -9 -10 5708.67  384.48   1-0.58054 0.62106 0.02872-0.69129-0.81372 0.36930
  -1  -9 -10 5108.12 1070.23   1-0.85085 0.89011-0.20755-0.45411-0.48266 0.03840
  -1  -9 -11 2113.71  390.99   1-0.57668 0.62779 0.04732-0.70648-0.81559 0.32673
  -1  -9 -11 1723.29  481.82   1-0.84483 0.89450-0.21124-0.44704-0.49156 0.00287
  -1  -9 -12 1326.65  285.21   1-0.57331 0.63500 0.06280-0.71856-0.81692 0.28361
  -1  -9 -12  912.80  219.41   1-0.83766 0.89775-0.21552-0.43938-0.50187-0.03123
  -1  -9 -13 1318.95  294.89   1-0.57319 0.64433 0.07605-0.72736-0.81588 0.23617
  -1  -9 -13 1372.33  450.73   1-0.82943 0.89994-0.22027-0.43125-0.51334-0.06419
  -1  -9 -14  462.20  138.63   1-0.82021 0.90114-0.22542-0.42272-0.52577-0.09619
  -1 -10   9  314.63  224.08   1-0.55130 0.39016-0.66148-0.14145-0.50842 0.90981
  -1 -10   8   17.28  142.06   1-0.56303 0.41251-0.62755-0.17213-0.53774 0.89453
  -1 -10   7  187.98  148.05   1-0.57343 0.43354-0.59267-0.20375-0.56560 0.87779
  -1 -10   6  612.02  219.53   1-0.58278 0.45533-0.55801-0.23565-0.59074 0.85856
  -1 -10   5  175.75  174.43   1-0.59060 0.47369-0.52179-0.26855-0.61555 0.83874
  -1 -10   4  -16.05  126.92   1-0.59715 0.49077-0.48515-0.30186-0.63877 0.81732
  -1 -10   3   54.09  135.27   1-0.60245 0.50661-0.44830-0.33538-0.66035 0.79426
  -1 -10   2 1323.97  322.93   1-0.60668 0.52212-0.41180-0.36850-0.67995 0.76915
  -1 -10   1  141.00  231.94   1-0.60967 0.53565-0.37525-0.40166-0.69819 0.74279
  -1 -10   0  739.07  252.54   1-0.61159 0.54811-0.33917-0.43434-0.71478 0.71478
  -1 -10  -1 4825.68  420.82   1-0.61252 0.55959-0.30382-0.46631-0.72972 0.68513
  -1 -10  -2 1651.47  263.71   1-0.61246 0.57070-0.27017-0.49679-0.74289 0.65382
  -1 -10  -3  459.98  186.59   1-0.61174 0.58057-0.23709-0.52648-0.75468 0.62108
  -1 -10  -4 3309.85  362.91   1-0.61036 0.58978-0.20544-0.55474-0.76501 0.58687
  -1 -10  -5   93.87  116.70   1-0.60845 0.59845-0.17546-0.58133-0.77394 0.55127
  -1 -10  -6  146.27  185.29   1-0.60612 0.60671-0.14735-0.60605-0.78159 0.51439
  -1 -10  -7  261.19  174.29   1-0.60352 0.61469-0.12131-0.62870-0.78806 0.47631
  -1 -10  -7  114.52   61.28   1-0.81349 0.82437-0.22907-0.52001-0.53456 0.22358
  -1 -10  -8  172.68  129.89   1-0.60119 0.62343-0.09873-0.64805-0.79298 0.43744
  -1 -10  -8  126.65   73.13   1-0.81582 0.83711-0.22782-0.51788-0.53154 0.17613
  -1 -10  -9  636.33  213.80   1-0.59843 0.63125-0.07737-0.66600-0.79742 0.39744
  -1 -10  -9  420.20  103.57   1-0.81561 0.84733-0.22792-0.51439-0.53180 0.13196
  -1 -10 -10 4738.06  716.52   1-0.59577 0.63916-0.05857-0.68139-0.80101 0.35659
  -1 -10 -10 2031.98  461.36   1-0.81338 0.85551-0.22913-0.50981-0.53470 0.09044
  -1 -10 -11   85.82  123.38   1-0.59331 0.64728-0.04244-0.69411-0.80385 0.31499
  -1 -10 -11  165.71  102.20   1-0.80944 0.86199-0.23122-0.50434-0.53976 0.05107
  -1 -10 -12   15.86  116.79   1-0.59115 0.65571-0.02912-0.70403-0.80602 0.27272
  -1 -10 -12   20.83   63.49   1-0.80402 0.86699-0.23405-0.49813-0.54658 0.01347
  -1 -11   6 1813.34  412.42   1-0.57717 0.45046-0.57871-0.29182-0.57616 0.84375
  -1 -11   5 3245.90  532.72   1-0.58532 0.47109-0.54697-0.32074-0.59851 0.82170
  -1 -11   4 2153.19  437.31   1-0.59210 0.48841-0.51402-0.35036-0.62063 0.79918
  -1 -11   3  229.58  199.47   1-0.59780 0.50465-0.48103-0.38001-0.64127 0.77518
  -1 -11   2  721.32  263.02   1-0.60247 0.51985-0.44819-0.40953-0.66041 0.74968
  -1 -11   112524.37 1730.14   1-0.60627 0.53501-0.41607-0.43818-0.67772 0.72232
  -1 -11   0   90.97  149.99   1-0.60904 0.54833-0.38414-0.46673-0.69389 0.69389
  -1 -11  -1  136.36  192.58   1-0.61097 0.56080-0.35294-0.49454-0.70861 0.66401
  -1 -11  -2 6039.03  885.98   1-0.61214 0.57251-0.32267-0.52142-0.72191 0.63272
  -1 -11  -3  141.36  148.22   1-0.61263 0.58355-0.29352-0.54717-0.73384 0.60005
  -1 -11  -4  601.11  255.35   1-0.61242 0.59464-0.26663-0.57092-0.74420 0.56606
  -1 -11  -5 4213.94  687.52   1-0.61185 0.60466-0.24041-0.59375-0.75355 0.53087
  -1 -11  -6 1589.58  366.62   1-0.61089 0.61429-0.21587-0.61490-0.76171 0.49450
  -1 -11  -7  356.37  202.46   1-0.60965 0.62364-0.19319-0.63419-0.76876 0.45701
  -1 -11  -8 6646.71  987.08   1-0.60823 0.63280-0.17253-0.65146-0.77478 0.41850
  -1 -11  -9    3.50  134.46   1-0.60672 0.64188-0.15403-0.66657-0.77984 0.37903
   2 -11  -5   13.22  112.13   1-0.59280 0.85735-0.51029-0.32413-0.62304 0.39985
   2 -11  -4 2385.69  445.94   1-0.59006 0.84408-0.52451-0.31323-0.61376 0.43521
   2 -11  -3  544.63  185.29   1-0.58679 0.83026-0.54027-0.30080-0.60313 0.46922
   2 -11  -2  379.44  188.34   1-0.58294 0.81588-0.55735-0.28705-0.59120 0.50193
   2 -11  -1 3050.03  543.23   1-0.57848 0.80088-0.57554-0.27219-0.57801 0.53337
   2 -11   0   67.49  127.72   1-0.57337 0.78335-0.59288-0.25813-0.56544 0.56544
   2 -11   1 1008.40  298.46   1-0.56764 0.76699-0.61272-0.24154-0.54985 0.59445
   2 -11   2 2524.36  473.58   1-0.56121 0.74993-0.63312-0.22440-0.53308 0.62228
   2 -11   3  129.64  158.09   1-0.55406 0.73215-0.65392-0.20686-0.51516 0.64896
   2 -11   4 2593.26  498.18   1-0.54616 0.71363-0.67495-0.18908-0.49612 0.67452
   2 -11   5 2676.56  531.57   1-0.53750 0.69434-0.69607-0.17121-0.47598 0.69898
   2 -11   6  322.16  291.96   1-0.52593 0.67306-0.71752-0.15334-0.45667 0.72351
   2 -10 -10   50.10  105.57   1-0.53458 0.84911-0.32925-0.40920-0.77833 0.33399
   2 -10  -9  566.91  178.04   1-0.52270 0.82682-0.33205-0.40978-0.78518 0.38528
   2 -10  -8   27.83   90.67   1-0.50612 0.79983-0.33581-0.40940-0.79439 0.43892
   2 -10  -6 3046.91  500.78   1-0.60114 0.87353-0.45829-0.29543-0.65467 0.38684
   2 -10  -5   45.39  106.46   1-0.59896 0.86082-0.47350-0.28354-0.64578 0.42259
   2 -10  -4  286.60  162.44   1-0.59627 0.84759-0.49055-0.26983-0.63546 0.45691
   2 -10  -3   14.59  106.99   1-0.59301 0.83380-0.50914-0.25456-0.62377 0.48986
   2 -10  -2  338.43  169.31   1-0.58915 0.81940-0.52904-0.23800-0.61074 0.52147
   2 -10  -1 2684.96  351.44   1-0.58464 0.80435-0.54999-0.22037-0.59640 0.55176
   2 -10   0 3002.36  343.26   1-0.57943 0.78861-0.57178-0.20191-0.58078 0.58078
   2 -10   1  186.00  107.91   1-0.57350 0.77030-0.59241-0.18449-0.56580 0.61040
   2 -10   2  550.74  178.06   1-0.56686 0.75303-0.61529-0.16486-0.54778 0.63698
   2 -10   3  174.90  168.06   1-0.55945 0.73499-0.63843-0.14498-0.52859 0.66239
   2 -10   4   14.19  109.09   1-0.55123 0.71615-0.66166-0.12500-0.50826 0.68666
   2 -10   5 2011.46  428.89   1-0.54221 0.69649-0.68483-0.10508-0.48682 0.70982
   2 -10   6 2527.15  477.26   1-0.53022 0.67476-0.70815-0.08536-0.46624 0.73308
   2 -10   7 1262.68  326.89   1-0.51957 0.65350-0.73078-0.06606-0.44271 0.75403
   2 -10   8 1226.74  356.17   1-0.50808 0.63141-0.75295-0.04723-0.41821 0.77400
   2 -10   9  100.19  150.45   1-0.49576 0.60849-0.77456-0.02895-0.39276 0.79303
   2  -9 -12  344.71  189.82   1-0.58402 0.91648-0.31660-0.33786-0.74744 0.21423
   2  -9 -10 2085.40  378.19   1-0.57581 0.88745-0.31882-0.34240-0.75285 0.30851
   2  -9  -9 2034.08  375.23   1-0.56672 0.86795-0.32121-0.34338-0.75871 0.35880
   2  -9  -8  596.18  172.50   1-0.55340 0.84422-0.32463-0.34335-0.76704 0.41157
   2  -9  -7 1955.78  250.28   1-0.60747 0.88835-0.40341-0.26902-0.68427 0.37210
   2  -9  -7 2193.30  286.20   1-0.53488 0.81529-0.32918-0.34218-0.77816 0.46712
   2  -9  -6  347.34  154.69   1-0.60589 0.87623-0.41974-0.25607-0.67579 0.40821
   2  -9  -6  265.00  144.71   1-0.50982 0.77982-0.33498-0.33975-0.79237 0.52577
   2  -9  -5  645.18  138.51   1-0.60380 0.86297-0.43728-0.24240-0.66648 0.44329
   2  -9  -5  868.61  172.58   1-0.47136 0.73356-0.34156-0.33521-0.81310 0.59119
   2  -9  -4 6818.77  531.21   1-0.60121 0.84985-0.45772-0.22528-0.65499 0.47644
   2  -9  -4 6956.55  504.87   1-0.42672 0.67831-0.35002-0.33025-0.83390 0.65637
   2  -9  -3  529.64  176.12   1-0.59801 0.83611-0.47971-0.20663-0.64206 0.50815
   2  -9  -3  634.19  134.31   1-0.36719 0.60817-0.35969-0.32407-0.85778 0.72463
   2  -9  -2 1424.81  209.04   1-0.59414 0.82169-0.50293-0.18673-0.62773 0.53845
   2  -9  -1 2369.68  281.46   1-0.58954 0.80656-0.52712-0.16588-0.61202 0.56739
   2  -9   0 4565.69  430.34   1-0.58418 0.79066-0.55201-0.14432-0.59499 0.59499
   2  -9   1 1078.73  222.51   1-0.57801 0.77396-0.57736-0.12229-0.57666 0.62130
   2  -9   211420.75  799.15   1-0.57103 0.75466-0.60119-0.10160-0.55900 0.64820
   2  -9   3  651.24  188.25   1-0.56323 0.73623-0.62690-0.07914-0.53828 0.67208
   2  -9   5  176.82  134.66   1-0.54503 0.69677-0.67781-0.03474-0.49345 0.71644
   2  -9   6   84.66  150.01   1-0.53462 0.67573-0.70271-0.01310-0.46943 0.73702
   2  -9   7 7154.90  484.56   1-0.52124 0.65258-0.72737 0.00787-0.44635 0.75767
   2  -9   8 4997.65  774.70   1-0.50912 0.62986-0.75103 0.02819-0.42040 0.77619
   2  -9   9  242.71  188.48   1-0.49614 0.60628-0.77392 0.04774-0.39354 0.79381
   2  -9  10 1819.17  394.38   1-0.48231 0.58185-0.79594 0.06643-0.36583 0.81057
   2  -9  11 1309.97  337.45   1-0.46720 0.55673-0.81732 0.08569-0.33719 0.82626
   2  -9  12   65.30  136.37   1-0.45168 0.53058-0.83736 0.10241-0.30789 0.84142
   2  -8 -14  167.48  178.14   1-0.60887 0.95927-0.30959-0.26089-0.73035 0.10828
   2  -8 -13 1329.13  307.22   1-0.61240 0.95239-0.30855-0.26531-0.72784 0.15019
   2  -8 -12  433.64  173.08   1-0.61387 0.94345-0.30812-0.26912-0.72678 0.19357
   2  -8 -11  431.25  186.25   1-0.61300 0.93216-0.30838-0.27224-0.72741 0.23863
   2  -8 -10 2446.79  307.57   1-0.60940 0.91816-0.30943-0.27456-0.72998 0.28563
   2  -8  -9   92.66  157.53   1-0.60259 0.90094-0.31140-0.27597-0.73478 0.33487
   2  -8  -8  494.72  133.47   1-0.61148 0.90014-0.34185-0.24983-0.71359 0.35682
   2  -8  -8  590.27  179.94   1-0.59191 0.87984-0.31442-0.27633-0.74214 0.38667
   2  -8  -7 1026.13  167.33   1-0.61062 0.88874-0.35967-0.23540-0.70552 0.39334
   2  -8  -7 1204.29  209.44   1-0.57645 0.85397-0.31864-0.27549-0.75244 0.44140
   2  -8  -6 1763.17  246.09   1-0.60933 0.87690-0.38019-0.21828-0.69582 0.42824
   2  -8  -6 1617.44  225.30   1-0.55498 0.82210-0.32423-0.27328-0.76606 0.49946
   2  -8  -5 4808.99  329.83   1-0.60751 0.86453-0.40295-0.19890-0.68451 0.46152
   2  -8  -5 5121.59  327.62   1-0.52581 0.78251-0.33132-0.26957-0.78341 0.56124
   2  -8  -4 1351.45  205.52   1-0.60506 0.85154-0.42756-0.17769-0.67162 0.49324
   2  -8  -4 1600.70  216.72   1-0.48650 0.73279-0.34004-0.26423-0.80478 0.62704
   2  -8  -3 3808.97  300.00   1-0.60188 0.83729-0.45271-0.15626-0.65786 0.52394
   2  -8  -3 4446.92  271.05   1-0.42835 0.66629-0.34973-0.25689-0.83318 0.70004
   2  -8  -222621.13  638.57   1-0.59797 0.82284-0.47996-0.13233-0.64191 0.55264
   2  -8  -221667.94  488.93   1-0.35631 0.58364-0.36126-0.24885-0.86169 0.77293
   2  -8  -144195.89 2270.92   1-0.59322 0.80756-0.50799-0.10763-0.62451 0.57988
   2  -8  -140042.55 1983.17   1-0.25670 0.47198-0.37188-0.24224-0.89207 0.84767
   2  -8   0  465.38  141.65   1-0.58760 0.79139-0.53650-0.08246-0.60571 0.60571
   2  -8   1  733.96  197.04   1-0.58106 0.77432-0.56521-0.05707-0.58557 0.63021
   2  -8   2 5611.65  373.45   1-0.57359 0.75467-0.59208-0.03334-0.56605 0.65525
   2  -8   3 2938.30  322.54   1-0.56523 0.73567-0.62059-0.00809-0.54348 0.67728
   2  -8   4 1704.46  259.52   1-0.55592 0.71574-0.64868 0.01674-0.51976 0.69816
   2  -8   5  813.92  220.39   1-0.54568 0.69487-0.67619 0.04099-0.49497 0.71796
   2  -8   6 2002.43  310.41   1-0.53450 0.67306-0.70298 0.06453-0.46916 0.73676
   2  -8   7 2618.92  354.68   1-0.52034 0.64909-0.72922 0.08706-0.44439 0.75570
   2  -8   8  885.08  230.57   1-0.50739 0.62555-0.75421 0.10872-0.41677 0.77256
   2  -8  10 4381.50  358.30   1-0.47890 0.57585-0.80103 0.14887-0.35914 0.80387
   2  -8  11 1305.24  295.43   1-0.46295 0.54972-0.82302 0.16863-0.32908 0.81815
   2  -8  12  -30.27  119.20   1-0.44660 0.52274-0.84347 0.18575-0.29847 0.83200
   2  -8  13   37.15  140.10   1-0.42943 0.49495-0.86265 0.20161-0.26721 0.84520
   2  -8  14   46.12  143.72   1-0.41145 0.46635-0.88052 0.21614-0.23533 0.85778
   2  -7 -15  127.74  148.68   1-0.62344 0.98136-0.30526-0.18462-0.71981 0.05330
   2  -7 -14 1533.83  415.87   1-0.62986 0.97737-0.30329-0.18996-0.71503 0.09295
   2  -7 -13  122.20   95.97   1-0.63456 0.97166-0.30183-0.19480-0.71149 0.13384
   2  -7 -12  -27.61  111.46   1-0.63733 0.96402-0.30097-0.19905-0.70938 0.17617
   2  -7 -11   86.92   71.10   1-0.63791 0.95418-0.30078-0.20261-0.70893 0.22016
   2  -7 -10 8792.89 1332.72   1-0.63594 0.94181-0.30140-0.20537-0.71044 0.26609
   2  -7  -9  217.62  135.25   1-0.61259 0.90903-0.27139-0.23955-0.74234 0.34097
   2  -7  -9  564.93  143.73   1-0.63098 0.92643-0.30295-0.20720-0.71420 0.31429
   2  -7  -8  155.89  124.56   1-0.61264 0.89854-0.29125-0.22308-0.73473 0.37796
   2  -7  -8   82.42  106.99   1-0.62239 0.90743-0.30557-0.20796-0.72059 0.36511
   2  -7  -718749.72  509.32   1-0.61234 0.88769-0.31451-0.20321-0.72533 0.41316
   2  -7  -718609.06  579.88   1-0.60933 0.88397-0.30945-0.20746-0.73003 0.41899
   2  -7  -6 3866.99  321.61   1-0.61153 0.87634-0.34059-0.18052-0.71415 0.44657
   2  -7  -6 3785.19  340.59   1-0.59065 0.85487-0.31477-0.20551-0.74299 0.47639
   2  -7  -5  264.64  103.96   1-0.61008 0.86434-0.36892-0.15558-0.70120 0.47822
   2  -7  -5  197.83   94.68   1-0.56470 0.81851-0.32174-0.20193-0.75999 0.53782
   2  -7  -412559.16  535.40   1-0.60785 0.85157-0.39899-0.12890-0.68651 0.50813
   2  -7  -413265.02  541.10   1-0.52916 0.77257-0.33053-0.19651-0.78148 0.60375
   2  -7  -3   30.27   97.09   1-0.60471 0.83743-0.42934-0.10225-0.67080 0.53689
   2  -7  -3  109.65   93.76   1-0.47568 0.71058-0.34069-0.18880-0.81095 0.67781
   2  -7  -2  514.16  156.13   1-0.60068 0.82286-0.46160-0.07332-0.65276 0.56348
   2  -7  -2  394.19  102.34   1-0.40905 0.63333-0.35307-0.17990-0.84143 0.75267
   2  -7  -184519.63 1065.73   1-0.59564 0.80728-0.49428-0.04397-0.63315 0.58851
   2  -7   0 7591.43  428.08   1-0.58955 0.79066-0.52704-0.01454-0.61207 0.61207
   2  -7   0 7509.30  317.26   1-0.18725 0.38898-0.37775-0.16262-0.90677 0.90677
   2  -7   1 1928.12  242.78   1-0.58241 0.77298-0.55959 0.01467-0.58961 0.63425
   2  -7   1 2013.15  131.59   1-0.00202 0.19216-0.38336-0.16112-0.92359 0.96804
   2  -7   238423.58 1283.69   1-0.57421 0.75274-0.58981 0.04175-0.56779 0.65698
   2  -7   3  225.00  184.50   1-0.56501 0.73291-0.62128 0.06996-0.54291 0.67671
   2  -7   414311.76  637.24   1-0.55478 0.71205-0.65190 0.09732-0.51694 0.69534
   2  -7   5 2136.95  246.00   1-0.54355 0.69019-0.68151 0.12369-0.48997 0.71297
   2  -7   6 1364.36  214.56   1-0.52926 0.66603-0.71028 0.14882-0.46408 0.73092
   2  -7   719402.89  645.72   1-0.51617 0.64233-0.73757 0.17277-0.43537 0.74669
   2  -7   812566.51  558.20   1-0.50217 0.61774-0.76357 0.19543-0.40591 0.76170
   2  -7   9 2421.75  344.65   1-0.48731 0.59228-0.78824 0.21676-0.37576 0.77602
   2  -7  10 1668.78  278.40   1-0.47161 0.56598-0.81152 0.23671-0.34496 0.78970
   2  -7  11 9194.04  525.54   1-0.45466 0.53867-0.83368 0.25651-0.31345 0.80251
   2  -7  12  951.60  215.61   1-0.43734 0.51073-0.85409 0.27359-0.28151 0.81504
   2  -7  13 3312.41  559.16   1-0.41925 0.48201-0.87303 0.28921-0.24906 0.82705
   2  -7  14   91.14  138.97   1-0.40040 0.45253-0.89049 0.30334-0.21611 0.83856
   2  -7  15  910.52  291.01   1-0.38004 0.42172-0.90681 0.31668-0.18238 0.84962
   2  -6 -16 1361.75  392.46   1-0.62894 0.99438-0.30358-0.10570-0.71573 0.00478
   2  -6 -15  195.95  106.59   1-0.63778 0.99281-0.30082-0.11183-0.70903 0.04252
   2  -6 -14 2552.00  754.98   1-0.64511 0.98973-0.29849-0.11754-0.70336 0.08129
   2  -6 -13   97.32   76.02   1-0.65078 0.98500-0.29666-0.12275-0.69890 0.12125
   2  -6 -12  -50.19  128.01   1-0.65462 0.97842-0.29540-0.12739-0.69584 0.16263
   2  -6 -11 2932.87  740.59   1-0.65637 0.96976-0.29482-0.13135-0.69444 0.20566
   2  -6 -10  868.48  226.07   1-0.65571 0.95869-0.29504-0.13451-0.69497 0.25063
   2  -6  -9 1002.16  206.09   1-0.65219 0.94475-0.29620-0.13673-0.69779 0.29788
   2  -6  -8  563.80  114.72   1-0.61177 0.89549-0.23806-0.19906-0.75435 0.39808
   2  -6  -8  536.49  259.75   1-0.64521 0.92737-0.29846-0.13784-0.70328 0.34781
   2  -6  -7  -16.40   61.18   1-0.61254 0.88513-0.26696-0.17340-0.74398 0.43180
   2  -6  -7   32.46   52.93   1-0.63397 0.90571-0.30202-0.13766-0.71194 0.40090
   2  -6  -6  187.69  109.44   1-0.61256 0.87461-0.30094-0.14282-0.73088 0.46330
   2  -6  -6  173.44   91.14   1-0.61731 0.87865-0.30710-0.13597-0.72429 0.45769
   2  -6  -5  195.13  112.56   1-0.61167 0.86317-0.33702-0.11013-0.71572 0.49274
   2  -6  -5   59.87   79.18   1-0.59364 0.84456-0.31394-0.13250-0.74096 0.51879
   2  -6  -4 7255.35  334.02   1-0.60972 0.85068-0.37453-0.07602-0.69854 0.52015
   2  -6  -4 7384.70  362.81   1-0.56064 0.80115-0.32279-0.12703-0.76255 0.58481
   2  -6  -3  360.99  104.25   1-0.60659 0.83700-0.41280-0.04113-0.67943 0.54564
   2  -6  -3  516.07  123.48   1-0.51493 0.74503-0.33383-0.11937-0.78955 0.65625
   2  -6  -218977.03  649.07   1-0.60219 0.82167-0.45038-0.00717-0.65918 0.56990
   2  -6  -218680.81  607.49   1-0.44661 0.66786-0.34638-0.10946-0.82495 0.73618
   2  -6  -1  359.49  106.93   1-0.59656 0.80551-0.48878 0.02789-0.63655 0.59191
   2  -6  -1  342.68   81.53   1-0.35792 0.56856-0.36103-0.09830-0.86112 0.81674
   2  -6   0 4160.48  269.34   1-0.58966 0.78807-0.52654 0.06232-0.61241 0.61241
   2  -6   0 3843.60  173.58   1-0.23264 0.43148-0.37414-0.08903-0.89771 0.89771
   2  -6   1  -37.27   92.47   1-0.58151 0.76939-0.56335 0.09581-0.58691 0.63155
   2  -6   1  156.33   68.59   1-0.05498 0.24220-0.38297-0.08393-0.92211 0.96658
   2  -6   240679.32 1223.13   1-0.57218 0.74816-0.59714 0.12644-0.56215 0.65135
   2  -6   233709.05  902.00   1 0.19650-0.01921-0.37417-0.09602-0.90630 0.99519
   2  -6   3 3164.68  280.08   1-0.56173 0.72708-0.63154 0.15758-0.53441 0.66821
   2  -6   4 9278.40  454.22   1-0.55019 0.70491-0.66447 0.18726-0.50573 0.68412
   2  -6   5 3443.75  285.42   1-0.53760 0.68170-0.69584 0.21537-0.47621 0.69921
   2  -6   6   81.32  116.73   1-0.52199 0.65618-0.72581 0.24169-0.44800 0.71484
   2  -6   721217.42  838.20   1-0.50757 0.63115-0.75389 0.26644-0.41714 0.72845
   2  -6   8 9583.51  628.87   1-0.49228 0.60526-0.78030 0.28951-0.38572 0.74151
   2  -6   9  515.86  176.39   1-0.47617 0.57855-0.80503 0.31090-0.35380 0.75406
   2  -6  10 9846.47  508.15   1-0.45884 0.55072-0.82837 0.33176-0.32131 0.76592
   2  -6  11  102.88  136.42   1-0.44119 0.52245-0.84975 0.34981-0.28854 0.77760
   2  -6  12  120.57  191.72   1-0.42282 0.49345-0.86947 0.36621-0.25539 0.78891
   2  -6  13 1949.69  291.32   1-0.40374 0.46374-0.88755 0.38096-0.22189 0.79987
   2  -6  14  355.24  152.59   1-0.38320 0.43274-0.90438 0.39479-0.18771 0.81047
   2  -6  15 1901.55  402.08   1-0.36272 0.40164-0.91916 0.40627-0.15350 0.82074
   2  -6  16 1093.71  303.66   1-0.34155 0.36987-0.93230 0.41610-0.11896 0.83069
   2  -6  17 1340.60  325.87   1-0.31970 0.33741-0.94377 0.42427-0.08411 0.84032
   2  -5 -17  337.92  200.46   1-0.62603 0.99900-0.30447-0.02420-0.71789-0.03748
   2  -5 -16  436.05  192.40   1-0.63696 0.99951-0.30108-0.03097-0.70966-0.00128
   2  -5 -15 5819.25 1338.56   1-0.64651 0.99866-0.29804-0.03739-0.70227 0.03575
   2  -5 -14 1398.60  326.12   1-0.65459 0.99632-0.29541-0.04340-0.69587 0.07379
   2  -5 -13  520.14  129.25   1-0.66106 0.99238-0.29326-0.04893-0.69064 0.11300
   2  -5 -12 2283.70  504.84   1-0.66575 0.98666-0.29168-0.05389-0.68680 0.15359
   2  -5 -11 1438.36  420.74   1-0.66840 0.97891-0.29077-0.05817-0.68460 0.19582
   2  -5 -1010236.86 1517.90   1-0.66872 0.96881-0.29066-0.06166-0.68434 0.24000
   2  -5  -9  232.42   77.65   1-0.60494 0.89643-0.13498-0.22137-0.78474 0.38393
   2  -5  -9  397.19  120.07   1-0.66625 0.95593-0.29150-0.06420-0.68638 0.28648
   2  -5  -8  191.81   78.25   1-0.66041 0.93967-0.29348-0.06560-0.69117 0.33570
   2  -5  -720622.73  631.02   1-0.61095 0.88127-0.21725-0.14588-0.76126 0.44952
   2  -5  -721201.91  921.26   1-0.65037 0.91923-0.29679-0.06567-0.69922 0.38819
   2  -5  -6  301.28   88.26   1-0.61237 0.87210-0.26315-0.10338-0.74548 0.47827
   2  -5  -6  369.02  106.58   1-0.63500 0.89345-0.30170-0.06414-0.71115 0.44455
   2  -5  -5 3734.05  247.72   1-0.61244 0.86118-0.30899-0.06081-0.72761 0.50463
   2  -5  -5 3446.63  273.93   1-0.61265 0.86069-0.30848-0.06074-0.72766 0.50549
   2  -5  -414042.57  340.60   1-0.61075 0.84894-0.35729-0.01589-0.70662 0.52823
   2  -5  -413908.42  695.68   1-0.58094 0.81856-0.31744-0.05516-0.74949 0.57175
   2  -5  -3  866.51  105.70   1-0.60730 0.83495-0.40521 0.02862-0.68335 0.54956
   2  -5  -3 1009.12  134.52   1-0.53636 0.76357-0.32882-0.04715-0.77729 0.64399
   2  -5  -2 4820.60  295.12   1-0.60210 0.81890-0.45103 0.07083-0.65881 0.56954
   2  -5  -2 4607.32  294.14   1-0.46905 0.68726-0.34203-0.03667-0.81424 0.72548
   2  -5  -121325.88  578.38   1-0.59527 0.80153-0.49643 0.11290-0.63182 0.58718
   2  -5  -120751.82  530.58   1-0.38047 0.58807-0.35768-0.02451-0.85281 0.80843
   2  -5   0 9323.88  348.53   1-0.58688 0.78260-0.53986 0.15301-0.60341 0.60341
   2  -5   0 9480.31  240.03   1-0.25479 0.45074-0.37207-0.01390-0.89254 0.89254
   2  -5   1  132.41   77.93   1-0.57706 0.76112-0.57913 0.18905-0.57584 0.62044
   2  -5   1  158.78   51.71   1-0.07671 0.26126-0.38248-0.00717-0.92077 0.96524
   2  -5   2  602.95  141.11   1-0.56596 0.73939-0.61824 0.22490-0.54540 0.63459
   2  -5   2  369.86   63.76   1 0.16605 0.00799-0.37761-0.01558-0.91095 0.99984
   2  -5   323810.62  685.77   1-0.55366 0.71646-0.65503 0.25844-0.51418 0.64798
   2  -5   318978.99  437.18   1 0.46818-0.30467-0.33587-0.06053-0.81730 0.95053
   2  -5   410472.16  573.41   1-0.54028 0.69245-0.68950 0.28966-0.48236 0.66075
   2  -5   541798.08 1069.82   1-0.52387 0.66606-0.72190 0.31847-0.45211 0.67447
   2  -5   6  935.37  182.12   1-0.50865 0.64025-0.75189 0.34513-0.41942 0.68626
   2  -5   711012.58  501.68   1-0.49263 0.61362-0.77974 0.36963-0.38642 0.69773
   2  -5   8  226.58  159.37   1-0.47584 0.58623-0.80551 0.39207-0.35315 0.70894
   2  -5   923320.28  888.05   1-0.45793 0.55767-0.82955 0.41348-0.31959 0.71973
   2  -5  10   62.22  117.98   1-0.43976 0.52888-0.85138 0.43199-0.28591 0.73052
   2  -5  11 2378.58  262.56   1-0.42094 0.49944-0.87135 0.44864-0.25206 0.74113
   2  -5  12  439.55  147.22   1-0.40151 0.46938-0.88951 0.46347-0.21804 0.75157
   2  -5  13 8542.15  641.29   1-0.38070 0.43809-0.90630 0.47723-0.18350 0.76178
   2  -5  14    1.57  129.05   1-0.36005 0.40683-0.92093 0.48857-0.14911 0.77186
   2  -5  15  756.31  181.24   1-0.33881 0.37497-0.93385 0.49818-0.11454 0.78179
   2  -5  16  162.60  157.10   1-0.31697 0.34253-0.94507 0.50610-0.07981 0.79153
   2  -5  17  344.08  190.79   1-0.29400 0.30861-0.95474 0.51225-0.04495 0.80146
  -2   5 -18  474.01  145.02   1 0.27649-0.27827 0.96094-0.51323 0.01170-0.81188
   2  -5  18  670.81  240.58   1-0.27092 0.27493-0.96254 0.51673-0.00978 0.81079
   2  -4 -18  253.19  138.26   1-0.61499 0.99548-0.30779 0.05971-0.72598-0.07383
   2  -4 -17  844.15  263.12   1-0.62778 0.99786-0.30393 0.05247-0.71659-0.03878
   2  -4 -16   64.42   68.82   1-0.63928 0.99895-0.30035 0.04551-0.70788-0.00306
   2  -4 -15 8448.45 1803.07   1-0.64942 0.99868-0.29710 0.03889-0.69998 0.03347
   2  -4 -14 1642.93  481.27   1-0.65809 0.99694-0.29425 0.03266-0.69305 0.07097
   2  -4 -13  -76.78  126.18   1-0.66517 0.99360-0.29187 0.02690-0.68728 0.10963
   2  -4 -12  740.29  214.22   1-0.67047 0.98849-0.29006 0.02171-0.68288 0.14967
   2  -4 -11 5160.09 1050.24   1-0.67375 0.98137-0.28892 0.01720-0.68012 0.19134
   2  -4 -10  113.15   68.60   1-0.67470 0.97190-0.28860 0.01349-0.67932 0.23498
   2  -4  -9  225.06  108.15   1-0.67286 0.95965-0.28923 0.01075-0.68087 0.28097
   2  -4  -820167.16  584.55   1-0.59992 0.87801-0.09077-0.19160-0.79488 0.43861
   2  -4  -820980.12  756.30   1-0.66763 0.94401-0.29103 0.00917-0.68524 0.32977
   2  -4  -712175.72  390.68   1-0.60690 0.87440-0.15610-0.12965-0.77929 0.46754
   2  -4  -712620.59  573.95   1-0.65816 0.92413-0.29423 0.00898-0.69299 0.38195
   2  -4  -6 1019.62   89.97   1-0.61124 0.86815-0.22372-0.06543-0.75916 0.49195
   2  -4  -6 1314.23  346.07   1-0.64324 0.89880-0.29909 0.01047-0.70482 0.43821
   2  -4  -584212.18 1721.75   1-0.61265 0.85862-0.28912-0.00333-0.73557 0.51258
   2  -4  -586809.27 1920.24   1-0.62115 0.86629-0.30595 0.01395-0.72150 0.49933
   2  -4  -417939.70  454.87   1-0.61088 0.84631-0.35473 0.05889-0.70779 0.52941
   2  -4  -417928.63  528.03   1-0.58931 0.82405-0.31514 0.01976-0.74389 0.56616
   2  -4  -3  953.42   99.30   1-0.60620 0.83108-0.41676 0.11752-0.67736 0.54357
   2  -4  -3 1262.41  151.53   1-0.54396 0.76829-0.32697 0.02821-0.77277 0.63947
   2  -4  -2 3364.19  210.12   1-0.59898 0.81309-0.47336 0.17053-0.64586 0.55659
   2  -4  -2 3448.74  217.19   1-0.47511 0.69028-0.34080 0.03923-0.81124 0.72247
   2  -4  -131415.31  735.51   1-0.58961 0.79318-0.52679 0.22064-0.61224 0.56760
   2  -4  -131926.00  728.52   1-0.38308 0.58763-0.35728 0.05221-0.85181 0.80743
   2  -4   0106897.1 2119.70   1-0.57843 0.77147-0.57573 0.26625-0.57787 0.57787
   2  -4   0104101.3 2019.72   1-0.25208 0.44513-0.37233 0.06355-0.89320 0.89320
   2  -4   136714.74  853.48   1-0.56590 0.74741-0.61844 0.30572-0.54523 0.58983
   2  -4   134541.35  741.60   1-0.06743 0.24930-0.38271 0.07032-0.92140 0.96586
   2  -4   231624.78  767.90   1-0.55207 0.72295-0.65940 0.34343-0.51029 0.59949
   2  -4   228328.74  614.42   1 0.17683-0.00551-0.37686 0.06097-0.90922 0.99812
   2  -4   357086.95 1247.13   1-0.53720 0.69746-0.69677 0.37754-0.47530 0.60910
   2  -4   344262.68  889.07   1 0.46300-0.30230-0.33693 0.01776-0.81982 0.95304
   2  -4   443064.20 1005.65   1-0.51945 0.66967-0.73101 0.40826-0.44247 0.62036
   2  -4   515865.74  508.40   1-0.50301 0.64262-0.76210 0.43602-0.40764 0.63001
   2  -4   6 1940.77  205.29   1-0.48590 0.61491-0.79044 0.46102-0.37295 0.63979
   2  -4   7 2686.74  248.06   1-0.46783 0.58606-0.81647 0.48428-0.33838 0.64961
   2  -4   823856.64  813.69   1-0.44955 0.55716-0.83995 0.50443-0.30394 0.65962
   2  -4   970756.88 1022.63   1-0.43076 0.52774-0.86125 0.52241-0.26960 0.66974
   2  -4  10  716.26  164.20   1-0.41146 0.49782-0.88051 0.53835-0.23535 0.67995
   2  -4  11 9109.13  490.58   1-0.39092 0.46677-0.89824 0.55301-0.20083 0.69014
   2  -4  12 5104.65  437.54   1-0.37063 0.43587-0.91370 0.56517-0.16662 0.70042
  -2   4 -12 4638.43  623.74   1-0.91000 0.84278-0.16542 0.51577-0.38016-0.15390
   2  -4  13 7909.58  407.35   1-0.34986 0.40449-0.92739 0.57555-0.13243 0.71071
  -2   4 -13 7544.79  895.04   1-0.88565 0.82885-0.18450 0.53829-0.42611-0.15245
   2  -4  14  245.10  170.83   1-0.32861 0.37263-0.93933 0.58420-0.09824 0.72100
  -2   4 -14  327.98   90.84   1-0.86093 0.81454-0.20149 0.55874-0.46711-0.15596
   2  -4  15  -14.95  126.96   1-0.30638 0.33954-0.94974 0.59109-0.06413 0.73164
  -2   4 -16  617.46  151.05   1 0.28997-0.31076 0.95651-0.59286 0.03165-0.74292
   2  -4  16  856.77  251.97   1-0.28412 0.30668-0.95832 0.59635-0.02981 0.74182
  -2   4 -17  227.48  108.77   1 0.26677-0.27691 0.96375-0.59668-0.00254-0.75318
   2  -4  17  108.10  130.44   1-0.26135 0.27330-0.96523 0.59994 0.00459 0.75191
  -2   4 -18  832.21  240.81   1 0.24299-0.24247 0.96932-0.59883-0.03689-0.76328
   2  -4  18  760.80  226.15   1-0.23803 0.23937-0.97046 0.60185 0.03912 0.76188
   2  -3 -18  669.34  221.85   1-0.61027 0.98787-0.30918 0.13832-0.72936-0.07045
   2  -3 -17  311.15  157.95   1-0.62355 0.99074-0.30522 0.13099-0.71973-0.03564
   2  -3 -16  914.24  226.71   1-0.63550 0.99229-0.30154 0.12393-0.71077-0.00017
   2  -3 -15   35.69  107.02   1-0.64608 0.99245-0.29818 0.11719-0.70261 0.03609
   2  -3 -14 1527.73  404.90   1-0.65516 0.99112-0.29522 0.11085-0.69541 0.07333
   2  -3 -13 3732.23  956.27   1-0.66262 0.98817-0.29273 0.10498-0.68936 0.11172
   2  -3 -12 4331.77  929.77   1-0.66827 0.98341-0.29081 0.09969-0.68470 0.15149
   2  -3 -11 9962.82  625.12   1-0.67186 0.97659-0.28958 0.09507-0.68171 0.19293
   2  -3 -10 2066.54  541.69   1-0.67304 0.96736-0.28917 0.09129-0.68072 0.23638
   2  -3  -914281.56  692.09   1-0.67134 0.95525-0.28976 0.08850-0.68215 0.28224
   2  -3  -8 2259.78  692.61   1-0.66611 0.93960-0.29155 0.08691-0.68650 0.33102
   2  -3  -765473.30 1311.83   1-0.59777 0.86261-0.07253-0.13582-0.79837 0.48728
   2  -3  -773555.52 1742.33   1-0.65643 0.91951-0.29480 0.08678-0.69439 0.38335
   2  -3  -6 2980.35  153.80   1-0.60908 0.86318-0.18447-0.02730-0.77134 0.50414
   2  -3  -6 3551.75  668.12   1-0.64097 0.89364-0.29982 0.08842-0.70658 0.43997
   2  -3  -567074.72 1292.59   1-0.61263 0.85585-0.29196 0.07686-0.73445 0.51147
   2  -3  -571393.22 1531.91   1-0.61781 0.86008-0.30695 0.09217-0.72393 0.50176
   2  -3  -439024.36  795.20   1-0.60861 0.84128-0.38979 0.17130-0.69111 0.51273
   2  -3  -441356.39  954.54   1-0.58413 0.81598-0.31657 0.09841-0.74737 0.56964
   2  -3  -313893.87  378.44   1-0.59934 0.82129-0.47097 0.24885-0.64728 0.51336
   2  -3  -314372.79  454.94   1-0.53565 0.75709-0.32899 0.10746-0.77771 0.64441
   2  -3  -217023.03  452.61   1-0.58663 0.79805-0.54101 0.31555-0.60263 0.51335
   2  -3  -216814.68  483.46   1-0.46212 0.67424-0.34340 0.11897-0.81762 0.72886
   2  -3  -1 5837.84  216.65   1-0.57212 0.77233-0.59738 0.36854-0.56196 0.51736
   2  -3  -1 5768.94  228.29   1-0.36239 0.56390-0.36039 0.13247-0.85952 0.81514
   2  -3   0 1452.87  111.23   1-0.55622 0.74581-0.64783 0.41573-0.52050 0.52050
   2  -3   0 1612.80  123.46   1-0.22081 0.41097-0.37516 0.14357-0.90027 0.90027
   2  -3   119134.38  526.04   1-0.53953 0.71849-0.69128 0.45593-0.48064 0.52524
   2  -3   118156.01  476.94   1-0.02455 0.20375-0.38337 0.14824-0.92326 0.96773
   2  -3   2120494.8 1181.95   1-0.52034 0.68917-0.72921 0.49049-0.44439 0.53334
   2  -3   2108290.9  955.62   1 0.22531-0.05649-0.37171 0.13316-0.90059 0.98948
   2  -3   3187991.2 1702.18   1-0.50275 0.66098-0.76255 0.52049-0.40711 0.54053
   2  -3   3150481.7 1238.32   1 0.49300-0.33513-0.33059 0.08868-0.80476 0.93798
   2  -3   4  203.35  161.84   1-0.48484 0.63246-0.79208 0.54669-0.37084 0.54873
   2  -3   5121200.3 1021.43   1-0.46634 0.60307-0.81848 0.57018-0.33555 0.55785
   2  -3   6 1139.92  158.72   1-0.44782 0.57392-0.84203 0.59039-0.30072 0.56748
   2  -3   7 2875.13  220.68   1-0.42900 0.54447-0.86311 0.60815-0.26643 0.57765
   2  -3   8  161.68  136.49   1-0.40987 0.51472-0.88199 0.62370-0.23256 0.58825
   2  -3   932523.24  895.99   1-0.38969 0.48400-0.89924 0.63784-0.19873 0.59907
   2  -3  10 2485.34  227.38   1-0.36988 0.45358-0.91423 0.64953-0.16538 0.61021
   2  -3  11  316.86  118.92   1-0.34974 0.42283-0.92746 0.65946-0.13223 0.62154
   2  -3  1244277.16 1451.04   1-0.32923 0.39171-0.93902 0.66771-0.09922 0.63301
   2  -3  13  -97.90  119.64   1-0.30788 0.35959-0.94909 0.67429-0.06648 0.64499
  -2   3 -14  154.20  100.68   1 0.29244-0.33224 0.95563-0.67605 0.03533-0.65769
   2  -3  14  125.50  125.56   1-0.28659 0.32769-0.95746 0.67934-0.03357 0.65658
  -2   3 -14   26.51   97.31   1-0.90570 0.86226-0.16899 0.44899-0.38876-0.23431
  -2   3 -15 3060.49  757.32   1 0.27035-0.29949 0.96275-0.67975 0.00268-0.66949
   2  -3  15 3277.10  392.40   1-0.26487 0.29537-0.96428 0.68283-0.00068 0.66819
  -2   3 -15 2949.88  779.06   1-0.88336 0.85033-0.18616 0.46961-0.43012-0.23746
  -2   3 -16  106.98   76.36   1 0.24777-0.26627 0.96835-0.68192-0.03004-0.68122
   2  -3  16  287.00  232.78   1-0.24272 0.26261-0.96955 0.68479 0.03223 0.67977
  -2   3 -16   58.14   60.35   1-0.86020 0.83758-0.20197 0.48887-0.46825-0.24383
  -2   3 -17   70.33   70.45   1 0.22469-0.23253 0.97239-0.68255-0.06287-0.69285
   2  -3  17  252.39  195.39   1-0.22009 0.22938-0.97329 0.68520 0.06522 0.69128
  -2   3 -17  108.06   60.84   1-0.83825 0.82516-0.21517 0.50446-0.50102-0.25421
  -2   3 -18  655.78  178.12   1 0.20034-0.19848 0.97513-0.68094-0.09474-0.70492
   2  -3  18  550.20  182.69   1-0.19641 0.19531-0.97560 0.68460 0.09804 0.70225
  -2   3 -19  623.03  201.08   1 0.17616-0.16365 0.97602-0.67835-0.12782-0.71627
   2  -3  19 1134.33  292.86   1-0.17277 0.16107-0.97617 0.68189 0.13126 0.71349
   2  -2 -18  313.88  210.70   1-0.59904 0.97376-0.31241 0.21878-0.73724-0.06256
   2  -2 -17 1123.93  292.30   1-0.61268 0.97699-0.30847 0.21146-0.72763-0.02774
   2  -2 -16 2382.37  425.13   1-0.62496 0.97885-0.30479 0.20441-0.71869 0.00774
   2  -2 -15 1290.20  359.60   1-0.63579 0.97927-0.30145 0.19768-0.71055 0.04404
   2  -2 -14 2096.08  492.12   1-0.64507 0.97814-0.29851 0.19136-0.70340 0.08132
   2  -2 -13 6332.75 1159.49   1-0.65265 0.97531-0.29605 0.18552-0.69742 0.11977
   2  -2 -12  -39.05  133.87   1-0.65832 0.97057-0.29417 0.18027-0.69287 0.15966
   2  -2 -1112985.97  907.87   1-0.66180 0.96364-0.29301 0.17573-0.69004 0.20126
   2  -2 -10  -51.43  104.27   1-0.66272 0.95414-0.29270 0.17204-0.68929 0.24495
   2  -2  -9 3380.17  778.76   1-0.66053 0.94155-0.29343 0.16939-0.69107 0.29116
   2  -2  -810819.10  593.90   1-0.65452 0.92512-0.29543 0.16801-0.69593 0.34045
   2  -2  -7  422.47  130.24   1-0.64361 0.90381-0.29897 0.16818-0.70453 0.39349
   2  -2  -616287.33  515.13   1-0.62631 0.87610-0.30438 0.17021-0.71768 0.45108
   2  -2  -5 9319.70   99.98   1-0.60555 0.84589-0.42151 0.28342-0.67499 0.45180
   2  -2  -5 9438.12  295.22   1-0.60039 0.83977-0.31203 0.17448-0.73631 0.51414
   2  -2  -4 6324.01  165.25   1-0.57718 0.80673-0.57865 0.43694-0.57620 0.39780
   2  -2  -4 7042.02  290.08   1-0.56255 0.79151-0.32229 0.18136-0.76134 0.58361
   2  -2  -323664.84  262.39   1-0.55061 0.76953-0.66334 0.51837-0.50675 0.37295
   2  -2  -324973.93  437.53   1-0.50786 0.72641-0.33542 0.19111-0.79345 0.66014
   2  -2  -226456.89  308.88   1-0.52719 0.73584-0.71480 0.56678-0.45946 0.37052
   2  -2  -228250.17  444.64   1-0.42568 0.63475-0.35020 0.20291-0.83435 0.74559
   2  -2  -1 5518.74  182.93   1-0.50779 0.70584-0.75349 0.60213-0.41760 0.37313
   2  -2  -1 6155.96  224.87   1-0.31392 0.51182-0.36551 0.21456-0.87627 0.83186
   2  -2   054107.76  571.21   1-0.48977 0.67721-0.78435 0.62965-0.38066 0.38066
   2  -2   053845.10  597.89   1-0.15583 0.34309-0.37975 0.22536-0.91186 0.91186
   2  -2   1 4189.13  175.02   1-0.47244 0.64890-0.81005 0.65227-0.34727 0.39173
   2  -2   1 3689.88  156.98   1 0.05434 0.12215-0.38265 0.22470-0.92229 0.96673
   2  -2   229499.48  428.91   1-0.45533 0.62116-0.83284 0.67173-0.31470 0.40362
   2  -2   226036.30  352.91   1 0.30380-0.13780-0.36325 0.20191-0.88076 0.96965
   2  -2   3  777.14   87.87   1-0.43829 0.59350-0.85303 0.68860-0.28323 0.41661
   2  -2   3  638.34   70.57   1 0.54860-0.39321-0.31659 0.15130-0.77382 0.90691
   2  -2   4  735.02  111.86   1-0.42118 0.56576-0.87112 0.70337-0.25247 0.43031
   2  -2   5115193.0 1188.31   1-0.40390 0.53787-0.88740 0.71632-0.22218 0.44448
   2  -2   625835.33  516.06   1-0.38575 0.50912-0.90239 0.72813-0.19202 0.45892
   2  -2   7 4017.97  259.15   1-0.36793 0.48070-0.91560 0.73803-0.16214 0.47352
   2  -2   8  759.60  141.72   1-0.34982 0.45198-0.92741 0.74654-0.13237 0.48823
   2  -2   915782.33  526.36   1-0.33139 0.42294-0.93788 0.75372-0.10266 0.50301
   2  -2  1011523.69  617.00   1-0.31261 0.39355-0.94707 0.75960-0.07297 0.51779
   2  -2  11  131.56  109.99   1-0.29304 0.36330-0.95510 0.76415-0.04348 0.53298
  -2   2 -1220847.58  823.77   1 0.27897-0.33778 0.96017-0.76466 0.01534-0.54880
   2  -2  1222217.07  824.73   1-0.27350 0.33315-0.96177 0.76749-0.01367 0.54768
  -2   2 -13  286.54  107.46   1 0.25870-0.30686 0.96585-0.76691-0.01428-0.56362
   2  -2  13  285.58   96.64   1-0.25355 0.30260-0.96718 0.76958 0.01622 0.56229
  -2   2 -1420262.04 1354.01   1 0.23796-0.27547 0.97027-0.76791-0.04407-0.57828
   2  -2  1423630.73  681.04   1-0.23318 0.27162-0.97133 0.77040 0.04622 0.57678
  -2   2 -15 4370.05  815.63   1 0.21675-0.24360 0.97341-0.76763-0.07403-0.59277
   2  -2  15 4922.27  352.94   1-0.21168 0.23971-0.97435 0.77049 0.07626 0.59065
  -2   2 -15 4314.18 1004.62   1-0.91216 0.88208-0.16358 0.36979-0.37574-0.29184
  -2   2 -16   42.43   83.42   1 0.19434-0.21127 0.97550-0.76545-0.10300-0.60781
   2  -2  16  172.86  126.59   1-0.19040 0.20783-0.97590 0.76875 0.10655 0.60482
  -2   2 -16  312.00   87.36   1-0.89153 0.87186-0.18013 0.38979-0.41559-0.29650
  -2   2 -17  282.23  108.72   1 0.17210-0.17838 0.97601-0.76248-0.13331-0.62193
   2  -2  17  248.64  185.62   1-0.16863 0.17546-0.97611 0.76567 0.13700 0.61882
  -2   2 -17  309.48   85.97   1-0.86989 0.86063-0.19557 0.40867-0.45281-0.30378
  -2   2 -18  263.30  162.94   1 0.14930-0.14493 0.97512-0.75810-0.16385-0.63582
  -2   2 -18  192.73  152.24   1-0.84912 0.84932-0.20863 0.42402-0.48524-0.31441
  -2   2 -19  218.28  104.62   1 0.12591-0.11090 0.97275-0.75226-0.19464-0.64946
  -2   2 -19  108.58  144.18   1-0.82564 0.83626-0.22241 0.44118-0.51849-0.32559
  -2   2 -20   57.20   81.34   1 0.10307-0.07675 0.96870-0.74484-0.22580-0.66280
   2  -1 -18  250.66  207.06   1-0.58043 0.95225-0.31757 0.30117-0.74982-0.04998
   2  -1 -17  -24.04  137.01   1-0.59427 0.95569-0.31376 0.29398-0.74052-0.01485
   2  -1 -16  121.11  127.27   1-0.60667 0.95768-0.31023 0.28706-0.73191 0.02096
   2  -1 -15   70.46  112.89   1-0.61752 0.95812-0.30703 0.28049-0.72414 0.05763
   2  -1 -14  185.73   63.98   1-0.62671 0.95689-0.30426 0.27434-0.71739 0.09531
   2  -1 -13   90.23   62.10   1-0.63405 0.95382-0.30199 0.26869-0.71188 0.13423
   2  -1 -12 5685.48  740.08   1-0.63930 0.94866-0.30034 0.26367-0.70786 0.17465
   2  -1 -11 2773.79  717.27   1-0.64215 0.94110-0.29944 0.25938-0.70567 0.21689
   2  -1 -10 1719.11  453.34   1-0.64213 0.93067-0.29945 0.25601-0.70568 0.26134
   2  -1  -9 7085.24  332.20   1-0.11258 0.39338 0.86888-0.91570-0.48204 0.08203
   2  -1  -9 8683.92  647.07   1-0.63863 0.91676-0.30056 0.25374-0.70838 0.30847
   2  -1  -8 2071.82   80.34   1-0.13651 0.40661 0.85064-0.90084-0.50770 0.15213
   2  -1  -8 2587.15  673.86   1-0.63077 0.89848-0.30301 0.25282-0.71435 0.35888
   2  -1  -7 6797.89  263.91   1-0.18902 0.44840 0.80417-0.85753-0.56353 0.25211
   2  -1  -7 8048.24  471.78   1-0.61728 0.87459-0.30710 0.25353-0.72431 0.41327
   2  -1  -619301.44  552.52   1-0.59637 0.84326-0.31317 0.25622-0.73909 0.47248
   2  -1  -5 9537.07  361.58   1-0.56534 0.80183-0.32157 0.26124-0.75958 0.53741
   2  -1  -418584.08  538.88   1-0.52025 0.74632-0.33261 0.26890-0.78657 0.60884
   2  -1  -3   26.74   54.83   1-0.45217 0.66882-0.34533 0.27867-0.82236 0.68921
  -2   1   264595.81  508.48   1 0.09388-0.29969 0.96682-0.89645-0.23756 0.32642
  -2   1   1128686.8 1007.35   1 0.24148-0.43651 0.96961-0.89581-0.03905 0.08350
   2  -1  -1136828.0 1046.16   1-0.24407 0.43892-0.96928 0.89540 0.03024-0.07474
   2  -1  -1147829.1 1283.55   1-0.22967 0.42468-0.37440 0.30064-0.89836 0.85396
   2  -1   134490.41  466.78   1-0.31038 0.48402-0.94800 0.86747-0.07038 0.11488
   2  -1   135865.39  442.08   1 0.16902 0.00474-0.37741 0.29677-0.91048 0.95493
   2  -1   265892.42  666.48   1-0.31602 0.47908-0.94551 0.86167-0.07832 0.16729
   2  -1   258526.68  603.31   1 0.40838-0.24540-0.34720 0.26317-0.84419 0.93301
   2  -1   3 5008.38  192.36   1-0.31462 0.46706-0.94616 0.85902-0.07611 0.20956
   2  -1   4 7652.12  275.68   1-0.30873 0.45056-0.94872 0.85823-0.06780 0.24581
   2  -1   5 5964.62  255.60   1-0.30030 0.43152-0.95227 0.85846-0.05468 0.27718
  -2   1  -669155.12  822.48   1 0.29454-0.41498 0.95486-0.85710 0.03847-0.30520
   2  -1   674536.87  877.73   1-0.28984 0.41046-0.95629 0.85915-0.03855 0.30556
  -2   1  -7  978.06  221.30   1 0.28259-0.39238 0.95901-0.85783 0.02070-0.33188
   2  -1   7 1364.99  170.47   1-0.27783 0.38785-0.96041 0.85995-0.02023 0.33174
  -2   1  -848924.50 1212.48   1 0.26931-0.36844 0.96305-0.85845 0.00116-0.35679
   2  -1   851440.14 1144.99   1-0.26458 0.36399-0.96436 0.86057-0.00024 0.35624
  -2   1  -947495.21 1162.33   1 0.25491-0.34339 0.96676-0.85874-0.01976-0.38032
   2  -1   949610.71 1130.87   1-0.25029 0.33909-0.96794 0.86083 0.02106 0.37944
  -2   1 -10  377.92  122.23   1 0.23954-0.31737 0.96998-0.85854-0.04182-0.40271
   2  -1  10  428.81  109.28   1-0.23509 0.31329-0.97100 0.86057 0.04343 0.40157
  -2   1 -11  111.26  125.61   1 0.22331-0.29048 0.97258-0.85772-0.06482-0.42417
   2  -1  11  160.58  106.56   1-0.21908 0.28668-0.97342 0.85966 0.06668 0.42282
  -2   1 -1225325.67  891.01   1 0.20566-0.26266 0.97471-0.85576-0.08738-0.44573
   2  -1  1227539.91  908.44   1-0.20150 0.25865-0.97526 0.85854 0.09082 0.44271
  -2   1 -13 3105.74  592.07   1 0.18791-0.23426 0.97579-0.85336-0.11183-0.46571
   2  -1  13 3185.39  245.91   1-0.18405 0.23061-0.97610 0.85609 0.11548 0.46250
  -2   1 -1413842.70  821.35   1 0.16944-0.20515 0.97598-0.85007-0.13690-0.48506
   2  -1  1414993.17  882.31   1-0.16594 0.20190-0.97604 0.85274 0.14073 0.48172
  -2   1 -15 1946.72  419.88   1 0.15030-0.17536 0.97518-0.84579-0.16253-0.50386
  -2   1 -16   35.38   49.16   1 0.13047-0.14489 0.97333-0.84045-0.18867-0.52214
  -2   1 -16   74.05   66.72   1-0.91120 0.89448-0.16441 0.29682-0.37773-0.33436
  -2   1 -17 1437.31  285.71   1 0.10998-0.11375 0.97033-0.83397-0.21530-0.53994
  -2   1 -17 1394.01  318.67   1-0.89162 0.88531-0.18006 0.31592-0.41542-0.34117
  -2   1 -18  686.73  184.27   1 0.08989-0.08263 0.96594-0.82631-0.24263-0.55712
  -2   1 -18  740.81  255.15   1-0.87098 0.87509-0.19482 0.33414-0.45101-0.35008
  -2   1 -19   69.75   72.99   1 0.06804-0.05012 0.96040-0.81730-0.27017-0.57401
  -2   1 -19   94.93   63.40   1-0.85103 0.86452-0.20744 0.34894-0.48238-0.36170
  -2   1 -20  533.04  132.30   1 0.04546-0.01689 0.95343-0.80687-0.29814-0.59047
  -2   1 -20  515.98  142.52   1-0.82844 0.85235-0.22083 0.36571-0.51469-0.37382
   2   0 -18   80.98  187.34   1-0.55318 0.92212-0.32468 0.38550-0.76717-0.03263
   2   0 -17 1517.78  329.59   1-0.56703 0.92556-0.32113 0.37857-0.75851 0.00313
   2   0 -16  334.16  177.27   1-0.57928 0.92740-0.31788 0.37194-0.75058 0.03963
   2   0 -15   -7.38  104.94   1-0.58983 0.92754-0.31500 0.36568-0.74354 0.07703
   2   0 -14 8627.83  649.84   1-0.59852 0.92582-0.31256 0.35987-0.73761 0.11553
   2   0 -13  137.94  105.92   1-0.60513 0.92202-0.31067 0.35460-0.73300 0.15535
   2   0 -12  352.94  162.30   1-0.60937 0.91584-0.30944 0.34999-0.73000 0.19679
   2   0 -1118491.52  611.14   1 0.14107 0.15823 0.97445-0.93616-0.17474-0.31394
   2   0 -1124885.67  921.89   1-0.61083 0.90689-0.30901 0.34618-0.72896 0.24018
   2   0 -10 3038.99  219.36   1 0.17827 0.11040 0.97601-0.94120-0.12496-0.31929
  -2   0  10 3225.49  147.01   1-0.17095-0.11665-0.97615 0.94328 0.13379 0.31081
   2   0 -10 3539.71  253.80   1-0.60896 0.89461-0.30956 0.34335-0.73029 0.28595
   2   0  -9    8.08   19.87   1 0.21834 0.05968 0.97337-0.94204-0.06970-0.33012
  -2   0   9  127.11   72.47   1-0.20873-0.06828-0.97465 0.94507 0.08049 0.31965
   2   0  -9   54.02  110.16   1-0.60298 0.87822-0.31129 0.34170-0.73451 0.33460
   2   0  -822598.62  534.83   1 0.26390 0.00339 0.96452-0.93715-0.00672-0.34890
  -2   0   824181.20  549.81   1-0.25290-0.01351-0.96733 0.94075 0.01717 0.33882
   2   0  -828056.74  785.21   1-0.59179 0.85662-0.31445 0.34148-0.74222 0.38674
  -2   0   7   -5.15   28.20   1-0.30211 0.04630-0.95153 0.92827-0.05750 0.36900
   2   0  -7  -11.45   77.35   1-0.57384 0.82826-0.31934 0.34299-0.75413 0.44309
  -2   0   6 9664.98  237.08   1-0.36413 0.11896-0.91821 0.89840-0.15584 0.42273
   2   0  -610990.81  375.13   1-0.54684 0.79085-0.32626 0.34654-0.77104 0.50443
  -2   0   5 3457.47  116.20   1-0.44710 0.21241-0.84289 0.82626-0.29939 0.52169
   2   0  -5 3634.73  201.92   1-0.50750 0.74109-0.33550 0.35239-0.79364 0.57147
  -2   0   429222.28  288.26   1-0.55319 0.32874-0.65632 0.64330-0.51304 0.69143
  -2   0   341503.57  372.06   1-0.61141 0.39751-0.22783 0.21766-0.75780 0.89140
   2   0  -343490.68  619.23   1-0.36825 0.58185-0.35953 0.37001-0.85739 0.72424
  -2   0   1135876.1 1046.45   1-0.26061 0.06784 0.72930-0.73275-0.63260 0.67709
   2   0  -1142339.9 1245.94   1-0.10440 0.29671-0.38157 0.38492-0.91842 0.87395
  -2   0   0299745.9 2185.52   1-0.09102-0.09102 0.88405-0.88405-0.45842 0.45842
   2   0   0315148.311295.25   1 0.09083 0.09083-0.38154 0.38154-0.91987 0.91987
  -2   0  -116987.68  428.21   1 0.01438-0.18598 0.94179-0.93833-0.33588 0.29144
   2   0   116707.32  438.91   1 0.31223-0.14119-0.36218 0.35873-0.87825 0.92270
  -2   0  -2 1462.70  279.36   1 0.07833-0.23928 0.96316-0.95623-0.25726 0.16839
   2   0   2 1178.19   93.67   1 0.52533-0.36471-0.32232 0.31501-0.78748 0.87621
  -2   0  -3148644.1 1273.97   1 0.11643-0.26672 0.97139-0.96095-0.20696 0.07369
  -2   0  -4 7068.56  250.42   1 0.13915-0.27880 0.97427-0.96034-0.17728-0.00042
  -2   0  -512739.29  451.73   1 0.15158-0.28059 0.97527-0.95786-0.16082-0.06130
  -2   0  -6  264.73   86.08   1 0.15697-0.27534 0.97557-0.95469-0.15363-0.11292
  -2   0  -736142.09  564.73   1 0.15733-0.26505 0.97559-0.95122-0.15315-0.15783
  -2   0  -8 8311.87  268.90   1 0.15395-0.25102 0.97541-0.94756-0.15766-0.19774
  -2   0  -9 6257.78  360.65   1 0.14768-0.23410 0.97500-0.94367-0.16600-0.23382
  -2   0 -10  797.21  196.55   1 0.13910-0.21488 0.97426-0.93945-0.17734-0.26691
  -2   0 -11 2061.28  516.94   1 0.12863-0.19377 0.97310-0.93481-0.19108-0.29760
  -2   0 -1211584.03  508.68   1 0.11657-0.17107 0.97141-0.92964-0.20677-0.32633
  -2   0 -13    6.36   52.77   1 0.10404-0.14779 0.96888-0.92386-0.22457-0.35302
  -2   0 -14  639.79  165.95   1 0.08940-0.12250 0.96583-0.91734-0.24326-0.37876
  -2   0 -15  676.49  161.68   1 0.07366-0.09610 0.96194-0.90999-0.26313-0.40332
  -2   0 -16  128.97  108.36   1 0.05689-0.06868 0.95712-0.90171-0.28404-0.42684
  -2   0 -17  119.10   93.75   1 0.03916-0.04030 0.95126-0.89239-0.30586-0.44945
  -2   0 -17   48.12   58.54   1-0.90524 0.90188-0.16937 0.22799-0.38967-0.36691
  -2   0 -18   69.29   86.19   1 0.02050-0.01099 0.94427-0.88193-0.32851-0.47123
  -2   0 -18   55.19   67.78   1-0.88625 0.89331-0.18405 0.24612-0.42505-0.37605
  -2   0 -19   33.56   60.55   1 0.00086 0.01956 0.93557-0.87039-0.35312-0.49195
  -2   0 -19  159.77   70.60   1-0.86621 0.88367-0.19803 0.26355-0.45875-0.38685
  -2   0 -20   -6.32  102.48   1-0.01958 0.05068 0.92590-0.85729-0.37724-0.51231
  -2   0 -20  147.10  127.08   1-0.84675 0.87353-0.21007 0.27768-0.48874-0.39977
   2   1 -18  170.49  180.75   1-0.51563 0.88168-0.33367 0.47171-0.78916-0.01064
   2   1 -17   32.74  115.91   1-0.52917 0.88481-0.33053 0.46520-0.78148 0.02610
   2   1 -16  346.95  198.58   1-0.54091 0.88614-0.32772 0.45900-0.77459 0.06365
   2   1 -15   43.32  110.06   1-0.55070 0.88552-0.32530 0.45321-0.76869 0.10218
   2   1 -14 2879.72  318.52   1-0.55833 0.88274-0.32338 0.44791-0.76399 0.14191
   2   1 -13   76.71   36.71   1 0.22694 0.09133 0.97207-0.85036-0.05970-0.51820
   2   1 -13    1.16   88.33   1-0.56353 0.87752-0.32204 0.44319-0.76073 0.18309
   2   1 -12   37.02   32.97   1 0.26840 0.03921 0.96330-0.84501-0.00015-0.53329
  -2  -1  12   -1.78   57.74   1-0.25977-0.04640-0.96564 0.84856 0.00696 0.52704
   2   1 -12  -13.31   84.62   1-0.56590 0.86949-0.32143 0.43920-0.75923 0.22602
  -2  -1  11 5246.70  222.32   1-0.30100 0.00542-0.95199 0.83823-0.05577 0.54528
   2   1 -11 6493.70  388.63   1-0.56493 0.85811-0.32168 0.43607-0.75984 0.27106
  -2  -1  10  464.95  101.88   1-0.34469 0.05984-0.93048 0.82024-0.12405 0.56887
   2   1 -10  471.23  134.37   1-0.55991 0.84267-0.32297 0.43399-0.76300 0.31866
  -2  -1   9  210.03   62.90   1-0.38971 0.11547-0.89922 0.79228-0.19877 0.59912
   2   1  -9  193.88  131.31   1-0.54981 0.82216-0.32553 0.43316-0.76924 0.36933
  -2  -1   833955.07  775.80   1-0.43830 0.17450-0.85302 0.74919-0.28326 0.63894
   2   1  -838584.48  969.91   1-0.53323 0.79517-0.32957 0.43382-0.77912 0.42365
  -2  -1   710967.00  311.08   1-0.48801 0.23412-0.78714 0.68643-0.37715 0.68847
   2   1  -712224.20  413.62   1-0.50816 0.75969-0.33535 0.43623-0.79328 0.48224
  -2  -1   6  144.84   46.93   1-0.53870 0.29553-0.69326 0.59638-0.47872 0.74631
  -2  -1   520660.61  792.27   1-0.58240 0.35013-0.55964 0.46562-0.58958 0.81277
   2   1  -522360.90  892.71   1-0.41732 0.64909-0.35166 0.44627-0.83795 0.61604
  -2  -1   416969.75  438.59   1-0.60970 0.38808-0.37474 0.28383-0.69844 0.87682
   2   1  -418135.71  512.59   1-0.34479 0.56595-0.36288 0.45399-0.86569 0.68816
  -2  -1   343293.69  470.52   1-0.60520 0.39411-0.13757 0.05002-0.78409 0.91769
   2   1  -344705.26  572.05   1-0.24559 0.45610-0.37296 0.46047-0.89475 0.76153
  -2  -1   2104284.9  897.57   1-0.55857 0.35800 0.13498-0.21939-0.81839 0.90758
   2   1  -2100490.1  958.65   1-0.11035 0.31056-0.38134 0.46529-0.91782 0.82888
  -2  -1   1450958.516128.22   1-0.46920 0.27925 0.38964-0.47059-0.79247 0.83699
   2   1  -1437361.815659.34   1 0.06370 0.12588-0.38241 0.46305-0.92179 0.87734
  -2  -1   0154821.9 1253.47   1-0.36203 0.18237 0.59281-0.67025-0.71937 0.71937
   2   1   0149232.7 1254.58   1 0.26484-0.08593-0.36778 0.44499-0.89140 0.89140
  -2  -1  -1221100.7 1724.95   1-0.26016 0.09119 0.72982-0.80392-0.63219 0.58770
   2   1   1195080.3 1565.89   1 0.46939-0.30130-0.33562 0.40948-0.81671 0.86112
  -2  -1  -210469.07  305.94   1-0.17554 0.01716 0.81764-0.88805-0.54830 0.45941
  -2  -1  -3   15.33   42.30   1-0.11080-0.03687 0.87018-0.93722-0.48011 0.34677
  -2  -1  -4 8936.98  295.56   1-0.06290-0.07418 0.90204-0.96562-0.42703 0.24912
  -2  -1  -5 2060.98  142.55   1-0.02884-0.09758 0.92119-0.98134-0.38803 0.16564
  -2  -1  -6181004.7 1649.28   1-0.00535-0.11042 0.93274-0.98946-0.36050 0.09363
  -2  -1  -7155621.8 1532.51   1 0.00968-0.11511 0.93982-0.99288-0.34150 0.03049
  -2  -1  -848718.16 1110.00   1 0.01886-0.11364 0.94361-0.99320-0.33049-0.02494
  -2  -1  -9 6345.38  341.03   1 0.02312-0.10725 0.94530-0.99143-0.32535-0.07451
  -2  -1 -1012103.31  662.96   1 0.02346-0.09694 0.94544-0.98810-0.32494-0.11936
  -2  -1 -1112505.50  389.81   1 0.02062-0.08344 0.94432-0.98352-0.32837-0.16036
  -2  -1 -1227004.40 1024.40   1 0.01514-0.06731 0.94210-0.97784-0.33496-0.19820
  -2  -1 -13   95.24   77.40   1 0.00743-0.04895 0.93887-0.97114-0.34419-0.23340
  -2  -1 -14 2679.96  567.63   1-0.00206-0.02845 0.93425-0.96353-0.35661-0.26608
  -2  -1 -1524306.89  630.50   1-0.01338-0.00647 0.92894-0.95479-0.36997-0.29719
  -2  -1 -16 1386.32  258.09   1-0.02620 0.01699 0.92255-0.94497-0.38496-0.32668
  -2  -1 -17  317.96  128.77   1-0.04037 0.04183 0.91502-0.93401-0.40136-0.35476
  -2  -1 -17  331.87  158.86   1-0.91300 0.91259-0.16287 0.14425-0.37402-0.38257
  -2  -1 -18 3290.42  282.77   1-0.05580 0.06792 0.90626-0.92182-0.41900-0.38160
  -2  -1 -18 3632.58  846.71   1-0.89535 0.90535-0.17722 0.16205-0.40857-0.39252
  -2  -1 -19   59.70  135.34   1-0.07242 0.09519 0.89617-0.90830-0.43775-0.40733
  -2  -1 -19  134.16   64.93   1-0.87663 0.89704-0.19094 0.17921-0.44164-0.40396
  -2  -1 -20   84.49  144.52   1-0.09018 0.12360 0.88462-0.89332-0.45749-0.43207
  -2  -1 -20  103.32   86.01   1-0.85686 0.88769-0.20410 0.19583-0.47340-0.41670
   2   2 -18    2.73  104.75   1-0.46110 0.82774-0.34360 0.56077-0.81811 0.01923
   2   2 -17  -19.81  104.77   1-0.47404 0.83007-0.34102 0.55470-0.81177 0.05727
   2   2 -16 5067.04  765.83   1-0.48897 0.83131-0.33952 0.54803-0.80350 0.09256
   2   2 -15 -147.53  114.66   1-0.49735 0.82928-0.33773 0.54286-0.79910 0.13259
  -2  -2  14 6341.93  460.25   1-0.28306-0.04166-0.95868 0.75776-0.02818 0.65119
   2   2 -14 8018.21  616.84   1-0.50313 0.82465-0.33647 0.53822-0.79601 0.17393
  -2  -2  13   43.84   72.34   1-0.32263 0.00871-0.94235 0.74497-0.08875 0.66703
   2   2 -13   34.71   98.65   1-0.50594 0.81705-0.33585 0.53422-0.79449 0.21685
  -2  -2  12 1220.80  148.32   1-0.36153 0.05822-0.91995 0.72588-0.15155 0.68534
   2   2 -12 1421.92  201.06   1-0.50526 0.80596-0.33600 0.53099-0.79486 0.26165
  -2  -2  1133516.28 1066.67   1-0.40173 0.10882-0.88932 0.69829-0.21842 0.70749
   2   2 -1137039.15 1237.47   1-0.50040 0.79069-0.33706 0.52868-0.79748 0.30870
  -2  -2  10  751.42  121.12   1-0.44048 0.15819-0.85057 0.66286-0.28722 0.73183
   2   2 -10 1000.86  171.97   1-0.49039 0.77026-0.33922 0.52746-0.80277 0.35843
  -2  -2   9  610.15  102.65   1-0.47946 0.20694-0.80022 0.61549-0.36022 0.76048
   2   2  -9  770.49  126.28   1-0.47077 0.74194-0.34168 0.52741-0.81340 0.41395
  -2  -2   8 3000.42  218.87   1-0.51621 0.25430-0.73749 0.55609-0.43546 0.79125
   2   2  -8 3260.58  248.45   1-0.44619 0.70674-0.34646 0.52869-0.82515 0.47009
  -2  -2   7  642.99   90.06   1-0.55247 0.30122-0.65831 0.48080-0.51126 0.82346
   2   2  -7  624.54  103.79   1-0.41075 0.66070-0.35278 0.53152-0.84072 0.53004
  -2  -2   6 2786.63  185.93   1-0.58221 0.34210-0.56042 0.38570-0.58902 0.85685
   2   2  -6 3099.93  200.41   1-0.36091 0.60025-0.36060 0.53585-0.86005 0.59376
  -2  -2   5 6024.55  298.78   1-0.60330 0.37372-0.44152 0.27013-0.66414 0.88732
   2   2  -5 6811.17  333.32   1-0.29353 0.52244-0.36795 0.53954-0.88229 0.66026
  -2  -2   434467.81  500.32   1-0.61257 0.39372-0.29965 0.13138-0.73140 0.90979
   2   2  -434076.39  496.60   1-0.19960 0.41786-0.37685 0.54500-0.90451 0.72688
  -2  -2   337541.96  501.90   1-0.60530 0.39703-0.13865-0.02627-0.78382 0.91742
   2   2  -338232.75  501.56   1-0.07596 0.28407-0.38250 0.54704-0.92082 0.78742
  -2  -2   237674.51  494.03   1-0.57937 0.38177 0.03446-0.19608-0.81433 0.90321
   2   2  -235679.51  461.46   1 0.08208 0.11541-0.38185 0.54313-0.92056 0.83167
  -2  -2   126439.79  396.45   1-0.53709 0.34980 0.20892-0.36726-0.81724 0.86183
   2   2  -124650.61  358.01   1 0.26419-0.07741-0.36785 0.52573-0.89156 0.84711
  -2  -2   025045.19  375.57   1-0.47878 0.30217 0.36771-0.52263-0.79721 0.79721
  -2  -2  -127766.41  404.80   1-0.41368 0.24741 0.50359-0.65504-0.75845 0.71393
  -2  -2  -232809.60  459.52   1-0.34939 0.19344 0.61202-0.76000-0.70946 0.62046
  -2  -2  -3294484.3 2332.28   1-0.29058 0.14541 0.69309-0.83782-0.65968 0.52621
  -2  -2  -4  107.53   46.58   1-0.23944 0.10497 0.75308-0.89436-0.61280 0.43484
  -2  -2  -5169302.5 1526.84   1-0.19782 0.07391 0.79692-0.93437-0.57077 0.34854
  -2  -2  -629311.40  485.09   1-0.16464 0.05143 0.82727-0.96135-0.53712 0.27045
  -2  -2  -7  200.64   74.34   1-0.13919 0.03667 0.84851-0.97922-0.51053 0.19941
  -2  -2  -8  499.27   99.08   1-0.12038 0.02856 0.86310-0.99044-0.49047 0.13490
  -2  -2  -928190.53  719.37   1-0.10720 0.02608 0.87277-0.99675-0.47620 0.07619
  -2  -2 -1034926.06  884.26   1-0.09830 0.02749 0.87908-0.99938-0.46642 0.02164
  -2  -2 -11 1524.39  164.88   1-0.09380 0.03365 0.88217-0.99904-0.46148-0.02777
  -2  -2 -12 8937.59  397.00   1-0.09271 0.04321 0.88291-0.99636-0.46028-0.07345
  -2  -2 -13 4695.22  257.10   1-0.09452 0.05568 0.88167-0.99169-0.46228-0.11593
  -2  -2 -14 1928.16  198.47   1-0.09886 0.07067 0.87869-0.98527-0.46703-0.15566
  -2  -2 -15  870.42  161.58   1-0.10539 0.08787 0.87410-0.97725-0.47417-0.19300
  -2  -2 -16 1748.19  205.94   1-0.11451 0.10827 0.86746-0.96785-0.48413-0.22699
  -2  -2 -17   76.31   87.34   1-0.12476 0.12922 0.85979-0.95681-0.49517-0.26040
  -2  -2 -17  118.26  150.36   1-0.91628 0.91881-0.16002 0.06416-0.36716-0.38942
  -2  -2 -18  496.21  168.14   1-0.13660 0.15176 0.85057-0.94423-0.50779-0.29222
  -2  -2 -18  699.51  198.03   1-0.89966 0.91261-0.17385 0.08144-0.40047-0.40063
  -2  -2 -19  759.52  221.02   1-0.14992 0.17578 0.83977-0.93005-0.52182-0.32264
  -2  -2 -19  672.87  198.82   1-0.88200 0.90536-0.18714 0.09817-0.43248-0.41312
  -2  -2 -20  174.88  105.65   1-0.86332 0.89709-0.19994 0.11442-0.46335-0.42676
   2   3 -16  537.63  149.68   1-0.41581 0.75818-0.35192 0.63925-0.83859 0.12848
   2   3 -15    7.06   90.82   1-0.42202 0.75379-0.35084 0.63467-0.83594 0.17020
  -2  -3  14  147.90   80.20   1-0.35394 0.03216-0.92486 0.64696-0.13908 0.76184
   2   3 -14  464.82  162.89   1-0.42500 0.74617-0.35032 0.63065-0.83464 0.21329
  -2  -3  13    4.35   88.34   1-0.38964 0.07848-0.89928 0.62468-0.19864 0.77692
   2   3 -13  -11.13   82.64   1-0.42423 0.73479-0.35046 0.62730-0.83498 0.25801
  -2  -3  12  470.75  130.33   1-0.42564 0.12486-0.86660 0.59502-0.26042 0.79395
   2   3 -12  528.79  136.15   1-0.41902 0.71897-0.35137 0.62471-0.83723 0.30464
  -2  -3  1117921.47  975.88   1-0.45940 0.16925-0.82766 0.55940-0.32236 0.81143
   2   3 -1120780.54 1121.12   1-0.40842 0.69776-0.35318 0.62303-0.84169 0.35348
  -2  -3  10  155.11   74.47   1-0.49246 0.21194-0.78000 0.51458-0.38609 0.83083
   2   3 -10  -21.75   68.07   1-0.39116 0.66989-0.35600 0.62236-0.84867 0.40485
  -2  -3   9 2115.66  181.45   1-0.52280 0.25287-0.72414 0.46206-0.44976 0.85002
   2   3  -9 2253.68  175.89   1-0.36549 0.63361-0.35994 0.62280-0.85840 0.45896
  -2  -3   818090.79  619.63   1-0.55262 0.29329-0.65791 0.39978-0.51162 0.86841
   2   3  -820348.00  666.25   1-0.32905 0.58657-0.36498 0.62435-0.87092 0.51586
  -2  -3   725161.26  680.44   1-0.57657 0.32787-0.58100 0.32613-0.57444 0.88664
   2   3  -727429.83  701.30   1-0.28048 0.52779-0.36941 0.62507-0.88592 0.57507
  -2  -3   6 4906.00  310.43   1-0.59592 0.35849-0.49264 0.24055-0.63417 0.90200
   2   3  -6 4977.33  286.30   1-0.21223 0.44889-0.37587 0.62809-0.90204 0.63560
  -2  -3   5 7102.17  355.56   1-0.60846 0.38182-0.39171 0.14270-0.69016 0.91315
   2   3  -5 7523.23  349.03   1-0.12299 0.34957-0.38080 0.62930-0.91643 0.69410
  -2  -3   4 1457.18  150.17   1-0.61265 0.39655-0.28033 0.03471-0.73896 0.91735
   2   3  -4 1668.04  135.16   1-0.00496 0.22097-0.38343 0.62859-0.92355 0.74568
  -2  -3   352863.21  723.70   1-0.60718 0.40173-0.15943-0.08286-0.77839 0.91200
   2   3  -348572.94  586.52   1 0.14135 0.06405-0.37915 0.62106-0.91447 0.78113
  -2  -3   2114872.3 1165.09   1-0.59175 0.39702-0.03277-0.20625-0.80544 0.89433
   2   3  -2100608.5  937.39   1 0.30670-0.11206-0.36289 0.60144-0.87990 0.79101
  -2  -3   110295.99  348.94   1-0.56843 0.38380 0.09623-0.33198-0.81707 0.86167
   2   3  -1 7770.35  253.97   1 0.47820-0.29427-0.33378 0.56892-0.81234 0.76794
  -2  -3   0 6010.55  248.59   1-0.53397 0.35997 0.21873-0.45098-0.81671 0.81671
  -2  -3  -1 9398.26  325.18   1-0.49376 0.33049 0.33157-0.56045-0.80390 0.75938
  -2  -3  -229290.96  472.68   1-0.45039 0.29739 0.43208-0.65750-0.78131 0.69227
  -2  -3  -3108589.5 1102.86   1-0.40623 0.26395 0.51705-0.73898-0.75340 0.61985
  -2  -3  -433545.89  527.79   1-0.36542 0.23318 0.58753-0.80604-0.72198 0.54398
  -2  -3  -516818.65  509.29   1-0.32747 0.20591 0.64372-0.85878-0.69165 0.46914
  -2  -3  -6135011.2 1044.23   1-0.29519 0.18452 0.68724-0.89916-0.66373 0.39680
  -2  -3  -717573.93  498.74   1-0.26726 0.16729 0.72153-0.92999-0.63871 0.32729
  -2  -3  -8  -19.36   72.65   1-0.24442 0.15515 0.74761-0.95262-0.61751 0.26161
  -2  -3  -935010.21  888.12   1-0.22638 0.14782 0.76704-0.96859-0.60032 0.19993
  -2  -3 -10  925.65  145.64   1-0.21273 0.14487 0.78108-0.97918-0.58706 0.14218
  -2  -3 -1217881.37  676.47   1-0.19800 0.15135 0.79674-0.98776-0.57095 0.03760
  -2  -3 -1315698.93  611.61   1-0.19506 0.15910 0.79956-0.98721-0.56801-0.00977
  -2  -3 -14 3778.91  305.02   1-0.19489 0.16963 0.79972-0.98400-0.56785-0.05439
  -2  -3 -1511516.31  430.50   1-0.19720 0.18264 0.79751-0.97842-0.57015-0.09653
  -2  -3 -16  857.06  161.01   1-0.20173 0.19786 0.79314-0.97068-0.57465-0.13647
  -2  -3 -17  438.90  172.80   1-0.20827 0.21510 0.78671-0.96088-0.58112-0.17445
  -2  -3 -17  444.46  201.55   1-0.91586 0.92134-0.16039-0.01270-0.36805-0.38854
  -2  -3 -18  657.65  174.71   1-0.21499 0.23273 0.77880-0.94926-0.58926-0.21151
  -2  -3 -18  694.40  254.61   1-0.90003 0.91592-0.17356 0.00391-0.39977-0.40133
  -2  -3 -19  137.66  102.37   1-0.22502 0.25347 0.76847-0.93547-0.59900-0.24626
  -2  -3 -19  247.80   94.70   1-0.88320 0.90950-0.18628 0.02007-0.43041-0.41519
  -2  -3 -20  161.49  105.89   1-0.86538 0.90210-0.19858 0.03582-0.46008-0.43003
  -2  -4  15  570.54  166.47   1-0.36804 0.03841-0.91553 0.55709-0.16231 0.82955
  -2  -4  14  260.08  133.60   1-0.40226 0.08299-0.88886 0.53340-0.21933 0.84178
   2   4 -14  374.36  144.65   1-0.32580 0.64392-0.36540 0.72287-0.87197 0.25061
  -2  -4  13  452.20  150.02   1-0.43412 0.12547-0.85764 0.50550-0.27566 0.85365
   2   4 -13  500.61  152.72   1-0.32122 0.62952-0.36460 0.71809-0.87400 0.29671
  -2  -4  12   86.30  111.88   1-0.46457 0.16655-0.82087 0.47206-0.33216 0.86568
   2   4 -12  -60.08   88.18   1-0.30914 0.60679-0.36610 0.71615-0.87772 0.34484
  -2  -4  1130404.71  700.47   1-0.49404 0.20549-0.77742 0.43132-0.38927 0.87848
   2   4 -1130929.50  649.43   1-0.28999 0.57700-0.36835 0.71497-0.88329 0.39482
  -2  -4  10 2129.01  209.86   1-0.52082 0.24288-0.72823 0.38546-0.44544 0.89018
   2   4 -10 2046.97  198.16   1-0.26211 0.53847-0.37134 0.71452-0.89072 0.44666
  -2  -4   910582.50  475.27   1-0.54736 0.27996-0.67187 0.33312-0.49896 0.90035
   2   4  -910771.32  440.69   1-0.22329 0.48900-0.37495 0.71469-0.89974 0.50008
  -2  -4   8  -28.99   95.61   1-0.56888 0.31210-0.60859 0.27310-0.55315 0.90994
   2   4  -8  108.12   59.50   1-0.17071 0.42577-0.37885 0.71515-0.90957 0.55432
  -2  -4   7  860.95  141.82   1-0.58722 0.34195-0.53827 0.20548-0.60451 0.91697
   2   4  -7  959.42  107.03   1-0.10331 0.34836-0.38162 0.71405-0.91852 0.60725
  -2  -4   6 3229.17  251.82   1-0.60085 0.36612-0.46035 0.13089-0.65348 0.92131
   2   4  -6 3360.96  218.39   1-0.01265 0.24713-0.38343 0.71252-0.92348 0.65668
  -2  -4   526610.22  727.90   1-0.60968 0.38581-0.37502 0.04865-0.69830 0.92129
   2   4  -526274.29  628.38   1 0.10208 0.12187-0.38109 0.70698-0.91888 0.69664
  -2  -4   4 4323.76  270.33   1-0.61265 0.39932-0.28392-0.03905-0.73758 0.91597
   2   4  -4 4003.90  212.34   1 0.23698-0.02377-0.37062 0.69330-0.89804 0.72025
  -2  -4   3  321.07   94.82   1-0.60930 0.40666-0.18771-0.13195-0.77039 0.90399
   2   4  -3   20.36   33.00   1 0.38840-0.18580-0.35057 0.66974-0.85219 0.71897
  -2  -4   2 5482.73  315.43   1-0.59990 0.40804-0.08847-0.22794-0.79516 0.88404
   2   4  -2 4181.32  215.54   1 0.54061-0.34839-0.31860 0.63457-0.77860 0.68987
  -2  -4   119402.90  552.86   1-0.58404 0.40275 0.01084-0.32386-0.81165 0.85609
  -2  -4  -171594.03  893.23   1-0.53882 0.37812 0.20337-0.50955-0.81749 0.77290
  -2  -4  -2107610.9 1170.08   1-0.51012 0.36020 0.28907-0.59191-0.81006 0.72103
  -2  -4  -316347.50  486.68   1-0.47918 0.33994 0.36679-0.66614-0.79739 0.66384
  -2  -4  -445953.43 1044.07   1-0.44871 0.31969 0.43556-0.73147-0.78034 0.60227
  -2  -4  -5 9018.50  363.07   1-0.41868 0.30040 0.49437-0.78679-0.76177 0.53918
  -2  -4  -6 1957.12  169.04   1-0.39203 0.28351 0.54417-0.83321-0.74174 0.47473
  -2  -4  -727038.64  705.37   1-0.36698 0.26913 0.58509-0.87068-0.72317 0.41167
  -2  -4  -816857.10  531.11   1-0.34511 0.25794 0.61838-0.90052-0.70604 0.35003
  -2  -4  -910587.12  569.15   1-0.32659 0.25010 0.64495-0.92364-0.69092 0.29040
  -2  -4 -10 8341.96  403.76   1-0.31143 0.24561 0.66568-0.94091-0.67814 0.23313
  -2  -4 -1140781.46 1310.27   1-0.30044 0.24567 0.68050-0.95269-0.66831 0.17894
  -2  -4 -1222530.28  819.17   1-0.29159 0.24752 0.69182-0.96055-0.66056 0.12670
  -2  -4 -13 5633.63  408.86   1-0.28560 0.25224 0.69932-0.96460-0.65526 0.07692
  -2  -4 -14   12.01   84.72   1-0.28228 0.25961 0.70344-0.96526-0.65229 0.02946
  -2  -4 -15   30.03   87.78   1-0.28140 0.26944 0.70452-0.96288-0.65150-0.01581
  -2  -4 -16 3437.97  272.64   1-0.28278 0.28152 0.70282-0.95773-0.65274-0.05906
  -2  -4 -17 3524.39  292.37   1-0.28624 0.29569 0.69853-0.94998-0.65583-0.10046
  -2  -4 -17 3809.55  388.71   1-0.91214 0.92057-0.16360-0.08673-0.37578-0.38080
  -2  -4 -18   96.91   86.59   1-0.29165 0.31179 0.69175-0.93975-0.66061-0.14016
  -2  -4 -18  197.08   88.43   1-0.89691 0.91575-0.17601-0.07088-0.40566-0.39543
  -2  -4 -19  636.68  190.68   1-0.88073 0.90998-0.18805-0.05539-0.43468-0.41092
  -2  -5  15   -8.57   85.50   1-0.40385 0.07671-0.88745 0.45144-0.22208 0.88899
  -2  -5  14   12.75   82.25   1-0.43372 0.11721-0.85807 0.42538-0.27494 0.89739
  -2  -5  13  662.24  150.68   1-0.46206 0.15617-0.82420 0.39483-0.32739 0.90537
  -2  -5  12 4431.85  404.19   1-0.48934 0.19279-0.78502 0.35824-0.37982 0.91350
  -2  -5  11  607.89  155.51   1-0.51411 0.22815-0.74158 0.31813-0.43097 0.92018
  -2  -5  10 4854.39  320.29   1-0.53887 0.26339-0.69286 0.27349-0.47911 0.92510
  -2  -5   9 3351.53  295.71   1-0.55917 0.29432-0.63924 0.22313-0.52790 0.92929
   2   5  -9 3337.42  249.03   1-0.03158 0.29510-0.38331 0.79969-0.92307 0.52287
  -2  -5   8 3277.91  249.99   1-0.57670 0.32247-0.58051 0.16765-0.57482 0.93161
   2   5  -8 2694.99  160.26   1 0.04229 0.21085-0.38290 0.79610-0.92281 0.56724
  -2  -5   7 3089.97  236.54   1-0.59149 0.34891-0.51722 0.10707-0.61855 0.93101
   2   5  -7 2851.09  154.99   1 0.13426 0.10824-0.37954 0.78940-0.91537 0.60424
  -2  -5   6 3991.52  261.61   1-0.60240 0.37036-0.44872 0.04190-0.66011 0.92794
   2   5  -6 4145.17  198.03   1 0.24420-0.01243-0.36991 0.77672-0.89639 0.62971
  -2  -5   524208.42  817.17   1-0.60964 0.38853-0.37562-0.02809-0.69802 0.92100
   2   5  -520788.47  602.81   1 0.37155-0.15029-0.35327 0.75646-0.85857 0.63653
  -2  -5   4 3477.89  285.40   1-0.61258 0.40201-0.29909-0.10123-0.73163 0.91001
   2   5  -4 2687.26  167.21   1 0.50959-0.29889-0.32600 0.72645-0.79626 0.61880
  -2  -5   3  -10.73   89.02   1-0.61106 0.41123-0.21964-0.17740-0.76049 0.89409
  -2  -5   2 9251.24  517.87   1-0.60531 0.41607-0.13874-0.25491-0.78380 0.87287
  -2  -5   1 1046.79  146.38   1-0.59561 0.41720-0.05752-0.33289-0.80120 0.84564
  -2  -5   0 7204.10  400.16   1-0.58180 0.41396 0.02240-0.40942-0.81302 0.81302
  -2  -5  -120851.10  620.91   1-0.56709 0.40904 0.10172-0.48531-0.81734 0.77275
  -2  -5  -2114747.8 1060.32   1-0.54733 0.39991 0.17520-0.55529-0.81837 0.72918
  -2  -5  -315399.55  492.56   1-0.52648 0.38990 0.24278-0.61959-0.81477 0.68122
  -2  -5  -432808.78  830.55   1-0.50412 0.37823 0.30504-0.67836-0.80796 0.62988
  -2  -5  -5  336.56   78.98   1-0.48170 0.36648 0.36087-0.73069-0.79858 0.57599
  -2  -5  -6 6745.32  411.01   1-0.46071 0.35569 0.41022-0.77661-0.78705 0.51995
  -2  -5  -7 1017.94  181.58   1-0.44028 0.34599 0.45270-0.81561-0.77537 0.46375
  -2  -5  -8 9845.87  437.30   1-0.42162 0.33805 0.48889-0.84830-0.76368 0.40754
  -2  -5  -918462.17  686.22   1-0.40505 0.33221 0.51916-0.87508-0.75259 0.35194
  -2  -5 -10 3440.63  275.38   1-0.39221 0.32875 0.54387-0.89654-0.74187 0.29685
  -2  -5 -1117739.28  689.18   1-0.38036 0.32758 0.56361-0.91284-0.73324 0.24373
  -2  -5 -1223826.62 1285.59   1-0.37091 0.32881 0.57886-0.92463-0.72617 0.19215
  -2  -5 -13 6473.87  335.87   1-0.36382 0.33240 0.59003-0.93234-0.72075 0.14224
  -2  -5 -14  -91.22   99.30   1-0.35901 0.33826 0.59747-0.93634-0.71702 0.09401
  -2  -5 -15 1414.14  229.91   1-0.35637 0.34630 0.60150-0.93691-0.71497 0.04745
  -2  -5 -16  284.37  139.36   1-0.35581 0.35642 0.60236-0.93431-0.71453 0.00251
  -2  -5 -16  355.86  185.79   1-0.91916 0.92012-0.15747-0.17356-0.36102-0.35106
  -2  -5 -17   25.99   94.98   1-0.35722 0.36851 0.60021-0.92872-0.71563-0.04088
  -2  -5 -17  181.16  109.54   1-0.90528 0.91665-0.16934-0.15824-0.38959-0.36700
  -2  -5 -18 1251.94  302.13   1-0.36049 0.38246 0.59519-0.92025-0.71818-0.08284
  -2  -5 -18  579.08  340.29   1-0.89051 0.91229-0.18090-0.14323-0.41744-0.38365
  -2  -5 -19   71.48   90.99   1-0.87483 0.90704-0.19218-0.12850-0.44465-0.40095
  -2  -6  15  436.81  161.79   1-0.42740 0.10302-0.86478 0.35154-0.26357 0.93048
  -2  -6  14  510.34  196.14   1-0.45446 0.14071-0.83393 0.32401-0.31308 0.93552
  -2  -6  13  934.02  237.74   1-0.48045 0.17588-0.79874 0.29126-0.36217 0.94033
  -2  -6  12 6161.06  443.70   1-0.50408 0.21011-0.76020 0.25606-0.40986 0.94354
  -2  -6  11  606.34  186.08   1-0.52580 0.24243-0.71781 0.21701-0.45637 0.94558
  -2  -6  10  113.55  154.90   1-0.54762 0.27468-0.67121 0.17447-0.49958 0.94557
  -2  -6   9 4169.21  319.60   1-0.56508 0.30277-0.62107 0.12759-0.54309 0.94448
  -2  -6   8 2507.33  262.50   1-0.58044 0.33001-0.56774 0.07689-0.58373 0.94083
  -2  -6   722040.46 1220.28   1-0.59276 0.35288-0.51048 0.02295-0.62292 0.93538
  -2  -6   6 1721.11  230.50   1-0.60224 0.37289-0.44996-0.03422-0.65941 0.92724
  -2  -6   5 3490.76  282.33   1-0.60886 0.39051-0.38650-0.09456-0.69274 0.91572
  -2  -6   4 2698.33  247.04   1-0.61219 0.40438-0.32090-0.15677-0.72266 0.90105
  -2  -6   3  493.27  118.74   1-0.61219 0.41518-0.25361-0.22081-0.74892 0.88253
  -2  -6   2  490.81  139.17   1-0.60916 0.42273-0.18553-0.28550-0.77103 0.86010
  -2  -6   159716.86 1705.66   1-0.60309 0.42724-0.11736-0.35027-0.78898 0.83352
  -2  -6   0 2895.86  266.53   1-0.59453 0.42956-0.05032-0.41409-0.80249 0.80249
  -2  -6  -115022.08  535.32   1-0.58322 0.42884 0.01510-0.47612-0.81216 0.76772
  -2  -6  -232319.34  890.64   1-0.57232 0.42756 0.07982-0.53734-0.81613 0.72694
  -2  -6  -320114.05  633.43   1-0.55741 0.42328 0.13930-0.59332-0.81846 0.68468
  -2  -6  -4 1528.65  189.93   1-0.54149 0.41799 0.19473-0.64525-0.81784 0.63947
  -2  -6  -517261.76  635.42   1-0.52589 0.41334 0.24454-0.69182-0.81463 0.59204
  -2  -6  -6  593.70  123.06   1-0.50961 0.40773 0.29046-0.73425-0.80989 0.54278
  -2  -6  -7 4758.35  321.14   1-0.49383 0.40264 0.33139-0.77169-0.80393 0.49230
  -2  -6  -845658.80 1446.91   1-0.47895 0.39844 0.36732-0.80413-0.79729 0.44114
  -2  -6  -9  278.04  118.52   1-0.46616 0.39585 0.39831-0.83170-0.78995 0.38930
  -2  -6 -10  578.78  168.65   1-0.45400 0.39442 0.42453-0.85443-0.78335 0.33818
  -2  -6 -11  763.98  169.15   1-0.44348 0.39463 0.44625-0.87266-0.77728 0.28759
  -2  -6 -12 1836.43  225.09   1-0.43472 0.39660 0.46374-0.88666-0.77198 0.23777
  -2  -6 -13 9477.30  685.44   1-0.42776 0.40037 0.47724-0.89667-0.76763 0.18890
  -2  -6 -14  649.26  185.91   1-0.42263 0.40596 0.48698-0.90292-0.76434 0.14109
  -2  -6 -15   28.66   88.38   1-0.41931 0.41337 0.49320-0.90565-0.76218 0.09442
  -2  -6 -16 4092.01  625.91   1-0.41778 0.42257 0.49604-0.90500-0.76117 0.04889
  -2  -6 -16 2223.96  623.00   1-0.90877 0.91268-0.16645-0.24182-0.38264-0.32944
  -2  -6 -17 1882.29  354.36   1-0.41798 0.43350 0.49567-0.90114-0.76131 0.00451
  -2  -6 -17 1763.05  572.65   1-0.89522 0.90954-0.17731-0.22751-0.40880-0.34779
  -2  -6 -18  231.31   98.00   1-0.88083 0.90557-0.18797-0.21340-0.43449-0.36660
  -2  -7  14  569.27  221.05   1-0.46771 0.15671-0.81663 0.22948-0.33816 0.96061
  -2  -7  13 1060.12  275.56   1-0.49132 0.18933-0.78186 0.19704-0.38378 0.96193
  -2  -7  12  -99.36   98.05   1-0.51263 0.22125-0.74442 0.16294-0.42782 0.96150
  -2  -7  11  693.63  220.66   1-0.53423 0.25321-0.70360 0.12625-0.46854 0.95913
  -2  -7  10  978.79  227.55   1-0.55184 0.28145-0.66003 0.08593-0.50973 0.95571
  -2  -7   9 2688.18  347.70   1-0.56738 0.30762-0.61359 0.04275-0.54915 0.95054
  -2  -7   8 2857.53  342.76   1-0.58110 0.33336-0.56505-0.00316-0.58568 0.94279
  -2  -7   7 9186.97  468.18   1-0.59220 0.35501-0.51348-0.05140-0.62098 0.93344
  -2  -7   622464.27  692.00   1-0.60095 0.37428-0.45968-0.10188-0.65387 0.92169
  -2  -7   512694.01  786.76   1-0.60742 0.39183-0.40396-0.15445-0.68399 0.90697
  -2  -7   4 1618.45  269.25   1-0.61126 0.40622-0.34687-0.20816-0.71136 0.88974
  -2  -7   3  254.78  178.89   1-0.61265 0.41815-0.28875-0.26288-0.73571 0.86950
  -2  -7   2  -34.46  117.60   1-0.61150 0.42789-0.23037-0.31803-0.75695 0.84602
  -2  -7   1 1716.67  244.17   1-0.60819 0.43516-0.17202-0.37298-0.77492 0.81945
  -2  -7   0 8867.17  448.91   1-0.60276 0.44031-0.11439-0.42723-0.78967 0.78967
  -2  -7  -110566.52  523.55   1-0.59577 0.44425-0.05859-0.47982-0.80101 0.75657
  -2  -7  -214676.35  621.12   1-0.58686 0.44592-0.00434-0.53067-0.80967 0.72079
  -2  -7  -3  507.13  215.19   1-0.57666 0.44630 0.04745-0.57905-0.81560 0.68227
  -2  -7  -4 3918.29  357.45   1-0.56796 0.44712 0.09816-0.62610-0.81717 0.63880
  -2  -7  -5  358.05  127.87   1-0.55623 0.44602 0.14367-0.66812-0.81851 0.59554
  -2  -7  -612052.46  564.46   1-0.54427 0.44469 0.18552-0.70647-0.81813 0.55057
  -2  -7  -7  274.92  142.84   1-0.53243 0.44348 0.22350-0.74096-0.81643 0.50428
  -2  -7  -8  562.87  157.41   1-0.52192 0.44407 0.25612-0.77038-0.81363 0.45748
  -2  -7  -913808.40  823.66   1-0.51125 0.44408 0.28600-0.79678-0.81044 0.40978
  -2  -7 -10 2339.48  260.01   1-0.50149 0.44501 0.31190-0.81918-0.80697 0.36180
  -2  -7 -1119114.39 1195.48   1-0.49283 0.44703 0.33387-0.83766-0.80351 0.31382
  -2  -7 -12   -7.17  106.39   1-0.48541 0.45028 0.35201-0.85231-0.80028 0.26607
  -2  -7 -13 2424.05  285.53   1-0.47932 0.45487 0.36646-0.86327-0.79746 0.21873
  -2  -7 -14  568.86  169.34   1-0.47463 0.46086 0.37733-0.87065-0.79519 0.17194
  -2  -7 -14  719.31  225.23   1-0.91909 0.90512-0.15753-0.33488-0.36116-0.26191
  -2  -7 -15  846.54  233.35   1-0.47138 0.46829 0.38474-0.87456-0.79357 0.12581
  -2  -7 -15  811.15  279.18   1-0.90744 0.90388-0.16756-0.32140-0.38530-0.28227
  -2  -7 -16 1720.29  342.45   1-0.46959 0.47718 0.38878-0.87511-0.79267 0.08038
  -2  -7 -16 1738.35  531.55   1-0.89501 0.90187-0.17748-0.30803-0.40920-0.30288
  -2  -7 -17  128.87  100.99   1-0.88178 0.89905-0.18729-0.29477-0.43286-0.32373
  -2  -8  12 1306.28  308.84   1-0.51687 0.22807-0.73619 0.07735-0.43688 0.97056
  -2  -8  11  190.09  173.64   1-0.53685 0.25838-0.69759 0.04287-0.47450 0.96508
  -2  -8  10  417.91  208.79   1-0.55297 0.28513-0.65695 0.00548-0.51248 0.95847
  -2  -8   9 4925.17  414.70   1-0.56722 0.31001-0.61412-0.03408-0.54873 0.95012
  -2  -8   8 1176.07  249.09   1-0.57989 0.33485-0.56995-0.07563-0.58212 0.93923
  -2  -8   7  -12.73  129.34   1-0.59029 0.35578-0.52338-0.11888-0.61451 0.92697
  -2  -8   6 5397.83  503.63   1-0.59870 0.37473-0.47525-0.16368-0.64474 0.91257
  -2  -8   5 2647.73  365.59   1-0.60524 0.39242-0.42588-0.20989-0.67253 0.89551
  -2  -8   4  282.53  201.46   1-0.60965 0.40736-0.37560-0.25678-0.69803 0.87641
  -2  -8   314191.58  554.33   1-0.61208 0.42034-0.32473-0.30425-0.72103 0.85482
  -2  -8   2 2125.11  260.98   1-0.61249 0.43169-0.27392-0.35185-0.74149 0.83056
  -2  -8   1 9502.00  632.91   1-0.61122 0.44100-0.22323-0.39915-0.75932 0.80385
  -2  -8   0 1241.05  195.41   1-0.60828 0.44865-0.17321-0.44578-0.77458 0.77458
  -2  -8  -1  306.39  115.00   1-0.60384 0.45480-0.12430-0.49130-0.78734 0.74281
  -2  -8  -238606.61 2013.02   1-0.59846 0.46039-0.07757-0.53484-0.79738 0.70850
  -2  -8  -3 9324.40  607.52   1-0.59167 0.46418-0.03223-0.57677-0.80553 0.67220
  -2  -8  -4  -13.45  134.20   1-0.58404 0.46713 0.01081-0.61642-0.81164 0.63387
  -2  -8  -5 1811.69  263.71   1-0.57584 0.46951 0.05127-0.65347-0.81595 0.59374
  -2  -8  -6 2381.65  267.78   1-0.56977 0.47285 0.09065-0.68902-0.81678 0.54922
  -2  -8  -7  347.56  144.71   1-0.56117 0.47487 0.12514-0.72001-0.81818 0.50603
  -2  -8  -812568.95  495.08   1-0.55272 0.47706 0.15637-0.74775-0.81856 0.46182
  -2  -8  -9  924.98  174.66   1-0.54465 0.47961 0.18427-0.77214-0.81816 0.41683
  -2  -8 -10 1940.01  274.17   1-0.53714 0.48274 0.20876-0.79314-0.81724 0.37132
  -2  -8 -11 5197.34  388.70   1-0.53036 0.48659 0.22984-0.81072-0.81601 0.32550
  -2  -8 -12 1347.14  255.88   1-0.52543 0.49297 0.24589-0.82365-0.81452 0.28031
  -2  -8 -13  169.68  157.85   1-0.52052 0.49873 0.26015-0.83442-0.81325 0.23451
  -2  -8 -13  113.41  112.11   1-0.91149 0.89005-0.16416-0.40893-0.37714-0.20143
  -2  -8 -14 4195.30  649.80   1-0.51665 0.50555 0.27108-0.84186-0.81214 0.18889
  -2  -8 -14 2743.61  631.67   1-0.90092 0.88989-0.17285-0.39679-0.39806-0.22501
  -2  -8 -15   -6.04  110.84   1-0.51391 0.51349 0.27872-0.84600-0.81129 0.14353
  -2  -8 -15  118.55  102.51   1-0.88960 0.88899-0.18158-0.38462-0.41908-0.24850
  -2  -8 -16  363.63  180.68   1-0.87751 0.88732-0.19032-0.37243-0.44015-0.27193
  -2  -9  10   88.19  139.80   1-0.55179 0.28650-0.66015-0.06867-0.50962 0.95561
  -2  -9   9   49.35  126.73   1-0.56519 0.31052-0.62072-0.10484-0.54337 0.94476
  -2  -9   8  250.64  186.86   1-0.57689 0.33285-0.57979-0.14252-0.57535 0.93214
  -2  -9   7 3228.70  542.77   1-0.58721 0.35540-0.53829-0.18133-0.60449 0.91695
  -2  -9   6  209.19  141.27   1-0.59552 0.37424-0.49500-0.22130-0.63271 0.90053
  -2  -9   5 2680.98  347.71   1-0.60213 0.39138-0.45085-0.26212-0.65891 0.88210
  -2  -9   3 2736.77  392.28   1-0.61053 0.42156-0.36127-0.34506-0.70478 0.83857
  -2  -9   2  -31.07  136.03   1-0.61230 0.43387-0.31630-0.38665-0.72459 0.81378
  -2  -9   1 2141.38  348.01   1-0.61248 0.44507-0.27204-0.42772-0.74220 0.78673
  -2  -9   0  170.84  178.06   1-0.61142 0.45460-0.22816-0.46821-0.75769 0.75769
  -2  -9  -1  864.35  231.13   1-0.60914 0.46291-0.18526-0.50772-0.77111 0.72658
  -2  -9  -2  275.21  168.11   1-0.60578 0.47014-0.14365-0.54593-0.78255 0.69348
  -2  -9  -3 3086.91  401.70   1-0.60188 0.47726-0.10441-0.58200-0.79173 0.65840
  -2  -9  -4 3975.31  408.65   1-0.59690 0.48286-0.06639-0.61661-0.79955 0.62179
  -2  -9  -5 2380.40  319.89   1-0.59138 0.48792-0.03049-0.64910-0.80581 0.58360
  -2  -9  -6  667.54  195.52   1-0.58550 0.49262 0.00304-0.67924-0.81066 0.54400
  -2  -9  -7 1155.16  193.13   1-0.57945 0.49715 0.03405-0.70684-0.81429 0.50319
  -2  -9  -8  230.41  117.98   1-0.57590 0.50290 0.06406-0.73286-0.81500 0.45826
  -2  -9  -9  353.91  205.08   1-0.57005 0.50768 0.08949-0.75479-0.81671 0.41538
  -2  -9 -10 2435.90  345.03   1-0.56453 0.51279 0.11200-0.77380-0.81777 0.37184
  -2  -9 -10 2478.43  300.10   1-0.91365 0.86392-0.16230-0.49838-0.37266-0.07239
  -2  -9 -11 1423.15  304.74   1-0.55949 0.51838 0.13151-0.78981-0.81833 0.32781
  -2  -9 -11  895.32  250.08   1-0.90598 0.86666-0.16876-0.48848-0.38820-0.10135
  -2  -9 -12  -30.81  122.70   1-0.55505 0.52456 0.14799-0.80280-0.81854 0.28343
  -2  -9 -12   58.23   62.69   1-0.89751 0.86861-0.17554-0.47825-0.40452-0.12953
  -2  -9 -13 1057.45  253.67   1-0.55130 0.53145 0.16141-0.81272-0.81854 0.23883
  -2  -9 -13 1041.97  298.50   1-0.88826 0.86977-0.18257-0.46777-0.42148-0.15709
  -2  -9 -14 1682.93  337.41   1-0.54834 0.53911 0.17173-0.81955-0.81843 0.19413
  -2  -9 -14 1641.29  495.38   1-0.87823 0.87015-0.18982-0.45707-0.43894-0.18413
  -2 -10   8  186.81  201.16   1-0.57290 0.33141-0.59458-0.20509-0.56413 0.92092
  -2 -10   7 2165.86  456.21   1-0.58303 0.35390-0.55696-0.24003-0.59148 0.90395
  -2 -10   6 2745.19  505.37   1-0.59137 0.37278-0.51784-0.27582-0.61814 0.88597
  -2 -10   5  -21.57  113.83   1-0.59825 0.39020-0.47816-0.31218-0.64300 0.86618
  -2 -10   4 3925.34  643.88   1-0.60370 0.40619-0.43813-0.34888-0.66601 0.84456
  -2 -10   3 3639.22  593.37   1-0.60792 0.42171-0.39821-0.38548-0.68691 0.82070
  -2 -10   2   22.47  131.43   1-0.61070 0.43503-0.35826-0.42204-0.70618 0.79537
  -2 -10   1 4409.19  422.17   1-0.61224 0.44712-0.31869-0.45821-0.72359 0.76818
  -2 -10   0   65.81  153.94   1-0.61264 0.45807-0.27977-0.49374-0.73917 0.73917
  -2 -10  -1 1177.35  277.35   1-0.61190 0.46849-0.24237-0.52798-0.75287 0.70833
  -2 -10  -212955.90  613.38   1-0.61037 0.47754-0.20561-0.56135-0.76495 0.67589
  -2 -10  -3  480.16  192.17   1-0.60805 0.48581-0.17024-0.59333-0.77542 0.64182
  -2 -10  -4 3171.20  349.52   1-0.60509 0.49343-0.13648-0.62370-0.78436 0.60622
  -2 -10  -5 1571.46  258.77   1-0.60200 0.50141-0.10547-0.65153-0.79149 0.56928
  -2 -10  -6   23.92  121.37   1-0.59819 0.50818-0.07561-0.67798-0.79777 0.53112
  -2 -10  -7  196.39  125.03   1-0.59416 0.51473-0.04793-0.70225-0.80291 0.49181
  -2 -10  -7   68.20   80.67   1-0.89369 0.81567-0.17849-0.56978-0.41163 0.10009
  -2 -10  -8 4240.62  655.76   1-0.59005 0.52120-0.02257-0.72421-0.80704 0.45150
  -2 -10  -8 2691.84  732.69   1-0.89097 0.82336-0.18055-0.56427-0.41661 0.06056
  -2 -10  -9 1839.96  377.85   1-0.58600 0.52773 0.00034-0.74372-0.81030 0.41032
  -2 -10  -9  884.60  283.36   1-0.88686 0.82966-0.18361-0.55776-0.42398 0.02342
  -2 -10 -10   98.39  127.98   1-0.58213 0.53443 0.02071-0.76069-0.81282 0.36841
  -2 -10 -10  116.93   87.62   1-0.88155 0.83477-0.18746-0.55047-0.43326-0.01179
  -2 -10 -11 4332.21  675.36   1-0.57855 0.54143 0.03844-0.77501-0.81473 0.32587
  -2 -10 -11 3170.69  909.60   1-0.87517 0.83880-0.19195-0.54253-0.44409-0.04546
  -2 -10 -12  128.43  133.04   1-0.57536 0.54883 0.05346-0.78662-0.81614 0.28284
  -2 -10 -12  161.35  105.97   1-0.86780 0.84184-0.19697-0.53406-0.45619-0.07787
  -2 -11   5  175.02  149.91   1-0.59337 0.38801-0.50719-0.36052-0.62502 0.84821
  -2 -11   4 1438.00  397.21   1-0.59930 0.40448-0.47118-0.39319-0.64715 0.82570
  -2 -11   3  311.94  215.45   1-0.60405 0.41976-0.43520-0.42584-0.66761 0.80153
  -2 -11   2  324.28  203.68   1-0.60779 0.43489-0.39972-0.45793-0.68615 0.77534
  -2 -11   1 1538.54  367.84   1-0.61035 0.44799-0.36444-0.48982-0.70331 0.74791
  -2 -11   0  388.11  219.87   1-0.61193 0.46011-0.32980-0.52107-0.71886 0.71886
  -2 -11  -1 5465.75  877.49   1-0.61261 0.47134-0.29600-0.55147-0.73286 0.68826
  -2 -11  -2 6264.22  939.63   1-0.61238 0.48237-0.26397-0.58037-0.74518 0.65611
  -2 -11  -3  299.44  180.91   1-0.61158 0.49216-0.23257-0.60838-0.75621 0.62261
  -2 -11  -4   90.29  143.37   1-0.61021 0.50136-0.20260-0.63495-0.76589 0.58775
  -2 -11  -5 2741.07  496.53   1-0.60836 0.51010-0.17424-0.65992-0.77429 0.55162
  -2 -11  -6  393.02  219.48   1-0.60615 0.51848-0.14766-0.68312-0.78151 0.51431
  -2 -11  -7  900.95  261.51   1-0.60370 0.52662-0.12299-0.70439-0.78766 0.47591
  -2 -11  -8 5482.46  846.59   1-0.60152 0.53553-0.10144-0.72274-0.79238 0.43685
  -2 -11  -9    5.96  133.69   1-0.59893 0.54352-0.08105-0.73973-0.79668 0.39671
   3 -11  -2   11.25  119.09   1-0.55694 0.87915-0.64575-0.19875-0.52230 0.43311
   3 -11  -1  184.22  180.38   1-0.55242 0.86399-0.65845-0.18931-0.51114 0.46654
   3 -11   0  844.82  255.18   1-0.54722 0.84817-0.67223-0.17878-0.49863 0.49863
   3 -11   1  330.72  191.19   1-0.54135 0.83167-0.68692-0.16735-0.48484 0.52944
   3 -11   2   73.51  133.07   1-0.53480 0.81449-0.70231-0.15521-0.46983 0.55902
   3 -11   3  910.50  322.60   1-0.52544 0.79550-0.71857-0.14227-0.45558 0.58900
   3 -11   4 1036.24  338.52   1-0.51750 0.77696-0.73493-0.12924-0.43824 0.61613
   3 -10  -4  772.13  232.20   1-0.57065 0.91156-0.60253-0.15809-0.55794 0.37955
   3 -10  -3    8.13  110.57   1-0.56719 0.89748-0.61420-0.14968-0.54866 0.41487
   3 -10  -2 1249.47  296.15   1-0.56306 0.88272-0.62743-0.13970-0.53784 0.44864
   3 -10  -1  725.41  219.35   1-0.55825 0.86727-0.64197-0.12842-0.52557 0.48097
   3 -10   0 2532.85  454.61   1-0.55274 0.85114-0.65756-0.11608-0.51193 0.51193
   3 -10   1  841.05  245.94   1-0.54654 0.83431-0.67400-0.10290-0.49700 0.54160
   3 -10   2 3880.29  640.07   1-0.53962 0.81676-0.69107-0.08908-0.48084 0.57004
   3 -10   3  112.96  148.31   1-0.52988 0.79735-0.70892-0.07458-0.46546 0.59888
   3 -10   4  -25.04  137.69   1-0.52153 0.77840-0.72677-0.06006-0.44698 0.62488
   3 -10   5 8311.56 1192.52   1-0.51245 0.75872-0.74476-0.04541-0.42745 0.64982
   3 -10   6 1147.65  352.35   1-0.50265 0.73832-0.76273-0.03077-0.40690 0.67374
   3 -10   7  365.73  266.62   1-0.49211 0.71718-0.78057-0.01627-0.38538 0.69669
   3 -10   8 4654.78  770.66   1-0.48083 0.69530-0.79817-0.00201-0.36292 0.71871
   3 -10   9  458.39  227.02   1-0.46845 0.67276-0.81561 0.01341-0.33958 0.73973
   3  -9 -11   83.19  111.49   1-0.47575 0.89249-0.34067-0.31514-0.81092 0.32271
   3  -9 -10  788.81  242.96   1-0.46652 0.87264-0.34253-0.31677-0.81549 0.37166
   3  -9  -9   67.60  105.07   1-0.45341 0.84893-0.34509-0.31770-0.82178 0.42233
   3  -9  -8   52.52  103.67   1-0.43573 0.82064-0.34840-0.31789-0.82991 0.47485
   3  -9  -7  142.86  156.17   1-0.41256 0.78687-0.35248-0.31731-0.83996 0.52929
   3  -9  -6  178.05  110.69   1-0.38275 0.74644-0.35733-0.31595-0.85194 0.58565
   3  -9  -5 3182.94  293.11   1-0.57870 0.92769-0.57273-0.10728-0.58058 0.35759
   3  -9  -5 3402.45  330.19   1-0.34476 0.69785-0.36288-0.31389-0.86570 0.64379
   3  -9  -4  387.08  163.57   1-0.57565 0.91402-0.58447-0.09879-0.57184 0.39344
   3  -9  -4  574.10  169.67   1-0.29670 0.63755-0.36758-0.31343-0.88138 0.70376
   3  -9  -3  141.03  105.40   1-0.57190 0.89964-0.59813-0.08838-0.56138 0.42758
   3  -9  -3   78.73   68.13   1-0.23556 0.56576-0.37388-0.31057-0.89706 0.76384
   3  -9  -2   12.58  104.24   1-0.56744 0.88455-0.61338-0.07640-0.54933 0.46013
   3  -9  -1 1006.51  219.99   1-0.56227 0.86875-0.62989-0.06314-0.53580 0.49120
   3  -9   0 1542.95  248.54   1-0.55637 0.85222-0.64739-0.04888-0.52088 0.52088
   3  -9   1  973.71  207.41   1-0.54974 0.83496-0.66565-0.03388-0.50465 0.54925
   3  -9   2  614.01  198.37   1-0.54236 0.81696-0.68444-0.01834-0.48720 0.57639
   3  -9   3  419.62  166.15   1-0.53424 0.79821-0.70357-0.00247-0.46857 0.60237
   3  -9   4 2130.46  295.35   1-0.52326 0.77754-0.72318 0.01369-0.45077 0.62867
   3  -9   6 1870.67  281.06   1-0.50328 0.73636-0.76162 0.04545-0.40821 0.67505
   3  -9   7   67.09  145.59   1-0.49217 0.71465-0.78048 0.06098-0.38550 0.69681
   3  -9   8 1318.87  327.30   1-0.48031 0.69219-0.79895 0.07611-0.36189 0.71768
   3  -9   9   39.50  140.48   1-0.46735 0.66890-0.81712 0.09215-0.33746 0.73761
   3  -9  10 1648.67  378.18   1-0.45400 0.64493-0.83450 0.10620-0.31221 0.75682
   3  -9  11  163.69  205.48   1-0.43991 0.62021-0.85121 0.11959-0.28619 0.77525
   3  -8 -13  149.55  191.56   1-0.51671 0.94747-0.33342-0.24043-0.78856 0.21091
   3  -8 -12  802.62  259.88   1-0.51510 0.93544-0.33379-0.24345-0.78946 0.25625
   3  -8 -11  139.43  168.34   1-0.51076 0.92070-0.33477-0.24585-0.79185 0.30308
   3  -8 -10  141.84  164.93   1-0.50330 0.90282-0.33643-0.24757-0.79592 0.35158
   3  -8  -9 1658.34  348.93   1-0.49217 0.88129-0.33884-0.24853-0.80183 0.40192
   3  -8  -8  110.26  118.56   1-0.47201 0.85388-0.34143-0.24772-0.81278 0.45772
   3  -8  -7 2715.33  329.34   1-0.45135 0.82261-0.34549-0.24716-0.82275 0.51207
   3  -8  -611093.59  742.58   1-0.58481 0.94297-0.54920-0.04977-0.59695 0.32913
   3  -8  -611102.76  768.77   1-0.42438 0.78504-0.35043-0.24571-0.83491 0.56862
   3  -8  -5 3286.22  347.57   1-0.58217 0.92979-0.56059-0.04172-0.58890 0.36571
   3  -8  -5 4316.68  424.69   1-0.38968 0.73972-0.35624-0.24339-0.84925 0.62734
   3  -8  -446383.83  890.71   1-0.57888 0.91469-0.57201-0.03388-0.58111 0.40271
   3  -8  -444496.91 2559.24   1-0.34534 0.68477-0.36280-0.24033-0.86551 0.68798
   3  -8  -3   72.25  132.51   1-0.57475 0.89993-0.58785-0.02131-0.56928 0.43549
   3  -8  -3  134.34  128.15   1-0.28912 0.61643-0.36845-0.23880-0.88354 0.75032
   3  -8  -2 8312.13  404.52   1-0.56986 0.88442-0.60523-0.00717-0.55582 0.46662
   3  -8  -2 8326.75  350.88   1-0.21716 0.53382-0.37547-0.23522-0.90103 0.81222
   3  -8  -1 7444.90  421.21   1-0.56421 0.86815-0.62382 0.00815-0.54083 0.49623
   3  -8  -1 6616.80  315.87   1-0.12609 0.43069-0.38066-0.23409-0.91607 0.87160
   3  -8   0  423.69  158.22   1-0.55779 0.85110-0.64329 0.02437-0.52443 0.52443
   3  -8   0  356.60  104.19   1-0.00936 0.30338-0.38343-0.23466-0.92351 0.92351
   3  -8   1  635.89  152.96   1-0.55060 0.83327-0.66337 0.04120-0.50672 0.55132
   3  -8   210958.53  465.78   1-0.54262 0.81466-0.68383 0.05840-0.48778 0.57698
   3  -8   3 3940.93  315.63   1-0.53385 0.79527-0.70445 0.07576-0.46769 0.60149
   3  -8   4  595.69  171.32   1-0.52222 0.77391-0.72535 0.09321-0.44849 0.62638
   3  -8   5 7304.30  592.42   1-0.51192 0.75302-0.74577 0.11030-0.42631 0.64868
   3  -8   6  465.65  171.69   1-0.50086 0.73135-0.76586 0.12705-0.40321 0.67005
   3  -8   7  390.30  180.55   1-0.48905 0.70894-0.78550 0.14335-0.37922 0.69054
   3  -8   8 4267.88  418.25   1-0.47649 0.68578-0.80457 0.15908-0.35441 0.71020
   3  -8   9  266.60  172.85   1-0.46284 0.66163-0.82317 0.17543-0.32886 0.72901
   3  -8  10  684.09  215.68   1-0.44880 0.63697-0.84085 0.18978-0.30254 0.74715
   3  -8  11 2537.68  495.91   1-0.43404 0.61159-0.85772 0.20332-0.27553 0.76459
   3  -8  12  284.69  150.77   1-0.41856 0.58549-0.87371 0.21598-0.24784 0.78137
   3  -8  13  142.40  145.76   1-0.40237 0.55867-0.88876 0.22771-0.21952 0.79751
   3  -7 -14  199.22  153.77   1-0.53578 0.97406-0.32896-0.16430-0.77763 0.15555
   3  -7 -13  162.89  205.19   1-0.53761 0.96548-0.32852-0.16812-0.77655 0.19891
   3  -7 -12  886.62  288.81   1-0.53714 0.95460-0.32863-0.17138-0.77683 0.24362
   3  -7 -11  121.96  133.12   1-0.53406 0.94111-0.32937-0.17402-0.77864 0.28986
   3  -7 -10 1127.95  263.80   1-0.52797 0.92461-0.33082-0.17595-0.78217 0.33783
   3  -7  -9   30.18  125.43   1-0.51837 0.90459-0.33304-0.17710-0.78763 0.38772
   3  -7  -8  -16.67  100.04   1-0.50461 0.88042-0.33614-0.17739-0.79521 0.43974
   3  -7  -7 4853.06  433.28   1-0.48585 0.85126-0.34018-0.17673-0.80511 0.49408
   3  -7  -6 6580.98  313.72   1-0.58662 0.94209-0.54103 0.01941-0.60262 0.33479
   3  -7  -6 6875.46  368.38   1-0.45635 0.81396-0.34453-0.17447-0.82039 0.55409
   3  -7  -5   94.19   93.92   1-0.58361 0.92853-0.55448 0.02953-0.59324 0.37006
   3  -7  -5   56.20   83.49   1-0.42398 0.77099-0.35050-0.17199-0.83509 0.61318
   3  -7  -4 3508.47  306.97   1-0.57975 0.91414-0.57050 0.04222-0.58172 0.40317
   3  -7  -4 3580.06  304.73   1-0.38228 0.71867-0.35740-0.16859-0.85212 0.67459
   3  -7  -3  258.31  119.69   1-0.57524 0.89788-0.58602 0.05422-0.57067 0.43688
   3  -7  -3  336.82  122.66   1-0.32883 0.65461-0.36501-0.16447-0.87099 0.73784
   3  -7  -2 4307.50  369.03   1-0.56977 0.88178-0.60557 0.07052-0.55555 0.46635
   3  -7  -2 4298.99  327.14   1-0.26083 0.57459-0.37147-0.16202-0.89105 0.80223
   3  -7  -130753.47 1613.13   1-0.56346 0.86484-0.62619 0.08788-0.53887 0.49427
   3  -7  -129703.03 1512.24   1-0.17358 0.47670-0.37867-0.15826-0.90910 0.86470
   3  -7   0 4248.24  375.77   1-0.55633 0.84708-0.64751 0.10595-0.52078 0.52078
   3  -7   0 4019.12  292.58   1-0.06297 0.35432-0.38281-0.15802-0.92167 0.92167
   3  -7   119561.73 1079.60   1-0.54837 0.82850-0.66925 0.12443-0.50138 0.54598
   3  -7   117805.81  927.39   1 0.07695 0.20403-0.38202-0.16246-0.92094 0.96538
   3  -7   2  512.09  146.55   1-0.53960 0.80910-0.69113 0.14306-0.48079 0.56998
   3  -7   2  498.78   97.01   1 0.25056 0.02041-0.36927-0.17813-0.89490 0.98379
   3  -7   3  457.69  149.79   1-0.52793 0.78764-0.71321 0.16176-0.46109 0.59451
   3  -7   4 3939.71  373.72   1-0.51756 0.76667-0.73480 0.18001-0.43838 0.61627
   3  -7   5 1997.41  256.87   1-0.50643 0.74493-0.75598 0.19785-0.41475 0.63711
   3  -7   6  315.66  152.18   1-0.49453 0.72243-0.77661 0.21514-0.39026 0.65711
   3  -7   7 5121.48  373.44   1-0.48189 0.69919-0.79659 0.23178-0.36499 0.67631
   3  -7   813111.36  560.53   1-0.46818 0.67484-0.81598 0.24879-0.33906 0.69475
   3  -7   9 1290.81  228.25   1-0.45409 0.65013-0.83439 0.26387-0.31238 0.71252
   3  -7  10 1217.89  224.64   1-0.43929 0.62470-0.85191 0.27807-0.28506 0.72966
   3  -7  11 2437.63  307.35   1-0.42380 0.59859-0.86848 0.29131-0.25713 0.74620
   3  -7  12  196.85  137.26   1-0.40762 0.57179-0.88406 0.30356-0.22864 0.76216
   3  -7  13 3212.07  552.75   1-0.39010 0.54377-0.89890 0.31538-0.19944 0.77771
   3  -7  14 1327.47  315.90   1-0.37255 0.51560-0.91233 0.32551-0.16982 0.79258
   3  -7  15   77.33  142.47   1-0.35432 0.48676-0.92462 0.33450-0.13970 0.80694
   3  -6 -15 1750.42  369.20   1-0.54487 0.99067-0.32675-0.08590-0.77223 0.10572
   3  -6 -14  210.92  201.66   1-0.54955 0.98494-0.32559-0.09044-0.76940 0.14732
   3  -6 -13  -34.01  120.50   1-0.55221 0.97720-0.32492-0.09449-0.76777 0.19012
   3  -6 -12 1314.82  244.21   1-0.55264 0.96721-0.32482-0.09797-0.76751 0.23430
   3  -6 -11  667.01  242.34   1-0.55051 0.95468-0.32535-0.10082-0.76881 0.28003
   3  -6 -10 1069.04  242.82   1-0.54546 0.93921-0.32660-0.10294-0.77187 0.32753
   3  -6  -9 2747.50  334.64   1-0.53697 0.92031-0.32867-0.10425-0.77693 0.37702
   3  -6  -8 4166.29  324.05   1-0.52441 0.89734-0.33165-0.10466-0.78421 0.42874
   3  -6  -7  673.93  181.79   1-0.50694 0.86946-0.33562-0.10406-0.79395 0.48291
   3  -6  -6  831.97  124.70   1-0.58534 0.93811-0.54686 0.10261-0.59859 0.33076
   3  -6  -6  865.02  175.95   1-0.48347 0.83558-0.34068-0.10239-0.80634 0.53973
   3  -6  -5 1446.33  151.66   1-0.58183 0.92406-0.56202 0.11444-0.58787 0.36468
   3  -6  -5 1618.67  186.80   1-0.44806 0.79202-0.34611-0.09924-0.82428 0.60237
   3  -6  -4 9246.19  401.26   1-0.57757 0.90829-0.57716 0.12598-0.57731 0.39891
   3  -6  -4 9928.30  463.74   1-0.40790 0.74125-0.35326-0.09558-0.84191 0.66438
   3  -6  -3 6112.49  312.07   1-0.57218 0.89227-0.59716 0.14273-0.56213 0.42834
   3  -6  -3 6627.23  348.96   1-0.35608 0.67882-0.36130-0.09104-0.86178 0.72863
   3  -6  -2 3579.55  222.57   1-0.56587 0.87533-0.61852 0.16083-0.54517 0.45597
   3  -6  -2 3449.61  218.34   1-0.29002 0.60089-0.36835-0.08795-0.88329 0.79447
   3  -6  -1 7488.72  361.23   1-0.55867 0.85750-0.64073 0.17979-0.52663 0.48203
   3  -6  -1 7661.81  353.18   1-0.20473 0.50495-0.37646-0.08328-0.90352 0.85911
   3  -6   0 7628.44  375.42   1-0.55058 0.83879-0.66341 0.19921-0.50669 0.50669
   3  -6   0 7452.42  337.27   1-0.09666 0.38533-0.38186-0.08171-0.91915 0.91915
   3  -6   117242.00  662.14   1-0.54164 0.81921-0.68622 0.21877-0.48550 0.53010
   3  -6   114718.27  495.12   1 0.03931 0.23894-0.38296-0.08422-0.92292 0.96737
   3  -6   2 9987.04  475.59   1-0.52979 0.79751-0.70911 0.23834-0.46526 0.55421
   3  -6   2 7925.48  309.05   1 0.20616 0.06199-0.37338-0.09680-0.90447 0.99337
   3  -6   3  420.67  117.10   1-0.51921 0.77633-0.73150 0.25740-0.44194 0.57536
   3  -6   3  442.09   76.48   1 0.39581-0.13866-0.34934-0.12430-0.84928 0.98250
   3  -6   4 1871.50  195.32   1-0.50785 0.75437-0.75337 0.27593-0.41773 0.59562
   3  -6   5 6226.58  393.49   1-0.49574 0.73166-0.77460 0.29382-0.39272 0.61509
   3  -6   6  402.14  175.58   1-0.48289 0.70821-0.79506 0.31094-0.36698 0.63383
   3  -6   7 9178.51  621.38   1-0.46904 0.68357-0.81480 0.32816-0.34072 0.65194
   3  -6   8 8551.02  616.72   1-0.45479 0.65870-0.83351 0.34354-0.31370 0.66939
   3  -6   9  180.05  138.28   1-0.43987 0.63315-0.85125 0.35796-0.28612 0.68627
   3  -6  10  200.86  140.06   1-0.42430 0.60695-0.86798 0.37136-0.25802 0.70262
   3  -6  11 1992.34  332.99   1-0.40807 0.58011-0.88364 0.38370-0.22943 0.71849
   3  -6  12   77.40  139.55   1-0.39055 0.55207-0.89854 0.39555-0.20020 0.73400
   3  -6  13  608.32  200.40   1-0.37304 0.52395-0.91198 0.40568-0.17065 0.74892
   3  -6  14  572.62  181.96   1-0.35491 0.49520-0.92425 0.41466-0.14067 0.76343
   3  -6  15 2437.02  447.46   1-0.33615 0.46583-0.93532 0.42243-0.11028 0.77752
   3  -6  16   46.05  136.43   1-0.31676 0.43584-0.94516 0.42896-0.07949 0.79121
   3  -5 -16  215.94  153.62   1-0.54477 0.99810-0.32677-0.00528-0.77229 0.06134
   3  -5 -15  615.08  237.81   1-0.55186 0.99478-0.32501-0.01042-0.76798 0.10147
   3  -5 -14  215.81  146.92   1-0.55715 0.98965-0.32368-0.01513-0.76472 0.14265
   3  -5 -13 2771.38  347.40   1-0.56044 0.98254-0.32284-0.01935-0.76267 0.18502
   3  -5 -12  -19.95  114.18   1-0.56151 0.97320-0.32256-0.02300-0.76200 0.22879
   3  -5 -11 2331.00  363.71   1-0.56006 0.96133-0.32293-0.02601-0.76291 0.27413
   3  -5 -10 1400.81  232.64   1-0.55569 0.94655-0.32405-0.02827-0.76563 0.32128
   3  -5  -9 3905.40  321.63   1-0.54790 0.92836-0.32600-0.02970-0.77040 0.37049
   3  -5  -810779.32  698.50   1-0.53604 0.90608-0.32890-0.03018-0.77748 0.42200
   3  -5  -7 6095.46  346.70   1-0.51926 0.87889-0.33284-0.02962-0.78713 0.47609
   3  -5  -6 6022.22  210.19   1-0.57792 0.92734-0.57580 0.20850-0.57832 0.31072
   3  -5  -6 6781.66  392.45   1-0.49644 0.84566-0.33792-0.02791-0.79959 0.53298
   3  -5  -5   45.26   51.11   1-0.57395 0.91275-0.59077 0.22021-0.56705 0.34406
   3  -5  -5  147.58   90.13   1-0.46177 0.80268-0.34347-0.02474-0.81779 0.59588
   3  -5  -4  331.96   84.69   1-0.56875 0.89692-0.60901 0.23519-0.55282 0.37443
   3  -5  -4  399.04  130.48   1-0.42207 0.75238-0.35083-0.02087-0.83591 0.65838
   3  -5  -3 5394.52  256.35   1-0.56244 0.87999-0.62935 0.25229-0.53624 0.40244
   3  -5  -3 5238.22  292.41   1-0.37053 0.69023-0.35919-0.01602-0.85655 0.72340
   3  -5  -2   98.42   68.37   1-0.55510 0.86202-0.65099 0.27067-0.51774 0.42854
   3  -5  -2    1.29   71.76   1-0.30470 0.61267-0.36664-0.01246-0.87905 0.79023
   3  -5  -1  822.40  125.38   1-0.54680 0.84309-0.67332 0.28974-0.49763 0.45303
   3  -5  -1 1014.63  141.52   1-0.21929 0.51661-0.37529-0.00725-0.90059 0.85618
   3  -5   023632.53  655.26   1-0.53759 0.82325-0.69587 0.30905-0.47617 0.47617
   3  -5   022464.51  604.07   1-0.11116 0.39715-0.38131-0.00500-0.91773 0.91773
   3  -5   147172.75 1131.10   1-0.52550 0.80124-0.71845 0.32837-0.45570 0.50018
   3  -5   143534.28  991.65   1 0.02392 0.25159-0.38318-0.00668-0.92336 0.96780
   3  -5   239487.53  991.28   1-0.51461 0.77975-0.74060 0.34718-0.43205 0.52099
   3  -5   234589.00  804.52   1 0.18534 0.07954-0.37624-0.01695-0.90779 0.99668
   3  -5   3 1336.60  185.25   1-0.50296 0.75750-0.76218 0.36542-0.40754 0.54097
   3  -5   3  980.97  101.72   1 0.37001-0.11568-0.35351-0.04289-0.85913 0.99235
   3  -5   4  182.73  103.97   1-0.49058 0.73452-0.78305 0.38295-0.38230 0.56019
   3  -5   4  280.24   64.92   1 0.55844-0.31472-0.31407-0.08637-0.76778 0.94524
   3  -5   5   55.27  100.94   1-0.47750 0.71083-0.80309 0.39966-0.35640 0.57876
   3  -5   6 7732.89  419.45   1-0.46351 0.68591-0.82228 0.41619-0.33014 0.59691
   3  -5   7 6834.69  419.56   1-0.44911 0.66088-0.84049 0.43107-0.30311 0.61433
   3  -5   8  962.75  201.77   1-0.43407 0.63522-0.85768 0.44494-0.27558 0.63127
   3  -5   9 4982.96  364.00   1-0.41844 0.60896-0.87383 0.45777-0.24762 0.64776
   3  -5  10  -32.59  122.02   1-0.40221 0.58211-0.88890 0.46951-0.21924 0.66384
   3  -5  11  -58.82  116.07   1-0.38473 0.55409-0.90319 0.48073-0.19030 0.67961
   3  -5  12 1632.48  249.67   1-0.36731 0.52606-0.91603 0.49027-0.16110 0.69489
   3  -5  13 2548.51  357.90   1-0.34932 0.49747-0.92771 0.49865-0.13155 0.70983
   3  -5  14 2335.84  301.10   1-0.33077 0.46830-0.93821 0.50585-0.10167 0.72443
   3  -5  15  486.46  192.18   1-0.31164 0.43857-0.94750 0.51184-0.07145 0.73869
   3  -5  16 2154.86  420.08   1-0.29148 0.40749-0.95569 0.51652-0.04108 0.75309
  -3   5 -17   93.35   91.26   1 0.27640-0.37987 0.96097-0.51668 0.01156-0.76729
   3  -5  17  -30.49  137.20   1-0.27118 0.37658-0.96247 0.51998-0.01016 0.76668
  -3   5 -18  330.82  165.29   1 0.25514-0.34795 0.96670-0.51899-0.01943-0.78074
   3  -5  18  255.92  206.61   1-0.25028 0.34508-0.96794 0.52212 0.02107 0.77993
   3  -4 -17  152.54  199.75   1-0.53589 0.99674-0.32893 0.07748-0.77757 0.02218
   3  -4 -16  186.41  161.24   1-0.54509 0.99553-0.32669 0.07186-0.77209 0.06115
   3  -4 -15 4639.93  769.69   1-0.55262 0.99265-0.32482 0.06661-0.76752 0.10101
   3  -4 -14   48.15  133.55   1-0.55832 0.98794-0.32338 0.06179-0.76399 0.14191
   3  -4 -13   49.22  134.68   1-0.56203 0.98123-0.32243 0.05746-0.76168 0.18403
   3  -4 -12 1443.89  267.41   1-0.56348 0.97228-0.32205 0.05370-0.76076 0.22755
   3  -4 -11 2725.76  308.86   1-0.56238 0.96077-0.32234 0.05061-0.76145 0.27268
   3  -4 -10  375.52  164.86   1-0.55832 0.94630-0.32338 0.04827-0.76399 0.31965
   3  -4  -916101.04  958.90   1-0.55079 0.92835-0.32528 0.04680-0.76864 0.36873
   3  -4  -812028.78  603.27   1-0.53909 0.90624-0.32816 0.04630-0.77568 0.42021
   3  -4  -713532.65  579.35   1-0.52234 0.87908-0.33213 0.04689-0.78539 0.47435
   3  -4  -610025.12  466.05   1-0.49937 0.84570-0.33729 0.04867-0.79803 0.53143
   3  -4  -5 7272.93  356.10   1-0.54706 0.88331-0.67266 0.37947-0.49823 0.27524
   3  -4  -5 7843.68  461.33   1-0.46450 0.80237-0.34293 0.05185-0.81647 0.59456
   3  -4  -4 1162.27   99.21   1-0.54290 0.86852-0.68313 0.38668-0.48844 0.31005
   3  -4  -4 1429.76  171.75   1-0.42409 0.75136-0.35048 0.05590-0.83504 0.65751
   3  -4  -3  467.74   78.53   1-0.53510 0.85066-0.69703 0.39764-0.47729 0.34387
   3  -4  -3  556.75  138.31   1-0.37140 0.68806-0.35906 0.06098-0.85623 0.72308
   3  -4  -2 5038.20  285.32   1-0.52746 0.83242-0.71421 0.41149-0.46007 0.37112
   3  -4  -2 5595.62  342.08   1-0.30403 0.60910-0.36672 0.06481-0.87925 0.79043
   3  -4  -1113982.8  873.92   1-0.51867 0.81302-0.73260 0.42654-0.44076 0.39629
   3  -4  -1113739.9 2268.11   1-0.21647 0.51090-0.37552 0.07017-0.90117 0.85676
   3  -4   0 1120.76  135.43   1-0.50886 0.79262-0.75151 0.44211-0.41986 0.41986
   3  -4   0 1254.75  147.74   1-0.10595 0.38927-0.38152 0.07246-0.91826 0.91826
   3  -4   113528.93  428.38   1-0.49817 0.77132-0.77049 0.45776-0.39768 0.44216
   3  -4   112944.04  385.17   1 0.03055 0.24224-0.38309 0.07053-0.92320 0.96764
   3  -4   2 8869.44  308.75   1-0.48667 0.74922-0.78924 0.47317-0.37447 0.46342
   3  -4   2 8079.54  377.64   1 0.19291 0.06959-0.37445 0.05868-0.90695 0.99584
   3  -4   3  172.56  105.96   1-0.47443 0.72638-0.80754 0.48813-0.35041 0.48383
   3  -4   3  189.13   69.63   1 0.37001-0.11850-0.35351 0.03435-0.85913 0.99235
   3  -4   4 1827.40  184.23   1-0.46136 0.70225-0.82511 0.50290-0.32606 0.50391
   3  -4   4 1310.69  108.66   1 0.54778-0.30673-0.31680-0.00647-0.77431 0.95177
   3  -4   518494.09  578.06   1-0.44776 0.67802-0.84210 0.51657-0.30061 0.52291
   3  -4   648422.39 1210.10   1-0.43353 0.65317-0.85827 0.52941-0.27460 0.54137
   3  -4   7 3505.37  286.19   1-0.41871 0.62773-0.87356 0.54137-0.24811 0.55933
   3  -4   8  810.84  172.41   1-0.40333 0.60172-0.88792 0.55240-0.22118 0.57686
   3  -4   935834.69 1216.40   1-0.38675 0.57457-0.90160 0.56297-0.19372 0.59407
   3  -4  10  236.75   97.89   1-0.37022 0.54744-0.91399 0.57206-0.16594 0.61077
   3  -4  11 2110.16  274.10   1-0.35316 0.51977-0.92535 0.58012-0.13782 0.62713
   3  -4  1214311.82  551.59   1-0.33558 0.49157-0.93564 0.58710-0.10936 0.64315
   3  -4  13 2167.62  288.29   1-0.31746 0.46285-0.94483 0.59300-0.08059 0.65886
   3  -4  14  190.65  116.94   1-0.29839 0.43295-0.95303 0.59771-0.05173 0.67474
  -3   4 -15 6791.55 1445.32   1 0.28449-0.40697 0.95838-0.59816 0.02352-0.69033
   3  -4  15 7653.92  473.02   1-0.27920 0.40316-0.95997 0.60132-0.02231 0.68983
   3  -4  16   59.36  129.76   1-0.25947 0.37282-0.96572 0.60375 0.00739 0.70461
  -3   4 -17  204.17  149.80   1 0.24384-0.34501 0.96915-0.60209-0.03568-0.72003
   3  -4  17  374.57  171.87   1-0.23919 0.34194-0.97024 0.60495 0.03741 0.71909
  -3   4 -18  768.71  199.77   1 0.22261-0.31313 0.97268-0.60219-0.06580-0.73437
   3  -4  18  701.44  247.32   1-0.21835 0.31049-0.97351 0.60490 0.06774 0.73327
   3  -3 -17 1372.69  337.69   1-0.52941 0.98737-0.33048 0.15624-0.78134 0.02596
   3  -3 -16  168.94  160.71   1-0.53891 0.98646-0.32820 0.15059-0.77579 0.06484
   3  -3 -15  224.37  208.48   1-0.54669 0.98383-0.32630 0.14531-0.77113 0.10462
   3  -3 -14 1049.03  301.13   1-0.55261 0.97934-0.32483 0.14046-0.76753 0.14545
   3  -3 -13 2593.12  367.56   1-0.55646 0.97278-0.32385 0.13611-0.76515 0.18750
   3  -3 -12  634.49  208.81   1-0.55800 0.96391-0.32346 0.13234-0.76419 0.23098
   3  -3 -11 3562.79  329.69   1-0.55689 0.95239-0.32374 0.12924-0.76488 0.27611
   3  -3 -1012264.67  772.83   1-0.55272 0.93780-0.32480 0.12691-0.76746 0.32312
   3  -3  -9  143.54  124.02   1-0.54491 0.91959-0.32674 0.12548-0.77220 0.37230
   3  -3  -8   -9.34   93.82   1-0.53275 0.89701-0.32968 0.12504-0.77940 0.42393
   3  -3  -7 3349.03  269.59   1-0.51528 0.86913-0.33375 0.12573-0.78936 0.47832
   3  -3  -622052.17  692.83   1-0.49125 0.83469-0.33904 0.12764-0.80232 0.53571
   3  -3  -5  160.32  125.21   1-0.45510 0.78993-0.34477 0.13082-0.82098 0.59907
   3  -3  -4   33.76   32.99   1-0.45096 0.77408-0.83824 0.61986-0.30655 0.12871
   3  -3  -4   23.14   77.34   1-0.41265 0.73688-0.35246 0.13502-0.83992 0.66239
   3  -3  -3  893.17   73.52   1-0.46123 0.77372-0.82528 0.60358-0.32582 0.19244
   3  -3  -3 1079.01  133.94   1-0.35722 0.67083-0.36113 0.14020-0.86137 0.72822
   3  -3  -211541.30  309.98   1-0.46268 0.76455-0.82338 0.59835-0.32856 0.23964
   3  -3  -211876.71  391.84   1-0.28643 0.58860-0.36875 0.14404-0.88429 0.79548
   3  -3   0  313.69   95.49   1-0.07979 0.36043-0.38239 0.15060-0.92054 0.92054
   3  -3   1 2029.66  182.15   1-0.44552 0.71551-0.84475 0.60974-0.29647 0.34093
   3  -3   1 2175.80  181.52   1 0.05968 0.21038-0.38252 0.14726-0.92201 0.96646
   3  -3   3  117.57  113.48   1-0.42533 0.67408-0.86692 0.62526-0.25987 0.39325
   3  -3   3   47.76   93.31   1 0.39295-0.14426-0.34982 0.10791-0.85041 0.98363
   3  -3   447213.41 1068.08   1-0.41364 0.65177-0.87846 0.63348-0.23916 0.41700
   3  -3   435505.01  781.85   1 0.55940-0.32103-0.31382 0.06770-0.76718 0.94464
   3  -3   5 2762.66  225.45   1-0.40108 0.62858-0.88989 0.64159-0.21729 0.43959
   3  -3   6 2204.22  207.62   1-0.38720 0.60410-0.90124 0.64974-0.19450 0.46140
   3  -3   722185.19  664.42   1-0.37311 0.57940-0.91193 0.65713-0.17076 0.48214
   3  -3   827295.16  790.62   1-0.35837 0.55405-0.92203 0.66393-0.14634 0.50220
   3  -3   912577.79  548.33   1-0.34301 0.52808-0.93146 0.67006-0.12133 0.52167
   3  -3  10  911.02  154.88   1-0.32707 0.50152-0.94013 0.67543-0.09578 0.54060
   3  -3  1114612.28  649.12   1-0.31055 0.47440-0.94799 0.67999-0.06975 0.55906
   3  -3  12 7065.30  534.17   1-0.29309 0.44619-0.95509 0.68361-0.04355 0.57756
  -3   3 -13 7450.86  850.35   1 0.28052-0.42202 0.95968-0.68352 0.01764-0.59555
   3  -3  13 8337.35  431.56   1-0.27546 0.41796-0.96116 0.68636-0.01663 0.59515
  -3   3 -14 5104.02 1116.60   1 0.26210-0.39294 0.96499-0.68541-0.00933-0.61302
   3  -3  14 6144.89  402.21   1-0.25729 0.38919-0.96627 0.68815 0.01065 0.61235
  -3   3 -15  382.62  113.40   1 0.24311-0.36329 0.96930-0.68630-0.03673-0.63008
   3  -3  15  292.75  122.70   1-0.23858 0.35987-0.97036 0.68891 0.03832 0.62918
  -3   3 -16  618.34  163.93   1 0.22352-0.33305 0.97255-0.68613-0.06452-0.64675
   3  -3  16  684.83  205.75   1-0.21932 0.33001-0.97339 0.68862 0.06634 0.64566
  -3   3 -17   53.36   77.63   1 0.20255-0.30245 0.97496-0.68425-0.09168-0.66356
   3  -3  17  184.16  153.04   1-0.19895 0.29927-0.97544 0.68773 0.09443 0.66139
  -3   3 -17  115.16   69.76   1-0.90930 0.80690-0.16601 0.45636-0.38158-0.37501
  -3   3 -18   51.26   46.12   1 0.18179-0.27104 0.97596-0.68177-0.12017-0.67949
   3  -3  18  119.81  138.86   1-0.17858 0.26830-0.97618 0.68518 0.12315 0.67714
  -3   3 -19  588.49  181.82   1 0.16041-0.23901 0.97573-0.67805-0.14904-0.69505
   3  -3  19  617.67  241.44   1-0.15762 0.23675-0.97569 0.68141 0.15221 0.69254
   3  -2 -17  393.13  174.04   1-0.51595 0.97102-0.33360 0.23659-0.78898 0.03360
   3  -2 -16 3445.72  584.35   1-0.52557 0.97024-0.33138 0.23099-0.78355 0.07260
   3  -2 -15 1874.98  303.40   1-0.53340 0.96766-0.32953 0.22576-0.77902 0.11251
   3  -2 -14   38.35  134.17   1-0.53928 0.96312-0.32812 0.22097-0.77557 0.15349
   3  -2 -13  606.46  243.59   1-0.54298 0.95641-0.32721 0.21669-0.77336 0.19572
   3  -2 -12 2041.81  288.40   1-0.54424 0.94726-0.32690 0.21300-0.77260 0.23939
   3  -2 -11  648.37  186.11   1-0.54270 0.93531-0.32728 0.21000-0.77353 0.28475
   3  -2 -10  -10.92  106.78   1-0.53788 0.92008-0.32845 0.20779-0.77639 0.33205
   3  -2  -910280.17  514.99   1-0.52919 0.90098-0.33053 0.20649-0.78147 0.38156
   3  -2  -8 5695.13  357.12   1-0.51582 0.87719-0.33363 0.20621-0.78906 0.43358
   3  -2  -7  304.02  111.63   1-0.49672 0.84769-0.33786 0.20707-0.79944 0.48840
   3  -2  -6 1083.60  156.64   1-0.46678 0.80917-0.34248 0.20917-0.81536 0.54907
   3  -2  -534435.80  888.26   1-0.43186 0.76365-0.34910 0.21229-0.83163 0.60972
   3  -2  -413063.64  437.26   1-0.38583 0.70701-0.35685 0.21654-0.85075 0.67322
  -3   2   3  454.82   69.51   1 0.18672-0.49700 0.97583-0.83192-0.11345 0.24673
   3  -2  -3  554.27   47.69   1-0.19634 0.50593-0.97561 0.83091 0.09814-0.23152
   3  -2  -3  735.15  141.70   1-0.32587 0.63645-0.36539 0.22159-0.87194 0.73879
  -3   2   255128.57  596.25   1 0.27956-0.57857 0.95998-0.81238 0.01623 0.07267
   3  -2  -259738.43  568.50   1-0.28305 0.58196-0.95869 0.81093-0.02817-0.06082
   3  -2  -264982.22  838.67   1-0.24969 0.54897-0.37257 0.22505-0.89378 0.80496
   3  -2  -1 6346.08  209.69   1-0.32038 0.60878-0.94344 0.79228-0.08519 0.04071
   3  -2  -1 6266.87  260.65   1-0.15189 0.44053-0.37997 0.22902-0.91243 0.86803
   3  -2   0 4779.62  191.87   1-0.33774 0.61553-0.93444 0.77998-0.11283 0.11283
   3  -2   0 4984.06  219.97   1-0.03116 0.30912-0.38331 0.22879-0.92309 0.92309
   3  -2   113513.68  389.46   1-0.34481 0.61200-0.93041 0.77264-0.12424 0.16872
   3  -2   114093.41  427.34   1 0.11172 0.15560-0.38067 0.22272-0.91793 0.96238
   3  -2   212228.07  375.66   1-0.34580 0.60237-0.92983 0.76876-0.12583 0.21480
   3  -2   211807.98  372.75   1 0.27182-0.01495-0.36701 0.20567-0.88961 0.97850
   3  -2   3  946.15  110.30   1-0.34279 0.58875-0.93158 0.76722-0.12097 0.25441
   3  -2   3  903.32  115.62   1 0.43598-0.19010-0.34220 0.17754-0.83235 0.96557
   3  -2   473803.78  883.87   1-0.33697 0.57232-0.93487 0.76721-0.11159 0.28952
   3  -2   462943.56  768.08   1 0.58914-0.35344-0.30577 0.13682-0.74793 0.92539
   3  -2   537783.53  910.39   1-0.32904 0.55379-0.93911 0.76815-0.09892 0.32133
   3  -2   614165.14  451.70   1-0.31946 0.53360-0.94389 0.76962-0.08374 0.35063
   3  -2   7 1545.33  180.79   1-0.30823 0.51169-0.94894 0.77128-0.06701 0.37852
   3  -2   831573.45  847.75   1-0.29614 0.48901-0.95392 0.77293-0.04826 0.40426
  -3   2  -931150.72 1036.48   1 0.28769-0.46950 0.95730-0.77206 0.02826-0.42835
   3  -2   933732.94  915.16   1-0.28308 0.46534-0.95868 0.77437-0.02821 0.42872
  -3   2 -10 4074.51  759.92   1 0.27367-0.44483 0.96179-0.77312 0.00755-0.45210
   3  -2  10 3958.13  287.71   1-0.26913 0.44079-0.96307 0.77544-0.00708 0.45209
  -3   2 -11   67.11   99.50   1 0.25881-0.41931 0.96582-0.77373-0.01412-0.47487
   3  -2  11  110.74  119.01   1-0.25439 0.41544-0.96698 0.77603 0.01497 0.47453
  -3   2 -12 5716.66 1024.18   1 0.24316-0.39301 0.96929-0.77378-0.03666-0.49679
   3  -2  12 6177.89  374.12   1-0.23891 0.38935-0.97030 0.77602 0.03784 0.49616
  -3   2 -1322374.73 1261.01   1 0.22677-0.36596 0.97210-0.77316-0.05995-0.51795
   3  -2  1323759.66 1309.08   1-0.22273 0.36257-0.97294 0.77534 0.06141 0.51709
  -3   2 -14   87.23   61.07   1 0.20892-0.33825 0.97441-0.77132-0.08285-0.53911
   3  -2  14   -3.38  123.96   1-0.20522 0.33466-0.97497 0.77440 0.08551 0.53693
  -3   2 -15  361.68   99.86   1 0.19115-0.30983 0.97566-0.76909-0.10738-0.55900
   3  -2  15  302.23  132.78   1-0.18773 0.30658-0.97600 0.77214 0.11032 0.55659
  -3   2 -16  539.94  111.31   1 0.17271-0.28075 0.97602-0.76596-0.13248-0.57833
   3  -2  16  267.95  150.48   1-0.16961 0.27786-0.97613 0.76898 0.13565 0.57572
  -3   2 -17 1541.55  356.23   1 0.15361-0.25100 0.97539-0.76186-0.15812-0.59712
  -3   2 -18 2207.23  583.08   1 0.13384-0.22059 0.97372-0.75670-0.18426-0.61541
  -3   2 -18  894.71  329.57   1-0.91107 0.82204-0.16451 0.38107-0.37798-0.42312
  -3   2 -19  -26.11  116.69   1 0.11340-0.18951 0.97091-0.75041-0.21088-0.63321
  -3   2 -19   80.10   77.31   1-0.88925 0.81063-0.18184 0.40184-0.41970-0.42590
  -3   2 -20  603.74  203.21   1 0.09342-0.15822 0.96672-0.74286-0.23814-0.65046
   3  -1 -17 1580.85  350.35   1-0.49464 0.94683-0.33831 0.31853-0.80054 0.04515
   3  -1 -16  225.35  205.49   1-0.50418 0.94596-0.33624 0.31307-0.79545 0.08450
   3  -1 -15  304.25  227.67   1-0.51180 0.94316-0.33454 0.30800-0.79128 0.12477
   3  -1 -14 6159.18  455.40   1-0.51732 0.93827-0.33329 0.30337-0.78822 0.16614
   3  -1 -13  517.35  186.75   1-0.52050 0.93104-0.33255 0.29926-0.78643 0.20879
   3  -1 -12   78.99  116.42   1-0.52103 0.92117-0.33243 0.29575-0.78613 0.25292
   3  -1 -11  138.07  171.40   1-0.51852 0.90824-0.33301 0.29295-0.78754 0.29877
   3  -1 -10 8175.35  440.66   1-0.51243 0.89174-0.33440 0.29096-0.79094 0.34659
   3  -1  -912909.83  597.85   1-0.50208 0.87098-0.33670 0.28988-0.79658 0.39667
   3  -1  -814151.65  583.52   1-0.48658 0.84507-0.34003 0.28983-0.80474 0.44927
   3  -1  -7   92.20   79.41   1-0.46113 0.81110-0.34359 0.29091-0.81810 0.50742
   3  -1  -616177.94  525.69   1-0.43165 0.77100-0.34913 0.29296-0.83173 0.56543
   3  -1  -5165279.0 1301.46   1-0.39243 0.72117-0.35580 0.29613-0.84817 0.62626
   3  -1  -4 9450.18  325.23   1-0.34106 0.65920-0.36339 0.30022-0.86696 0.68943
   3  -1  -3   78.99   54.81   1-0.27581 0.58284-0.36991 0.30303-0.88717 0.75395
  -3   1   2  152.74   28.73   1-0.10432-0.19265 0.87482-0.80441-0.47306 0.56195
   3  -1  -2  174.79   83.51   1-0.19121 0.48760-0.37746 0.30715-0.90606 0.81725
  -3   1   1 8632.04  248.21   1 0.04276-0.32904 0.95251-0.87868-0.30146 0.34589
   3  -1  -110281.67  359.13   1-0.08601 0.37187-0.38221 0.30828-0.92006 0.87559
  -3   1   049801.78  554.66   1 0.12334-0.39919 0.97241-0.89523-0.19799 0.19799
   3  -1   053186.81  675.41   1 0.04092 0.23432-0.38293 0.30562-0.92286 0.92286
  -3   1  -1 7322.21  251.33   1 0.17086-0.43606 0.97600-0.89534-0.13498 0.09056
   3  -1   1 7383.48  244.46   1-0.17139 0.43593-0.97615 0.89559 0.13317-0.08871
   3  -1   1 7485.48  274.69   1 0.18614 0.07846-0.37618 0.29554-0.90765 0.95210
  -3   1  -2 4242.17  433.64   1 0.19924-0.45380 0.97521-0.89107-0.09626 0.00740
   3  -1   2 4165.24  177.01   1-0.19883 0.45277-0.97545 0.89160 0.09460-0.00568
   3  -1   2 3814.46  189.92   1 0.34189-0.08785-0.35818 0.27405-0.86879 0.95769
  -3   1  -3 1613.45  240.54   1 0.21656-0.46000 0.97343-0.88594-0.07429-0.05906
   3  -1   3 1400.45  115.85   1 0.49544-0.25238-0.33006 0.24264-0.80348 0.93670
  -3   1  -4104448.3 1577.94   1 0.22517-0.45796 0.97233-0.88141-0.06219-0.11561
   3  -1   4112513.5 1135.88   1-0.22307 0.45569-0.97289 0.88240 0.06092 0.11707
  -3   1  -552971.06  726.40   1 0.22827-0.45041 0.97187-0.87754-0.05782-0.16445
   3  -1   555926.23  749.83   1-0.22576 0.44778-0.97251 0.87869 0.05702 0.16548
  -3   1  -651102.66 1205.90   1 0.22735-0.43883 0.97201-0.87426-0.05913-0.20759
   3  -1   657805.20 1257.72   1-0.22454 0.43595-0.97268 0.87555 0.05879 0.20821
  -3   1  -799786.35 2046.17   1 0.22335-0.42418 0.97258-0.87140-0.06476-0.24641
   3  -1   7105890.2 2143.90   1-0.22035 0.42116-0.97326 0.87279 0.06484 0.24665
  -3   1  -8 7610.05  850.27   1 0.21694-0.40711 0.97339-0.86879-0.07376-0.28187
   3  -1   8 8146.36  479.48   1-0.21384 0.40404-0.97404 0.87025 0.07423 0.28177
  -3   1  -914155.28  602.11   1 0.20787-0.38791 0.97451-0.86600-0.08432-0.31551
   3  -1   915103.21  510.57   1-0.20467 0.38444-0.97501 0.86815 0.08629 0.31385
  -3   1 -1013385.24  550.80   1 0.19787-0.36728 0.97530-0.86331-0.09814-0.34611
   3  -1  1014717.08  525.77   1-0.19469 0.36386-0.97570 0.86555 0.10049 0.34411
  -3   1 -11  832.66  229.90   1 0.18648-0.34524 0.97584-0.86037-0.11377-0.37491
   3  -1  11  810.08  188.55   1-0.18336 0.34194-0.97612 0.86268 0.11645 0.37261
  -3   1 -12 5439.14  756.81   1 0.17386-0.32198 0.97602-0.85707-0.13093-0.40218
   3  -1  12 5840.11  389.87   1-0.17087 0.31885-0.97615 0.85943 0.13389 0.39963
   3  -1  13   99.97  169.75   1-0.15734 0.29472-0.97568 0.85567 0.15260 0.42539
  -3   1 -14  781.64  181.71   1 0.14544-0.27227 0.97483-0.84891-0.16896-0.45300
  -3   1 -15 1781.16  428.30   1 0.12981-0.24599 0.97325-0.84385-0.18954-0.47685
  -3   1 -16  151.72   62.32   1 0.11331-0.21885 0.97089-0.83801-0.21099-0.49982
  -3   1 -17   57.82   64.21   1 0.09701-0.19153 0.96748-0.83131-0.23357-0.52175
  -3   1 -18    4.84   87.76   1 0.07889-0.16276 0.96330-0.82367-0.25654-0.54320
  -3   1 -19   51.18   79.91   1 0.05999-0.13320 0.95806-0.81496-0.28019-0.56398
  -3   1 -19   -2.85   99.96   1-0.90744 0.83176-0.16756 0.31032-0.38532-0.46028
  -3   1 -20  126.40   78.03   1 0.04030-0.10285 0.95166-0.80510-0.30447-0.58414
  -3   1 -20   -0.40  110.69   1-0.88647 0.82121-0.18390 0.33010-0.42467-0.46544
   3   0 -17    3.07  175.76   1-0.45982 0.91283-0.34385 0.40325-0.81873 0.06423
   3   0 -16   70.01  182.94   1-0.46909 0.91148-0.34202 0.39792-0.81422 0.10411
   3   0 -15  159.84  166.27   1-0.48058 0.90906-0.34128 0.39196-0.80781 0.14130
   3   0 -14 4393.23  363.28   1-0.48535 0.90342-0.34028 0.38759-0.80537 0.18329
   3   0 -13   52.11  106.60   1-0.48754 0.89520-0.33982 0.38375-0.80424 0.22660
   3   0 -12 2201.80  265.46   1-0.48679 0.88403-0.33998 0.38053-0.80463 0.27142
   3   0 -11   35.32   95.87   1-0.48263 0.86946-0.34085 0.37802-0.80677 0.31799
   3   0 -10  -64.89   92.33   1-0.47067 0.84941-0.34170 0.37664-0.81345 0.36962
   3   0  -910638.96  488.74   1-0.45785 0.82599-0.34423 0.37568-0.81967 0.42023
   3   0  -8 8370.40  409.83   1-0.43925 0.79678-0.34775 0.37570-0.82832 0.47326
   3   0  -7  -24.69   94.58   1-0.41356 0.76048-0.35231 0.37677-0.83954 0.52887
  -3   0   6 6745.57  268.11   1-0.41368 0.07775-0.87814 0.85834-0.24025 0.50715
   3   0  -6 7406.24  457.44   1-0.37912 0.71544-0.35789 0.37885-0.85333 0.58703
  -3   0   444133.53  849.57   1-0.61265 0.29717-0.28646 0.27290-0.73660 0.91499
   3   0  -447510.34 1130.14   1-0.27653 0.59132-0.36984 0.38359-0.88698 0.70936
  -3   0   3 1347.72   77.66   1-0.54712 0.24227 0.17589-0.18638-0.81835 0.95213
   3   0  -3  980.90  151.46   1-0.20181 0.50595-0.37668 0.38700-0.90408 0.77087
  -3   0   140642.54  448.48   1-0.25237-0.03143 0.73873-0.74219-0.62496 0.66944
   3   0  -143628.62  606.96   1 0.00460 0.27858-0.38341 0.38675-0.92356 0.87909
  -3   0   021871.96  322.63   1-0.13660-0.13660 0.85057-0.85057-0.50780 0.50780
   3   0   022483.36  406.50   1 0.13625 0.13625-0.37943 0.37943-0.91512 0.91512
  -3   0  -120581.79  333.63   1-0.05271-0.20970 0.90807-0.90464-0.41548 0.37100
   3   0   120146.08  383.84   1 0.28049-0.01858-0.36604 0.36258-0.88731 0.93176
  -3   0  -299311.14 1037.17   1 0.00594-0.25802 0.93822-0.93129-0.34597 0.25711
   3   0   293018.75  958.19   1 0.42783-0.17684-0.34372 0.33694-0.83595 0.92476
  -3   0  -313564.17  416.61   1 0.04693-0.28835 0.95392-0.94353-0.29633 0.16304
   3   0   312036.60  378.23   1 0.56509-0.32417-0.31232 0.30136-0.76361 0.89671
  -3   0  -4236486.3 2137.72   1 0.07494-0.30570 0.96228-0.94842-0.26152 0.08380
  -3   0  -5 9229.81  507.25   1 0.09348-0.31359 0.96673-0.94942-0.23807 0.01591
  -3   0  -624452.58  646.48   1 0.10499-0.31445 0.96906-0.94828-0.22335-0.04323
  -3   0  -742927.34 1008.37   1 0.11051-0.30934 0.97042-0.94605-0.21462-0.09636
  -3   0  -8  718.10  201.60   1 0.11246-0.30065 0.97075-0.94290-0.21210-0.14331
  -3   0  -947034.21 1209.37   1 0.11110-0.28865 0.97052-0.93919-0.21385-0.18598
  -3   0 -1012479.61  400.41   1 0.10705-0.27395 0.96981-0.93500-0.21907-0.22519
  -3   0 -11 9020.75  443.83   1 0.10154-0.25773 0.96840-0.93030-0.22778-0.26095
  -3   0 -1222027.08  931.28   1 0.09338-0.23891 0.96671-0.92515-0.23820-0.29496
  -3   0 -13 9461.60  542.98   1 0.08357-0.21846 0.96446-0.91944-0.25064-0.32695
  -3   0 -14  774.34  169.40   1 0.07232-0.19655 0.96158-0.91310-0.26480-0.35722
  -3   0 -1519736.30  673.08   1 0.05979-0.17336 0.95800-0.90605-0.28045-0.38601
  -3   0 -16 1027.47  248.89   1 0.04607-0.14899 0.95364-0.89823-0.29739-0.41349
  -3   0 -17   73.14   65.40   1 0.03127-0.12354 0.94841-0.88954-0.31548-0.43983
  -3   0 -18 5476.89 1254.30   1 0.01544-0.09706 0.94223-0.87989-0.33460-0.46514
  -3   0 -19   19.68   63.22   1-0.00139-0.06919 0.93455-0.86938-0.35581-0.48927
  -3   0 -19   -5.74  104.01   1-0.91886 0.84613-0.15773 0.22325-0.36166-0.48394
  -3   0 -20  372.73  174.18   1-0.01914-0.04078 0.92612-0.85751-0.37673-0.51283
  -3   0 -20   87.32   73.99   1-0.89970 0.83739-0.17382 0.24279-0.40039-0.48972
   3   1 -17   63.68  125.90   1-0.41900 0.86896-0.35137 0.48791-0.83724 0.08274
   3   1 -16  927.97  254.46   1-0.42757 0.86692-0.34986 0.48291-0.83352 0.12341
   3   1 -15  542.00  231.92   1-0.43380 0.86254-0.34875 0.47830-0.83077 0.16503
   3   1 -14 1968.85  297.63   1-0.43743 0.85557-0.34808 0.47414-0.82914 0.20779
   3   1 -13 1655.01  231.62   1-0.43815 0.84568-0.34795 0.47052-0.82882 0.25184
   3   1 -12 1914.35  241.01   1-0.43553 0.83245-0.34843 0.46750-0.82999 0.29740
   3   1 -11 3885.17  349.21   1-0.42904 0.81535-0.34960 0.46518-0.83288 0.34467
  -3  -1  10 2417.62  147.91   1-0.34789-0.02771-0.92858 0.81834-0.12923 0.57405
   3   1 -10 2908.44  256.62   1-0.41797 0.79367-0.35155 0.46363-0.83768 0.39385
  -3  -1   9 1493.15  110.98   1-0.40674 0.04153-0.88486 0.77770-0.22710 0.62725
   3   1  -9 1860.18  221.16   1-0.40142 0.76652-0.35434 0.46293-0.84456 0.44512
  -3  -1   813231.97  420.34   1-0.46523 0.11065-0.81999 0.71616-0.33342 0.68910
   3   1  -816397.52  631.31   1-0.37826 0.73274-0.35802 0.46311-0.85366 0.49860
  -3  -1   7   26.61   40.68   1-0.52323 0.17820-0.72323 0.62253-0.45071 0.76203
   3   1  -7  -28.23  108.01   1-0.34701 0.69089-0.36257 0.46417-0.86493 0.55426
  -3  -1   644099.66  941.36   1-0.57519 0.24105-0.58621 0.48932-0.57053 0.83812
   3   1  -649677.32 1188.79   1-0.30728 0.64047-0.36633 0.46416-0.87828 0.61184
  -3  -1   5 6307.62  285.54   1-0.60760 0.28434-0.40185 0.30755-0.68506 0.90805
   3   1  -5 7980.91  405.31   1-0.25412 0.57666-0.37214 0.46653-0.89271 0.67067
  -3  -1   486610.50 1667.01   1-0.60868 0.29594-0.17868 0.08774-0.77302 0.95116
   3   1  -493910.64 1916.07   1-0.18653 0.49842-0.37780 0.46875-0.90690 0.72927
  -3  -1   366334.77  680.41   1-0.57273 0.27059 0.06541-0.15303-0.81712 0.95045
   3   1  -365938.63  838.51   1-0.10284 0.40449-0.38163 0.46892-0.91857 0.78517
  -3  -1   216871.27  451.88   1-0.50565 0.21404 0.30103-0.38547-0.80851 0.89754
   3   1  -216789.63  501.70   1-0.00037 0.29145-0.38343 0.46737-0.92356 0.83463
  -3  -1   1  210.58   55.15   1-0.41866 0.13736 0.49441-0.57537-0.76175 0.80627
   3   1  -1  216.78   72.13   1 0.11933 0.16109-0.38031 0.46095-0.91712 0.87267
  -3  -1   0 2331.36  131.82   1-0.32969 0.05901 0.64060-0.71804-0.69348 0.69348
   3   1   0 2333.90  161.64   1 0.25160 0.01817-0.36917 0.44638-0.89465 0.89465
  -3  -1  -167098.70  721.77   1-0.24938-0.01062 0.74209-0.81619-0.62217 0.57768
   3   1   161648.38  730.94   1 0.38981-0.13090-0.35034 0.42420-0.85164 0.89605
  -3  -1  -2   79.46   36.16   1-0.18194-0.06750 0.81183-0.88224-0.55481 0.46592
   3   1   2  178.32   63.06   1 0.52218-0.27335-0.32307 0.39293-0.78927 0.87799
  -3  -1  -312244.65  380.72   1-0.12815-0.11060 0.85718-0.92423-0.49880 0.36546
  -3  -1  -4 3724.21  196.36   1-0.08621-0.14189 0.88727-0.95085-0.45311 0.27519
  -3  -1  -519172.31  779.07   1-0.05457-0.16288 0.90698-0.96714-0.41760 0.19521
  -3  -1  -620561.53  458.85   1-0.03128-0.17551 0.91991-0.97663-0.39086 0.12399
  -3  -1  -7119580.8 1240.01   1-0.01476-0.18137 0.92827-0.98156-0.37160 0.06025
  -3  -1  -8 2105.37  529.58   1-0.00374-0.18173 0.93348-0.98334-0.35860 0.00277
  -3  -1  -9 1512.88  314.69   1 0.00245-0.17770 0.93669-0.98282-0.35013-0.04974
  -3  -1 -10 1526.33  435.43   1 0.00531-0.16991 0.93795-0.98061-0.34672-0.09758
  -3  -1 -11 1094.59  255.79   1 0.00507-0.15902 0.93784-0.97704-0.34700-0.14172
  -3  -1 -12 5785.82  513.05   1 0.00221-0.14550 0.93659-0.97233-0.35041-0.18275
  -3  -1 -13  403.96  117.24   1-0.00269-0.12949 0.93396-0.96667-0.35736-0.22085
  -3  -1 -14 5305.31  946.02   1-0.00979-0.11174 0.93066-0.95994-0.36574-0.25694
  -3  -1 -15  120.26   78.80   1-0.01860-0.09227 0.92639-0.95224-0.37610-0.29107
  -3  -1 -16  941.91  184.25   1-0.02896-0.07126 0.92112-0.94354-0.38817-0.32347
  -3  -1 -17   42.38   98.26   1-0.04072-0.04884 0.91483-0.93382-0.40176-0.35437
  -3  -1 -18  824.70  193.22   1-0.05376-0.02514 0.90746-0.92302-0.41668-0.38392
  -3  -1 -19  152.42  117.57   1-0.06801-0.00024 0.89892-0.91105-0.43279-0.41229
  -3  -1 -20   -3.10  104.81   1-0.08339 0.02579 0.88913-0.89783-0.44998-0.43958
  -3  -1 -20  126.44  106.58   1-0.90760 0.84824-0.16742 0.15915-0.38498-0.50513
   3   2 -17  228.43  170.34   1-0.36560 0.81252-0.35992 0.57360-0.85836 0.10386
   3   2 -16  277.95  157.22   1-0.37305 0.80936-0.35881 0.56900-0.85561 0.14549
   3   2 -15   83.96  120.62   1-0.37781 0.80351-0.35809 0.56478-0.85382 0.18809
   3   2 -14 3324.70  321.57   1-0.37959 0.79468-0.35782 0.56101-0.85315 0.23180
   3   2 -13 2838.17  339.40   1-0.37800 0.78248-0.35806 0.55776-0.85375 0.27678
  -3  -2  12  345.41  106.71   1-0.36342-0.03064-0.91869 0.72462-0.15467 0.68846
   3   2 -12  230.64  120.68   1-0.37253 0.76641-0.35889 0.55510-0.85581 0.32322
  -3  -2  11 8469.53  497.77   1-0.41074 0.02705-0.88118 0.69015-0.23409 0.72315
   3   2 -11 9818.78  624.68   1-0.36256 0.74583-0.36036 0.55308-0.85946 0.37125
  -3  -2  10 8327.77  482.97   1-0.45567 0.08260-0.83241 0.64471-0.31534 0.75995
   3   2 -1010691.00  659.31   1-0.34726 0.71992-0.36254 0.55176-0.86485 0.42102
  -3  -2   9   54.28  111.24   1-0.49950 0.13585-0.76822 0.58349-0.40041 0.80067
   3   2  -9   53.02  104.39   1-0.32561 0.68767-0.36542 0.55115-0.87202 0.47258
  -3  -2   811820.04  419.03   1-0.54131 0.18846-0.68702 0.50626-0.48474 0.84153
   3   2  -813605.60  540.31   1-0.29781 0.64940-0.36745 0.54936-0.88106 0.52581
  -3  -2   7  950.95  102.14   1-0.57497 0.23276-0.58701 0.40950-0.56992 0.88211
   3   2  -7 1422.22  162.31   1-0.25933 0.60027-0.37162 0.55009-0.89142 0.58057
  -3  -2   6 2140.12  137.05   1-0.60009 0.26884-0.46580 0.29109-0.65031 0.91814
   3   2  -6 2209.36  173.66   1-0.20978 0.54007-0.37606 0.55109-0.90253 0.63609
  -3  -2   579520.04 1594.37   1-0.61210 0.29160-0.32402 0.15236-0.72134 0.94432
   3   2  -584622.10 1754.53   1-0.14818 0.46830-0.37954 0.55077-0.91322 0.69089
  -3  -2   416966.83  451.85   1-0.60776 0.29783-0.16645-0.00185-0.77647 0.95461
   3   2  -416607.38  480.14   1-0.07039 0.37994-0.38264 0.55053-0.92121 0.74334
  -3  -2   313564.72  385.04   1-0.58600 0.28673 0.00033-0.16535-0.81030 0.94362
   3   2  -314722.43  444.39   1 0.02370 0.27527-0.38318 0.54779-0.92336 0.79002
   3   2  -2  204.48  107.06   1 0.13305 0.15528-0.37961 0.54089-0.91552 0.82663
   3   2  -1  -29.17   51.54   1 0.25393 0.02371-0.36893 0.52681-0.89409 0.84964
  -3  -2   013922.28  417.90   1-0.44037 0.17234 0.45252-0.60746-0.77542 0.77542
   3   2   012630.53  396.89   1 0.38175-0.11492-0.35165 0.50615-0.85475 0.85475
  -3  -2  -144327.12  590.85   1-0.38104 0.12340 0.56251-0.71394-0.73374 0.68924
   3   2   137969.36  546.71   1 0.50778-0.25169-0.32729 0.47839-0.79689 0.84129
  -3  -2  -234740.26  519.84   1-0.32410 0.07714 0.64841-0.79638-0.68885 0.59984
  -3  -2  -3 1125.05  112.80   1-0.27354 0.03734 0.71405-0.85878-0.64443 0.51096
  -3  -2  -481371.89  933.62   1-0.22954 0.00404 0.76371-0.90499-0.60336 0.42541
  -3  -2  -513210.03  444.98   1-0.19327-0.02170 0.80126-0.93871-0.56623 0.34400
  -3  -2  -646509.12 1053.65   1-0.16374-0.04053 0.82805-0.96214-0.53619 0.26952
  -3  -2  -7  919.78  124.16   1-0.14048-0.05310 0.84748-0.97819-0.51189 0.20077
  -3  -2  -8  593.82  137.62   1-0.12272-0.06016 0.86133-0.98868-0.49298 0.13741
  -3  -2  -948153.82 1282.97   1-0.10974-0.06244 0.87094-0.99492-0.47896 0.07895
  -3  -2 -1063842.38 1483.55   1-0.10054-0.06129 0.87752-0.99782-0.46887 0.02409
  -3  -2 -11  114.66  151.38   1-0.09521-0.05596 0.88121-0.99808-0.46303-0.02622
  -3  -2 -12 3600.96  245.42   1-0.09297-0.04754 0.88274-0.99618-0.46057-0.07316
  -3  -2 -1321101.04  792.14   1-0.09342-0.03643 0.88243-0.99244-0.46107-0.11714
  -3  -2 -14 8503.66  555.04   1-0.09624-0.02296 0.88050-0.98708-0.46416-0.15852
  -3  -2 -15 7017.87  382.33   1-0.10115-0.00739 0.87709-0.98024-0.46954-0.19763
  -3  -2 -16 1187.58  195.69   1-0.10844 0.01113 0.87188-0.97227-0.47755-0.23357
  -3  -2 -17  367.26  137.44   1-0.11692 0.03031 0.86568-0.96270-0.48673-0.26883
  -3  -2 -18 1490.25  314.55   1-0.12693 0.05102 0.85812-0.95177-0.49750-0.30252
  -3  -2 -19  447.58  192.32   1-0.13838 0.07316 0.84916-0.93944-0.50967-0.33479
  -3  -2 -20  312.80  144.75   1-0.15115 0.09663 0.83874-0.92566-0.52311-0.36579
  -3  -2 -20  318.04   93.24   1-0.91136 0.85494-0.16427 0.07875-0.37740-0.51271
   3   3 -16  302.50  123.71   1-0.30418 0.73805-0.36670 0.65331-0.87920 0.16869
   3   3 -15    0.12  101.65   1-0.30684 0.73006-0.36638 0.64955-0.87841 0.21231
   3   3 -14  404.18  156.74   1-0.30601 0.71858-0.36648 0.64621-0.87866 0.25696
   3   3 -13 2881.25  272.14   1-0.30122 0.70314-0.36705 0.64335-0.88007 0.30279
  -3  -3  12    7.41   68.11   1-0.43408 0.04252-0.85768 0.58609-0.27559 0.80912
   3   3 -12   43.99   84.34   1-0.29187 0.68315-0.36814 0.64099-0.88276 0.34988
  -3  -3  11 1651.34  185.68   1-0.47171 0.09077-0.81109 0.54283-0.34585 0.83492
   3   3 -11 1881.71  220.69   1-0.27722 0.65785-0.36976 0.63918-0.88680 0.39832
  -3  -3  10 2236.22  197.68   1-0.50761 0.13594-0.75382 0.48841-0.41722 0.86195
   3   3 -10 3001.70  282.65   1-0.25634 0.62632-0.37192 0.63790-0.89216 0.44810
  -3  -3   9 9023.15  406.21   1-0.54175 0.18082-0.68596 0.42457-0.48575 0.88714
   3   3  -9 9426.04  455.93   1-0.22808 0.58741-0.37454 0.63708-0.89871 0.49905
  -3  -3   8 5714.11  255.92   1-0.56934 0.21905-0.60701 0.34888-0.55441 0.91120
   3   3  -8 6129.87  281.35   1-0.19107 0.53976-0.37748 0.63658-0.90609 0.55083
  -3  -3   7  170.93  116.66   1-0.59172 0.25263-0.51601 0.26060-0.61934 0.93180
   3   3  -7   87.19   87.12   1-0.14521 0.48381-0.37970 0.63488-0.91363 0.60236
  -3  -3   6  817.36  117.99   1-0.60658 0.27830-0.41284 0.16044-0.67941 0.94699
   3   3  -6  840.96  125.32   1-0.08573 0.41375-0.38221 0.63405-0.92008 0.65328
  -3  -3   5  167.38   89.22   1-0.61257 0.29483-0.30018 0.05116-0.73119 0.95417
   3   3  -5  107.28   86.79   1-0.01280 0.33025-0.38342 0.63192-0.92348 0.70114
  -3  -3   316011.46  465.48   1-0.59491 0.29850-0.05281-0.18961-0.80205 0.93538
   3   3  -314962.46  435.03   1 0.17539 0.12085-0.37697 0.61889-0.90946 0.77612
  -3  -3   215056.49  453.27   1-0.57352 0.28728 0.07460-0.31385-0.81578 0.90496
   3   3  -212360.35  374.92   1 0.28576-0.00025-0.36543 0.60398-0.88588 0.79699
  -3  -3   130499.08  741.48   1-0.54139 0.26578 0.19504-0.43079-0.81783 0.86242
   3   3  -127405.96  672.00   1 0.40273-0.12798-0.34817 0.58331-0.84650 0.80210
  -3  -3   014228.89  456.67   1-0.50346 0.23854 0.30678-0.53915-0.80771 0.80771
   3   3   012114.53  402.75   1 0.51722-0.25259-0.32423 0.55574-0.79205 0.79205
  -3  -3  -1 2460.06  176.82   1-0.46217 0.20740 0.40704-0.63595-0.78784 0.74333
  -3  -3  -2  729.05  123.07   1-0.41950 0.17546 0.49285-0.71827-0.76230 0.67327
  -3  -3  -310250.07  376.45   1-0.37912 0.14520 0.56564-0.78760-0.73233 0.59882
  -3  -3  -425592.91  670.47   1-0.34079 0.11754 0.62471-0.84322-0.70256 0.52455
  -3  -3  -5100840.6 2058.21   1-0.30710 0.09469 0.67179-0.88716-0.67407 0.45163
  -3  -3  -717265.94  516.62   1-0.25185 0.06084 0.73932-0.94778-0.62447 0.31306
  -3  -3  -8 8153.76  463.35   1-0.23095 0.05065 0.76222-0.96722-0.60470 0.24880
  -3  -3  -9 3966.53  297.33   1-0.21422 0.04462 0.77958-0.98112-0.58852 0.18813
  -3  -3 -10  215.26   94.98   1-0.20213 0.04301 0.79274-0.99050-0.57506 0.13060
  -3  -3 -11 5371.07  423.84   1-0.19286 0.04443 0.80166-0.99604-0.56581 0.07691
  -3  -3 -1215706.38  662.72   1-0.18670 0.04898 0.80743-0.99845-0.55963 0.02628
  -3  -3 -13 3938.18  334.46   1-0.18336 0.05633 0.81053-0.99817-0.55625-0.02154
  -3  -3 -14 2394.93  219.68   1-0.18254 0.06620 0.81128-0.99556-0.55542-0.06682
  -3  -3 -15  273.34   89.36   1-0.18399 0.07835 0.80995-0.99086-0.55688-0.10979
  -3  -3 -16  -14.67   94.54   1-0.18750 0.09256 0.80669-0.98423-0.56043-0.15070
  -3  -3 -17  296.73  105.14   1-0.19288 0.10864 0.80163-0.97580-0.56584-0.18973
  -3  -3 -18 1343.81  298.62   1-0.19999 0.12645 0.79482-0.96562-0.57293-0.22709
  -3  -3 -19  478.39  187.15   1-0.20869 0.14585 0.78629-0.95372-0.58153-0.26293
  -3  -3 -20   34.27  111.16   1-0.21725 0.16537 0.77650-0.94004-0.59147-0.29828
  -3  -3 -20  -13.49  132.23   1-0.91166 0.85818-0.16402 0.00126-0.37678-0.51333
   3   4 -14   89.97   88.63   1-0.20989 0.61956-0.37605 0.73299-0.90251 0.28081
  -3  -4  13  132.42  116.63   1-0.44108 0.04165-0.84988 0.49775-0.28833 0.86631
   3   4 -13  141.79  142.80   1-0.20080 0.59983-0.37676 0.73025-0.90428 0.32699
  -3  -4  12 1509.79  193.60   1-0.47505 0.08477-0.80664 0.45720-0.35162 0.88530
   3   4 -12 1786.31  220.05   1-0.18632 0.57470-0.37781 0.72787-0.90693 0.37406
  -3  -4  11  566.54  153.69   1-0.50595 0.12627-0.75684 0.41074-0.41375 0.90296
   3   4 -11  632.64  164.26   1-0.16560 0.54333-0.37917 0.72579-0.91038 0.42191
  -3  -4  10 4383.38  276.33   1-0.53618 0.16718-0.69913 0.35713-0.47298 0.91897
   3   4 -10 4863.10  308.06   1-0.13973 0.50738-0.37999 0.72245-0.91437 0.46970
  -3  -4   9 4170.23  323.73   1-0.56090 0.20252-0.63407 0.29532-0.53229 0.93368
   3   4  -9 4523.06  347.78   1-0.10321 0.46028-0.38162 0.72074-0.91853 0.51833
  -3  -4   812373.07  519.45   1-0.58202 0.23508-0.56123 0.22511-0.58844 0.94554
   3   4  -812507.58  506.20   1-0.05695 0.40344-0.38294 0.71872-0.92201 0.56627
  -3  -4   7 1233.58  144.50   1-0.59782 0.26141-0.48095 0.14816-0.64132 0.95378
   3   4  -7 1466.53  154.43   1 0.00032 0.33559-0.38343 0.71586-0.92356 0.61230
  -3  -4   6  366.99  105.99   1-0.60835 0.28283-0.39306 0.06330-0.68949 0.95707
   3   4  -6  490.82  106.20   1 0.07014 0.25529-0.38223 0.71145-0.92139 0.65471
  -3  -4   525793.49  834.15   1-0.61257 0.29759-0.29982-0.02654-0.73133 0.95432
   3   4  -525596.96  782.92   1 0.15181 0.16298-0.37852 0.70442-0.91305 0.69081
  -3  -4   441821.37 1033.64   1-0.61016 0.30585-0.20170-0.12135-0.76617 0.94431
   3   4  -439696.27  932.11   1 0.24365 0.06042-0.36997 0.69265-0.89652 0.71873
  -3  -4   322576.02  654.34   1-0.60144 0.30791-0.10079-0.21904-0.79253 0.92585
   3   4  -319375.16  528.07   1 0.34552-0.05213-0.35766 0.67688-0.86757 0.73423
  -3  -4   2104316.5 2130.26   1-0.58618 0.30323-0.00061-0.31581-0.81017 0.89906
   3   4  -285861.47 1724.87   1 0.45132-0.16864-0.33925 0.65503-0.82535 0.73654
  -3  -4   196009.52 1970.07   1-0.56760 0.29465 0.09964-0.41281-0.81724 0.86184
   3   4  -176965.50 1561.51   1 0.55454-0.28201-0.31508 0.62740-0.77019 0.72583
  -3  -4   0 2194.68  201.66   1-0.54197 0.27964 0.19316-0.50283-0.81789 0.81789
  -3  -4  -174720.67 1579.16   1-0.51349 0.26192 0.27987-0.58621-0.81116 0.76664
  -3  -4  -2 5345.71  323.66   1-0.48268 0.24179 0.35854-0.66138-0.79903 0.71000
  -3  -4  -318743.71  544.66   1-0.45194 0.22117 0.42884-0.72824-0.78219 0.64864
  -3  -4  -446809.73 1078.68   1-0.42133 0.20128 0.48942-0.78533-0.76350 0.58543
  -3  -4  -519235.58  565.95   1-0.39358 0.18336 0.54154-0.83403-0.74285 0.52034
  -3  -4  -6 8644.19  482.26   1-0.36712 0.16759 0.58486-0.87391-0.72329 0.45628
  -3  -4  -749314.01 1192.42   1-0.34350 0.15464 0.62074-0.90633-0.70475 0.39324
  -3  -4  -838562.61  998.87   1-0.32295 0.14477 0.65000-0.93214-0.68788 0.33187
  -3  -4  -915231.00  586.32   1-0.30634 0.13914 0.67279-0.95188-0.67342 0.27303
  -3  -4 -1038291.69 1187.56   1-0.29201 0.13551 0.69128-0.96692-0.66094 0.21606
  -3  -4 -11  275.86  130.89   1-0.28065 0.13485 0.70543-0.97761-0.65084 0.16147
  -3  -4 -12 2985.84  288.11   1-0.27209 0.13699 0.71579-0.98452-0.64311 0.10926
  -3  -4 -13  281.32  233.97   1-0.26615 0.14175 0.72284-0.98812-0.63769 0.05935
  -3  -4 -1415055.68  520.69   1-0.26263 0.14894 0.72695-0.98877-0.63447 0.01164
  -3  -4 -15 4165.31  376.29   1-0.26137 0.15837 0.72842-0.98679-0.63330-0.03401
  -3  -4 -16   77.44  112.85   1-0.26218 0.16989 0.72748-0.98239-0.63405-0.07774
  -3  -4 -17 2370.67  299.99   1-0.26493 0.18333 0.72427-0.97573-0.63657-0.11971
  -3  -4 -18  452.89  177.78   1-0.26946 0.19857 0.71892-0.96692-0.64072-0.16005
  -3  -4 -19 1128.48  284.24   1-0.27568 0.21549 0.71148-0.95603-0.64636-0.19890
  -3  -5  13  -24.64   78.87   1-0.46987 0.07320-0.81365 0.38428-0.34231 0.92030
  -3  -5  12 3089.22  293.34   1-0.49894 0.11125-0.76918 0.34239-0.39926 0.93294
  -3  -5  11  313.14  150.63   1-0.52490 0.14781-0.71973 0.29627-0.45438 0.94359
   3   5 -11  310.17  133.80   1-0.02600 0.40154-0.38336 0.80642-0.92323 0.43409
  -3  -5  10  546.48  147.72   1-0.55029 0.18384-0.66418 0.24482-0.50599 0.95197
   3   5 -10  639.84  130.20   1 0.01041 0.35455-0.38338 0.80310-0.92352 0.47885
  -3  -5   9 4348.68  296.80   1-0.57036 0.21454-0.60351 0.18740-0.55717 0.95856
   3   5  -9 4797.86  266.31   1 0.05669 0.29793-0.38259 0.79912-0.92217 0.52215
  -3  -5   8 1199.11  155.05   1-0.58735 0.24309-0.53767 0.12419-0.60491 0.96201
   3   5  -8 1051.19  151.85   1 0.11236 0.23162-0.38064 0.79383-0.91786 0.56229
  -3  -5   7 1090.55  165.23   1-0.59996 0.26624-0.46672 0.05657-0.64977 0.96224
   3   5  -7 1015.33  137.43   1 0.17870 0.15464-0.37673 0.78659-0.90891 0.59778
  -3  -5   6  131.37  136.24   1-0.60852 0.28576-0.39088-0.01622-0.69058 0.95816
   3   5  -6   -6.87   45.77   1 0.25417 0.06846-0.36890 0.77571-0.89403 0.62735
  -3  -5   5 7726.18  397.15   1-0.61239 0.30018-0.31181-0.09190-0.72646 0.94944
   3   5  -5 6862.80  304.20   1 0.33999-0.02804-0.35844 0.76180-0.86943 0.64720
  -3  -5   4 4931.57  303.15   1-0.61148 0.30999-0.22978-0.17065-0.75715 0.93529
   3   5  -4 4166.55  214.88   1 0.43155-0.13021-0.34303 0.74283-0.83431 0.65669
  -3  -5   328575.34  913.25   1-0.60605 0.31515-0.14660-0.25044-0.78179 0.91539
   3   5  -322287.14  672.38   1 0.52577-0.23476-0.32221 0.71901-0.78723 0.65413
  -3  -5   2  858.47  152.78   1-0.59641 0.31633-0.06298-0.33085-0.80020 0.88908
  -3  -5   1 3721.25  279.37   1-0.58250 0.31299 0.01883-0.40925-0.81261 0.85705
  -3  -5   010896.56  587.97   1-0.56750 0.30783 0.10005-0.48714-0.81726 0.81726
  -3  -5  -113397.65  689.71   1-0.54732 0.29828 0.17523-0.55883-0.81837 0.77377
  -3  -5  -2 2324.08  229.39   1-0.52577 0.28754 0.24488-0.62518-0.81461 0.72557
  -3  -5  -3  457.28  110.29   1-0.50264 0.27509 0.30893-0.68573-0.80741 0.67385
  -3  -5  -4 4568.02  334.05   1-0.47924 0.26237 0.36665-0.73997-0.79742 0.61935
  -3  -5  -537625.69  983.32   1-0.45700 0.25021 0.41818-0.78806-0.78503 0.56244
  -3  -5  -610383.16  569.87   1-0.43518 0.23912 0.46284-0.82923-0.77226 0.50516
  -3  -5  -7 6226.81  367.39   1-0.41492 0.22959 0.50132-0.86422-0.75928 0.44766
  -3  -5  -8   41.05   85.44   1-0.39658 0.22198 0.53399-0.89341-0.74670 0.39056
  -3  -5  -9  476.31  124.96   1-0.38178 0.21664 0.56129-0.91741-0.73429 0.33378
  -3  -5 -1020017.72  767.81   1-0.36790 0.21344 0.58363-0.93630-0.72388 0.27887
  -3  -5 -11  -38.43  104.25   1-0.35633 0.21254 0.60157-0.95079-0.71493 0.22542
  -3  -5 -12 2772.09  288.15   1-0.34703 0.21392 0.61553-0.96130-0.70758 0.17357
  -3  -5 -13 3542.91  320.88   1-0.33996 0.21753 0.62590-0.96822-0.70189 0.12338
  -3  -5 -14  877.37  185.35   1-0.33504 0.22328 0.63300-0.97187-0.69788 0.07486
  -3  -5 -15 1633.52  242.18   1-0.33215 0.23107 0.63711-0.97253-0.69552 0.02800
  -3  -5 -16 2134.54  277.28   1-0.33121 0.24081 0.63845-0.97041-0.69474-0.01727
  -3  -5 -17 1928.51  355.09   1-0.33210 0.25238 0.63719-0.96569-0.69547-0.06104
  -3  -5 -18 1104.04  266.71   1-0.33473 0.26569 0.63344-0.95849-0.69763-0.10338
  -3  -5 -19  241.91  211.98   1-0.33901 0.28065 0.62728-0.94888-0.70112-0.14439
  -3  -5 -19  286.75  184.18   1-0.91841 0.86041-0.15814-0.16254-0.36264-0.48296
  -3  -6  13   42.72   89.31   1-0.48822 0.09251-0.78681 0.27934-0.37756 0.95572
  -3  -6  12  124.81  127.65   1-0.51307 0.12796-0.74359 0.23945-0.42875 0.96243
  -3  -6  11 2638.44  273.00   1-0.53769 0.16316-0.69563 0.19564-0.47641 0.96700
  -3  -6  10  289.88  144.12   1-0.55761 0.19370-0.64382 0.14708-0.52398 0.96997
  -3  -6   9  415.00  168.66   1-0.57471 0.22143-0.58797 0.09449-0.56919 0.97058
  -3  -6   8 1074.21  199.97   1-0.58923 0.24767-0.52865 0.03780-0.61100 0.96810
  -3  -6   7  643.37  155.07   1-0.60011 0.26908-0.46566-0.02186-0.65040 0.96286
  -3  -6   6   80.56  110.54   1-0.60782 0.28782-0.39939-0.08506-0.68631 0.95389
   3   6  -6  156.80   83.85   1 0.46354-0.14353-0.33681 0.82064-0.81956 0.55311
  -3  -6   5 6503.90  484.58   1-0.61188 0.30243-0.33109-0.14998-0.71831 0.94129
   3   6  -5 5249.48  335.02   1 0.54605-0.23657-0.31724 0.79851-0.77535 0.55353
  -3  -6   4  419.48  157.81   1-0.61233 0.31366-0.26093-0.21688-0.74629 0.92443
  -3  -6   3  757.92  168.19   1-0.60946 0.32137-0.19015-0.28427-0.76967 0.90327
  -3  -6   222414.18  829.86   1-0.60331 0.32581-0.11935-0.35167-0.78852 0.87759
  -3  -6   1 3738.12  266.70   1-0.59440 0.32776-0.04948-0.41834-0.80264 0.84708
  -3  -6   0 3797.27  263.00   1-0.58258 0.32653 0.01840-0.48282-0.81256 0.81256
  -3  -6  -110910.95  492.08   1-0.57097 0.32459 0.08562-0.54663-0.81649 0.77190
  -3  -6  -2 8448.62  431.05   1-0.55520 0.31945 0.14745-0.60497-0.81854 0.72935
  -3  -6  -313321.95  544.30   1-0.53825 0.31313 0.20520-0.65922-0.81741 0.68363
  -3  -6  -4   35.63   96.80   1-0.52139 0.30718 0.25766-0.70843-0.81348 0.63541
  -3  -6  -528643.10  941.05   1-0.50379 0.30027 0.30592-0.75320-0.80783 0.58524
  -3  -6  -6  970.28  179.59   1-0.48656 0.29372 0.34923-0.79302-0.80080 0.53369
  -3  -6  -712084.63  565.85   1-0.47012 0.28795 0.38759-0.82789-0.79293 0.48131
  -3  -6  -823398.61  867.58   1-0.45556 0.28349 0.42123-0.85811-0.78423 0.42809
  -3  -6  -9 7446.27  542.23   1-0.44162 0.28028 0.45002-0.88341-0.77617 0.37551
  -3  -6 -10  431.26  159.39   1-0.42923 0.27862 0.47441-0.90431-0.76856 0.32338
  -3  -6 -11 2283.32  239.47   1-0.41852 0.27864 0.49466-0.92107-0.76166 0.27197
  -3  -6 -12  469.88  151.97   1-0.40957 0.28041 0.51105-0.93397-0.75569 0.22148
  -3  -6 -13  594.33  186.78   1-0.40240 0.28397 0.52383-0.94327-0.75077 0.17204
  -3  -6 -14 2556.11  321.26   1-0.39701 0.28930 0.53326-0.94920-0.74700 0.12375
  -3  -6 -15 2566.64  286.95   1-0.39337 0.29639 0.53953-0.95198-0.74442 0.07665
  -3  -6 -16   96.50  158.35   1-0.39303 0.30499 0.54246-0.95186-0.74246 0.03044
  -3  -6 -17 1965.42  364.77   1-0.39278 0.31541 0.54289-0.94884-0.74228-0.01424
  -3  -6 -18 1196.21  318.24   1-0.39248 0.32768 0.54105-0.94303-0.74378-0.05752
  -3  -7  13   27.50   98.11   1-0.49879 0.10567-0.76944 0.18461-0.39895 0.97711
  -3  -7  12 1213.15  312.02   1-0.52098 0.13847-0.72789 0.14640-0.44580 0.97948
  -3  -7  11  110.41  142.89   1-0.54315 0.17116-0.68252 0.10517-0.48902 0.97961
  -3  -7  10   -2.79  116.60   1-0.56081 0.19945-0.63434 0.06024-0.53206 0.97805
  -3  -7   9 8068.44  484.18   1-0.57600 0.22527-0.58317 0.01232-0.57282 0.97421
  -3  -7   8   42.20  181.54   1-0.58902 0.25015-0.52965-0.03856-0.61033 0.96743
  -3  -7   7 1648.61  251.38   1-0.59898 0.27064-0.47338-0.09151-0.64585 0.95831
  -3  -7   617362.61  605.70   1-0.60638 0.28915-0.41487-0.14693-0.67835 0.94593
  -3  -7   5 1284.64  230.45   1-0.61087 0.30418-0.35503-0.20339-0.70766 0.93064
  -3  -7   4  753.15  187.68   1-0.61262 0.31648-0.29409-0.26093-0.73361 0.91200
  -3  -7   3 9008.40  592.50   1-0.61159 0.32632-0.23271-0.31908-0.75617 0.88977
  -3  -7   2   -5.58  127.38   1-0.60815 0.33346-0.17150-0.37690-0.77507 0.86414
  -3  -7   1  481.58  189.89   1-0.60237 0.33827-0.11101-0.43400-0.79045 0.83498
  -3  -7   0 2068.85  281.41   1-0.59480 0.34162-0.05212-0.48970-0.80217 0.80217
  -3  -7  -1 6829.65  454.65   1-0.58516 0.34255 0.00489-0.54331-0.81090 0.76645
  -3  -7  -259880.64 1900.49   1-0.57650 0.34341 0.06136-0.59629-0.81478 0.72560
  -3  -7  -381586.34 1226.13   1-0.56429 0.34183 0.11296-0.64439-0.81780 0.68402
  -3  -7  -4 1936.13  265.80   1-0.55137 0.33954 0.16118-0.68912-0.81854 0.64017
  -3  -7  -5  724.11  169.26   1-0.53809 0.33689 0.20572-0.73017-0.81739 0.59442
  -3  -7  -6 4509.08  395.95   1-0.52559 0.33541 0.24542-0.76667-0.81456 0.54745
  -3  -7  -7  111.20  117.26   1-0.51270 0.33320 0.28204-0.79980-0.81091 0.49928
  -3  -7  -810350.75  667.80   1-0.50042 0.33160 0.31468-0.82894-0.80656 0.45042
  -3  -7  -9 2960.80  308.77   1-0.48897 0.33084 0.34337-0.85415-0.80186 0.40120
  -3  -7 -10 1781.67  259.31   1-0.47857 0.33111 0.36822-0.87550-0.79710 0.35192
  -3  -7 -11 1161.07  196.80   1-0.46934 0.33256 0.38933-0.89312-0.79254 0.30284
  -3  -7 -13  -11.61  106.77   1-0.45575 0.33986 0.42082-0.91772-0.78434 0.20561
  -3  -7 -14 1009.81  214.99   1-0.45063 0.34546 0.43159-0.92500-0.78144 0.15820
  -3  -7 -15   77.14  117.43   1-0.44693 0.35249 0.43922-0.92914-0.77931 0.11155
  -3  -7 -16  201.12  187.79   1-0.44468 0.36096 0.44383-0.93025-0.77799 0.06571
  -3  -7 -17  866.82  248.46   1-0.44385 0.37086 0.44551-0.92845-0.77750 0.02070
  -3  -8  11   43.55  124.35   1-0.54509 0.17565-0.67766 0.02294-0.49359 0.98418
  -3  -8  10  116.68  169.71   1-0.56123 0.20242-0.63307-0.01839-0.53313 0.97912
  -3  -8   9   80.07  127.12   1-0.57519 0.22700-0.58621-0.06199-0.57052 0.97191
  -3  -8   8 1271.67  311.09   1-0.58732 0.25114-0.53780-0.10778-0.60482 0.96192
  -3  -8   7  250.76  151.09   1-0.59681 0.27117-0.48724-0.15502-0.63750 0.94996
  -3  -8   6 7503.26  481.32   1-0.60404 0.28893-0.43524-0.20369-0.66760 0.93542
  -3  -8   5 8966.14  693.16   1-0.60919 0.30526-0.38212-0.25364-0.69488 0.91786
  -3  -8   4 1648.59  273.58   1-0.61197 0.31859-0.32844-0.30394-0.71945 0.89784
  -3  -8   3 5070.16  357.88   1-0.61250 0.33004-0.27460-0.35457-0.74123 0.87484
  -3  -8   2  289.47  193.76   1-0.61112 0.33925-0.22096-0.40481-0.76006 0.84913
  -3  -8   1  999.97  222.65   1-0.60788 0.34659-0.16797-0.45442-0.77605 0.82059
  -3  -8   0 4320.52  348.02   1-0.60294 0.35224-0.11607-0.50293-0.78929 0.78929
  -3  -8  -122569.31  712.40   1-0.59686 0.35712-0.06611-0.54970-0.79961 0.75516
  -3  -8  -2  223.36  203.12   1-0.58924 0.36008-0.01781-0.59460-0.80775 0.71887
  -3  -8  -3 8121.87  427.54   1-0.58064 0.36206 0.02820-0.63721-0.81366 0.68034
  -3  -8  -4 3946.92  323.55   1-0.57377 0.36460 0.07351-0.67887-0.81570 0.63733
  -3  -8  -5 1207.26  214.59   1-0.56402 0.36548 0.11405-0.71591-0.81784 0.59488
  -3  -8  -6  199.78  163.21   1-0.55408 0.36617 0.15150-0.74987-0.81855 0.55100
  -3  -8  -7  902.11  193.96   1-0.54421 0.36693 0.18573-0.78060-0.81812 0.50598
  -3  -8  -810632.81  761.61   1-0.53464 0.36799 0.21664-0.80801-0.81683 0.46009
  -3  -8  -9   26.88  105.55   1-0.52642 0.37094 0.24298-0.83121-0.81476 0.41410
  -3  -8 -10   90.59  109.88   1-0.51806 0.37326 0.26714-0.85188-0.81255 0.36737
  -3  -8 -1112895.31  545.70   1-0.51052 0.37640 0.28800-0.86924-0.81019 0.32050
  -3  -8 -12 1419.90  274.12   1-0.50391 0.38047 0.30561-0.88336-0.80788 0.27366
  -3  -8 -13  141.72  183.59   1-0.49832 0.38557 0.32004-0.89431-0.80575 0.22702
  -3  -8 -14 3755.57  598.76   1-0.49384 0.39176 0.33137-0.90214-0.80393 0.18068
  -3  -8 -15  167.80  138.47   1-0.49049 0.39909 0.33966-0.90695-0.80252 0.13475
  -3  -8 -16   39.68  130.39   1-0.48831 0.40760 0.34499-0.90878-0.80157 0.08929
  -3  -9   9 2850.45  504.37   1-0.57274 0.22711-0.59514-0.13043-0.56370 0.96509
  -3  -9   8  232.85  185.96   1-0.58436 0.25087-0.55120-0.17175-0.59555 0.95265
  -3  -9   7  874.62  240.27   1-0.59367 0.27072-0.50553-0.21409-0.62608 0.93854
  -3  -9   6 1456.45  318.95   1-0.60106 0.28864-0.45885-0.25744-0.65434 0.92217
  -3  -9   5 5389.06  413.82   1-0.60672 0.30555-0.41145-0.30166-0.68013 0.90312
  -3  -9   4 1038.57  233.35   1-0.61039 0.31977-0.36370-0.34603-0.70365 0.88204
  -3  -9   3  226.49  228.17   1-0.61231 0.33223-0.31586-0.39048-0.72477 0.85856
  -3  -9   2 1087.45  229.72   1-0.61244 0.34338-0.26853-0.43462-0.74350 0.83257
  -3  -9   1 1745.46  294.70   1-0.61115 0.35268-0.22165-0.47811-0.75984 0.80437
  -3  -9   0 1454.01  282.46   1-0.60847 0.36058-0.17571-0.52066-0.77387 0.77387
  -3  -9  -1 4833.86  468.50   1-0.60454 0.36724-0.13104-0.56194-0.78571 0.74118
  -3  -9  -2 1573.77  291.70   1-0.59990 0.37361-0.08850-0.60131-0.79515 0.70627
  -3  -9  -3 9447.99  704.88   1-0.59408 0.37837-0.04738-0.63903-0.80300 0.66968
  -3  -9  -4 1431.56  257.89   1-0.58758 0.38245-0.00837-0.67462-0.80911 0.63134
  -3  -9  -5  739.24  225.03   1-0.58062 0.38607 0.02828-0.70789-0.81367 0.59146
  -3  -9  -6  328.91  173.53   1-0.57585 0.39060 0.06428-0.74007-0.81502 0.54746
  -3  -9  -7  174.90  133.55   1-0.56855 0.39393 0.09575-0.76804-0.81705 0.50490
  -3  -9  -8 5261.94  401.60   1-0.56135 0.39736 0.12441-0.79321-0.81816 0.46142
  -3  -9  -9 1313.67  229.80   1-0.55443 0.40107 0.15021-0.81551-0.81855 0.41722
  -3  -9 -10 1723.66  346.58   1-0.54794 0.40521 0.17310-0.83489-0.81840 0.37248
  -3  -9 -11  -34.89  134.83   1-0.54200 0.40990 0.19304-0.85135-0.81790 0.32738
  -3  -9 -12  331.41  180.26   1-0.53673 0.41526 0.21005-0.86486-0.81718 0.28207
  -3  -9 -13  121.17  129.51   1-0.53222 0.42138 0.22413-0.87544-0.81639 0.23668
  -3  -9 -14  121.21  133.51   1-0.52946 0.43005 0.23387-0.88210-0.81545 0.19220
  -3 -10   7  141.21  139.65   1-0.58954 0.26927-0.52714-0.26986-0.61201 0.92448
  -3 -10   6 1134.32  315.36   1-0.59717 0.28745-0.48500-0.30867-0.63886 0.90669
  -3 -10   5    7.98  140.47   1-0.60319 0.30400-0.44238-0.34795-0.66366 0.88685
  -3 -10   4  278.17  131.27   1-0.60780 0.31994-0.39963-0.38745-0.68619 0.86458
  -3 -10   3 1357.31  297.84   1-0.61077 0.33346-0.35687-0.42682-0.70681 0.84060
  -3 -10   2  847.00  264.71   1-0.61234 0.34557-0.31442-0.46588-0.72537 0.81457
  -3 -10   1 9424.20 1313.62   1-0.61248 0.35683-0.27292-0.50422-0.74186 0.78640
  -3 -10   0  146.43  141.91   1-0.61156 0.36649-0.23198-0.54176-0.75641 0.75641
  -3 -10  -1 1906.06  309.63   1-0.60958 0.37510-0.19214-0.57821-0.76907 0.72454
  -3 -10  -2 4976.30  457.72   1-0.60669 0.38279-0.15365-0.61331-0.77994 0.69087
  -3 -10  -3 4694.55  426.33   1-0.60302 0.38970-0.11673-0.64684-0.78913 0.65553
  -3 -10  -4  229.65  233.08   1-0.59910 0.39684-0.08234-0.67806-0.79642 0.61865
  -3 -10  -5 1746.77  367.34   1-0.59437 0.40268-0.04926-0.70773-0.80268 0.58047
  -3 -10  -6 1718.83  372.33   1-0.58933 0.40822-0.01832-0.73527-0.80768 0.54103
  -3 -10  -7   28.02  116.93   1-0.58413 0.41361 0.01035-0.76054-0.81158 0.50049
  -3 -10  -814877.73 2006.66   1-0.57892 0.41898 0.03663-0.78342-0.81455 0.45902
  -3 -10  -9  121.27  162.73   1-0.57632 0.42562 0.06217-0.80488-0.81485 0.41352
  -3 -10 -10  -13.58  135.98   1-0.57150 0.43142 0.08336-0.82258-0.81635 0.37043
  -3 -10 -11 6468.33  963.07   1-0.56704 0.43760 0.10194-0.83766-0.81735 0.32683
  -3 -10 -12   71.93  139.49   1-0.56305 0.44424 0.11785-0.85008-0.81797 0.28286
  -3 -10 -12   91.18  116.60   1-0.91804 0.80189-0.15846-0.57257-0.36341-0.17064
  -3 -11   3 2828.70  543.80   1-0.60797 0.33342-0.39761-0.46343-0.68721 0.82100
  -3 -11   2  662.17  261.97   1-0.61063 0.34662-0.35951-0.49814-0.70560 0.79479
  -3 -11   1   47.56  146.48   1-0.61216 0.35870-0.32197-0.53229-0.72221 0.76680
  -3 -11   0 4116.22  704.45   1-0.61265 0.36974-0.28520-0.56567-0.73709 0.73709
  -3 -11  -1  275.72  186.16   1-0.61211 0.38044-0.25000-0.59773-0.75020 0.70567
  -3 -11  -2   16.42  144.40   1-0.61087 0.38979-0.21549-0.62884-0.76183 0.67276
  -3 -11  -3 1293.31  345.94   1-0.60894 0.39844-0.18236-0.65858-0.77196 0.63835
  -3 -11  -4  338.74  184.60   1-0.60643 0.40652-0.15079-0.68677-0.78070 0.60256
  -3 -11  -5  192.22  157.36   1-0.60348 0.41415-0.12093-0.71323-0.78815 0.56547
  -3 -11  -6 3796.35  678.42   1-0.60058 0.42234-0.09379-0.73721-0.79404 0.52739
  -3 -11  -7  281.40  242.80   1-0.59711 0.42945-0.06783-0.75976-0.79928 0.48819
  -3 -11  -8  -39.22  153.07   1-0.59355 0.43647-0.04397-0.78021-0.80359 0.44805
   4 -10  -2 1898.07  394.94   1-0.52137 0.93299-0.72710-0.03971-0.44664 0.35769
   4 -10  -1   57.02  111.91   1-0.51751 0.91852-0.73492-0.03523-0.43825 0.39378
   4 -10   0  470.16  158.14   1-0.51280 0.90321-0.74410-0.02938-0.42817 0.42817
   4 -10   1   75.69  126.14   1-0.50729 0.88710-0.75441-0.02241-0.41655 0.46102
   4 -10   2 2421.95  441.94   1-0.50100 0.87021-0.76562-0.01454-0.40350 0.49245
   4 -10   3    7.75  130.19   1-0.49397 0.85258-0.77753-0.00596-0.38913 0.52255
   4 -10   4 4950.48  776.45   1-0.48620 0.83421-0.78998 0.00314-0.37354 0.55143
   4 -10   5  962.67  320.62   1-0.47770 0.81511-0.80280 0.01262-0.35679 0.57916
   4 -10   6  197.17  209.98   1-0.46822 0.79518-0.81593 0.02371-0.33913 0.60590
   4 -10   7  512.69  222.05   1-0.45830 0.77464-0.82908 0.03353-0.32028 0.63150
   4  -9  -9  262.31  195.64   1-0.34602 0.83243-0.36271-0.30009-0.86527 0.46583
   4  -9  -8   36.55  151.84   1-0.32558 0.80137-0.36543-0.30086-0.87204 0.51698
   4  -9  -7  308.58  167.33   1-0.30038 0.76390-0.36715-0.30354-0.88032 0.56947
   4  -9  -6 1544.61  307.81   1-0.26835 0.72123-0.37070-0.30343-0.88913 0.62269
   4  -9  -5   85.78  123.60   1-0.22894 0.67117-0.37447-0.30310-0.89852 0.67649
   4  -9  -4   49.41   85.66   1-0.18079 0.61237-0.37819-0.30282-0.90790 0.73027
   4  -9  -3  239.15  142.27   1-0.52606 0.94570-0.71724 0.03111-0.45696 0.32354
   4  -9  -2  435.84  181.58   1-0.52289 0.93192-0.72396 0.03449-0.44995 0.36101
   4  -9  -1 2212.84  266.77   1-0.51875 0.91718-0.73242 0.03962-0.44095 0.39648
   4  -9   0  509.90  185.53   1-0.51373 0.90156-0.74231 0.04616-0.43017 0.43017
   4  -9   1  122.20  154.45   1-0.50788 0.88510-0.75333 0.05385-0.41778 0.46226
   4  -9   2  219.81  177.46   1-0.50122 0.86784-0.76524 0.06242-0.40394 0.49289
   4  -9   3  119.71  183.20   1-0.49379 0.84981-0.77783 0.07168-0.38876 0.52218
   4  -9   4   -8.27  129.48   1-0.48560 0.83102-0.79091 0.08142-0.37235 0.55024
   4  -9   5 1191.12  322.60   1-0.47667 0.81149-0.80430 0.09147-0.35478 0.57715
   4  -9   6 2229.79  434.62   1-0.46677 0.79098-0.81791 0.10291-0.33636 0.60312
   4  -9   7   72.90  134.18   1-0.45640 0.76998-0.83149 0.11317-0.31671 0.62794
   4  -9   8 1760.48  396.36   1-0.44532 0.74828-0.84498 0.12333-0.29612 0.65180
   4  -9   9  560.18  255.18   1-0.43354 0.72588-0.85826 0.13328-0.27463 0.67477
   4  -9  10  598.63  205.64   1-0.42107 0.70278-0.87123 0.14293-0.25228 0.69689
   4  -9  11  984.61  305.63   1-0.40790 0.67899-0.88380 0.15218-0.22912 0.71819
   4  -8 -11   48.67  167.98   1-0.40257 0.90715-0.35415-0.22452-0.84410 0.35589
   4  -8 -10   10.04  108.74   1-0.39213 0.88610-0.35585-0.22631-0.84829 0.40446
   4  -8  -9 1434.96  308.83   1-0.37789 0.86125-0.35808-0.22758-0.85380 0.45435
   4  -8  -8  249.05  158.06   1-0.35925 0.83201-0.36084-0.22831-0.86065 0.50559
   4  -8  -7  173.31  159.86   1-0.33551 0.79766-0.36413-0.22851-0.86881 0.55813
   4  -8  -6  176.30  149.79   1-0.30646 0.75644-0.36642-0.23051-0.87852 0.61208
   4  -8  -5  120.11  161.80   1-0.26960 0.70893-0.37057-0.22980-0.88881 0.66677
   4  -8  -418791.34  614.27   1-0.22434 0.65302-0.37486-0.22895-0.89952 0.72189
   4  -8  -3 1179.93  215.72   1-0.52398 0.94102-0.72167 0.11289-0.45235 0.31893
   4  -8  -3 1102.33  219.45   1-0.16912 0.58715-0.37895-0.22830-0.90982 0.77661
   4  -8  -2  119.22  160.33   1-0.52068 0.92713-0.72851 0.11639-0.44514 0.35619
   4  -8  -2   20.48  103.49   1-0.10277 0.50881-0.38164-0.22978-0.91857 0.82964
   4  -8  -1   61.22   96.09   1-0.51634 0.91218-0.73723 0.12178-0.43574 0.39126
   4  -8  -1   41.71   69.04   1-0.02174 0.41721-0.38339-0.23137-0.92332 0.87886
   4  -8   0  432.64  122.31   1-0.51103 0.89627-0.74746 0.12867-0.42442 0.42442
   4  -8   0  535.85  146.43   1 0.07565 0.30953-0.38206-0.23640-0.92103 0.92103
   4  -8   1   62.27  113.57   1-0.50483 0.87946-0.75886 0.13673-0.41141 0.45589
   4  -8   2 9746.87  716.04   1-0.49778 0.86182-0.77116 0.14569-0.39688 0.48583
   4  -8   3  671.86  178.16   1-0.48993 0.84336-0.78410 0.15529-0.38098 0.51441
   4  -8   4  250.92  132.14   1-0.48129 0.82413-0.79748 0.16533-0.36383 0.54172
   4  -8   5 4185.30  319.34   1-0.47191 0.80414-0.81111 0.17563-0.34553 0.56789
   4  -8   6   62.02  163.86   1-0.46156 0.78301-0.82486 0.18709-0.32643 0.59320
   4  -8   7  207.17  125.04   1-0.45071 0.76153-0.83855 0.19745-0.30608 0.61730
   4  -8   8 7804.12  483.75   1-0.43915 0.73935-0.85207 0.20765-0.28480 0.64049
   4  -8   9 1005.32  299.51   1-0.42690 0.71648-0.86531 0.21756-0.26266 0.66281
   4  -8  10  985.72  314.34   1-0.41395 0.69291-0.87816 0.22709-0.23971 0.68432
   4  -8  11 1193.81  317.99   1-0.40033 0.66866-0.89054 0.23615-0.21599 0.70506
   4  -8  12   59.18  134.05   1-0.38546 0.64325-0.90262 0.24516-0.19154 0.72534
   4  -8  13 1078.69  294.38   1-0.37046 0.61764-0.91382 0.25307-0.16635 0.74462
   4  -7 -12 1311.93  301.19   1-0.43021 0.94235-0.34939-0.14864-0.83236 0.29978
   4  -7 -11  200.71  189.13   1-0.42414 0.92568-0.35047-0.15106-0.83502 0.34681
   4  -7 -10  150.52  142.61   1-0.41485 0.90578-0.35209-0.15294-0.83900 0.39518
   4  -7  -9 3933.26  394.39   1-0.40184 0.88216-0.35427-0.15424-0.84439 0.44495
   4  -7  -8  296.93  235.18   1-0.38455 0.85426-0.35705-0.15496-0.85125 0.49619
   4  -7  -7  921.48  222.07   1-0.36227 0.82137-0.36041-0.15510-0.85957 0.54889
   4  -7  -6 5539.17  475.24   1-0.33411 0.78261-0.36432-0.15468-0.86927 0.60297
   4  -7  -5   -7.23   89.26   1-0.29985 0.73629-0.36721-0.15596-0.88047 0.65844
   4  -7  -4   97.75  132.37   1-0.51796 0.94302-0.73401 0.20592-0.43923 0.26134
   4  -7  -4  145.01  141.22   1-0.25652 0.68231-0.37190-0.15471-0.89212 0.71449
   4  -7  -324326.15  604.92   1-0.51628 0.93073-0.73735 0.20592-0.43561 0.30219
   4  -7  -324276.97  632.50   1-0.20347 0.61861-0.37655-0.15350-0.90377 0.77055
   4  -7  -2 7803.78  401.38   1-0.51313 0.91699-0.74346 0.20868-0.42889 0.33995
   4  -7  -2 7937.04  379.07   1-0.13965 0.54301-0.37999-0.15415-0.91438 0.82544
   4  -7  -1 1110.27  180.34   1-0.50875 0.90201-0.75171 0.21360-0.41963 0.37515
   4  -7  -1 1383.16  201.53   1-0.06157 0.45436-0.38284-0.15465-0.92175 0.87729
   4  -7   0 4263.29  310.52   1-0.50328 0.88593-0.76162 0.22017-0.40820 0.40820
   4  -7   0 3555.87  260.29   1 0.03205 0.35040-0.38307-0.15808-0.92315 0.92315
   4  -7   1  473.33  150.25   1-0.49682 0.86887-0.77278 0.22800-0.39492 0.43939
   4  -7   1  335.86   93.35   1 0.14133 0.23049-0.37915-0.16533-0.91447 0.95892
   4  -7   2 2444.10  269.71   1-0.48944 0.85089-0.78487 0.23675-0.38001 0.46896
   4  -7   2 2276.08  186.20   1 0.26892 0.09293-0.36733-0.18006-0.89036 0.97925
   4  -7   3  258.16  131.63   1-0.48120 0.83205-0.79761 0.24615-0.36365 0.49708
   4  -7   3  216.11   82.97   1 0.40865-0.05786-0.34715-0.20375-0.84408 0.97731
   4  -7   4 2135.71  265.26   1-0.47215 0.81240-0.81076 0.25597-0.34601 0.52390
   4  -7   5 8424.77  444.46   1-0.46215 0.79147-0.82408 0.26686-0.32756 0.54986
   4  -7   6 9205.19  456.94   1-0.45157 0.77026-0.83750 0.27696-0.30768 0.57444
   4  -7   7 3647.18  406.25   1-0.44025 0.74832-0.85082 0.28695-0.28682 0.59804
   4  -7   8  311.54  151.89   1-0.42824 0.72568-0.86391 0.29672-0.26506 0.62075
   4  -7   9 1703.29  305.58   1-0.41553 0.70235-0.87666 0.30614-0.24248 0.64263
   4  -7  10 3844.17  415.36   1-0.40214 0.67834-0.88896 0.31512-0.21913 0.66373
   4  -7  11 2296.36  357.65   1-0.38753 0.65316-0.90098 0.32406-0.19505 0.68436
   4  -7  12   63.13  131.25   1-0.37279 0.62782-0.91216 0.33194-0.17023 0.70402
   4  -7  13  547.49  219.23   1-0.35741 0.60183-0.92265 0.33913-0.14476 0.72304
   4  -7  14   66.96  142.94   1-0.34137 0.57518-0.93240 0.34557-0.11868 0.74144
   4  -7  15 1017.73  296.66   1-0.32469 0.54789-0.94133 0.35120-0.09201 0.75925
   4  -6 -14  154.18  212.64   1-0.44638 0.97670-0.34643-0.06748-0.82506 0.20370
   4  -6 -13  255.55  206.01   1-0.44642 0.96613-0.34642-0.07098-0.82504 0.24807
   4  -6 -12  109.24  176.83   1-0.44395 0.95306-0.34688-0.07402-0.82618 0.29359
   4  -6 -11  -37.09  114.05   1-0.43867 0.93716-0.34786-0.07653-0.82858 0.34038
   4  -6 -10  -85.03  120.07   1-0.43018 0.91807-0.34940-0.07849-0.83237 0.38855
   4  -6  -9  766.96  210.40   1-0.41804 0.89531-0.35154-0.07984-0.83765 0.43821
   4  -6  -8   54.62  124.77   1-0.40164 0.86831-0.35430-0.08057-0.84447 0.48941
   4  -6  -7   55.37   96.98   1-0.38029 0.83636-0.35771-0.08066-0.85288 0.54220
   4  -6  -6  134.69  134.97   1-0.35312 0.79858-0.36172-0.08014-0.86281 0.59652
   4  -6  -5 1821.73  230.25   1-0.31907 0.75392-0.36625-0.07910-0.87409 0.65218
   4  -6  -4 6306.75  402.74   1-0.49929 0.92176-0.76858 0.31783-0.39998 0.22208
   4  -6  -4 6624.37  467.36   1-0.27776 0.70065-0.36970-0.07971-0.88665 0.70903
   4  -6  -3 2923.27  252.86   1-0.49919 0.91106-0.76875 0.31467-0.39977 0.26635
   4  -6  -3 3406.39  294.34   1-0.22585 0.63809-0.37473-0.07812-0.89920 0.76598
   4  -6  -2 4440.62  330.40   1-0.49700 0.89826-0.77248 0.31506-0.39528 0.30634
   4  -6  -2 4512.53  348.93   1-0.16261 0.56421-0.37935-0.07694-0.91084 0.82203
   4  -6  -1  824.66  156.96   1-0.49315 0.88382-0.77887 0.31812-0.38748 0.34300
   4  -6  -1 1141.20  173.71   1-0.08668 0.47679-0.38219-0.07804-0.92000 0.87554
   4  -6   027941.01  953.95   1-0.48793 0.86800-0.78726 0.32316-0.37700 0.37700
   4  -6   026699.37  893.25   1 0.00456 0.37497-0.38341-0.08016-0.92356 0.92356
   4  -6   1  195.01  109.79   1-0.48153 0.85100-0.79711 0.32968-0.36430 0.40878
   4  -6   1  188.77   85.86   1 0.11158 0.25750-0.38068-0.08650-0.91794 0.96239
   4  -6   2 7356.95  404.28   1-0.47408 0.83294-0.80803 0.33726-0.34974 0.43869
   4  -6   2 6125.04  314.99   1 0.23526 0.12376-0.37078-0.09940-0.89842 0.98731
   4  -6   3  210.48  110.83   1-0.46559 0.81340-0.81950 0.34616-0.33410 0.46748
   4  -6   3  357.60   94.50   1 0.36954-0.02157-0.35358-0.12007-0.85930 0.99253
   4  -6   4  637.72  169.81   1-0.45629 0.79348-0.83163 0.35496-0.31651 0.49435
   4  -6   4 1000.41  136.68   1 0.51084-0.17356-0.32571-0.15190-0.79558 0.97303
   4  -6   531425.29 1669.17   1-0.44617 0.77273-0.84398 0.36399-0.29768 0.51998
   4  -6   6 5314.79  456.51   1-0.43527 0.75121-0.85637 0.37306-0.27775 0.54452
   4  -6   7  182.06  137.50   1-0.42363 0.72894-0.86865 0.38201-0.25684 0.56806
   4  -6   8  588.34  194.49   1-0.41128 0.70597-0.88068 0.39071-0.23502 0.59071
   4  -6   9  -12.40  125.86   1-0.39824 0.68230-0.89235 0.39905-0.21239 0.61254
   4  -6  10  134.35  103.17   1-0.38397 0.65746-0.90378 0.40739-0.18902 0.63385
   4  -6  11 3188.92  352.40   1-0.36958 0.63246-0.91445 0.41475-0.16487 0.65418
   4  -6  12  182.77  192.20   1-0.35455 0.60682-0.92448 0.42148-0.14008 0.67387
   4  -6  13 2443.51  338.04   1-0.33889 0.58055-0.93381 0.42751-0.11467 0.69295
   4  -6  14 3476.55  574.39   1-0.32260 0.55365-0.94236 0.43277-0.08869 0.71145
   4  -6  15  -71.45  140.99   1-0.30531 0.52537-0.95020 0.43715-0.06246 0.72997
  -4   6 -16  220.32   94.38   1 0.29286-0.50032 0.95547-0.43738 0.03597-0.74724
   4  -6  16  335.40  254.66   1-0.28775 0.49722-0.95704 0.44068-0.03536 0.74737
   4  -5 -15 1359.86  356.05   1-0.44949 0.98737-0.34584 0.01256-0.82361 0.15788
   4  -5 -14   81.52  154.92   1-0.45228 0.97956-0.34531 0.00853-0.82231 0.20095
   4  -5 -13  628.43  204.92   1-0.45281 0.96948-0.34521 0.00493-0.82206 0.24509
   4  -5 -12 3639.53  604.61   1-0.45084 0.95690-0.34558 0.00182-0.82298 0.29040
   4  -5 -11  837.11  225.26   1-0.44604 0.94150-0.34649-0.00076-0.82521 0.33701
   4  -5 -10  327.78  174.88   1-0.43804 0.92289-0.34797-0.00277-0.82887 0.38504
   4  -5  -9 2165.26  344.26   1-0.42637 0.90060-0.35008-0.00416-0.83405 0.43461
   4  -5  -8  648.99  205.79   1-0.41042 0.87405-0.35284-0.00489-0.84086 0.48580
   4  -5  -7  492.68  175.25   1-0.38949 0.84251-0.35627-0.00496-0.84933 0.53865
   4  -5  -6  530.65  175.33   1-0.36268 0.80509-0.36035-0.00437-0.85942 0.59312
   4  -5  -5 4674.11  308.11   1-0.32893 0.76073-0.36500-0.00322-0.87096 0.64905
   4  -5  -4  433.33   96.63   1-0.45933 0.87875-0.82775 0.45491-0.32223 0.14439
   4  -5  -4  792.19  148.79   1-0.28796 0.70796-0.36858-0.00364-0.88386 0.70624
   4  -5  -3 1886.06  154.26   1-0.46453 0.87332-0.82092 0.44476-0.33208 0.19870
   4  -5  -3 2168.79  211.48   1-0.23622 0.64557-0.37382-0.00184-0.89691 0.76369
   4  -5  -2 1539.84  153.23   1-0.46571 0.86388-0.81934 0.43985-0.33434 0.24542
   4  -5  -2 1414.45  175.07   1-0.17313 0.57183-0.37870-0.00040-0.90918 0.82036
   4  -5  -1  139.20   95.41   1-0.46409 0.85163-0.82151 0.43870-0.33125 0.28679
   4  -5  -1   31.78   77.80   1-0.09737 0.48480-0.38183-0.00113-0.91908 0.87461
   4  -5   0  525.63  104.45   1-0.46037 0.83729-0.82641 0.44027-0.32418 0.32418
   4  -5   0  692.75  141.47   1-0.00662 0.38348-0.38343-0.00287-0.92354 0.92354
   4  -5   1 9486.82  419.87   1-0.45497 0.82127-0.83328 0.44382-0.31404 0.35850
   4  -5   1 8690.15  391.94   1 0.09915 0.26720-0.38121-0.00865-0.91915 0.96359
   4  -5   2 3893.08  253.28   1-0.44820 0.80387-0.84158 0.44879-0.30142 0.39034
   4  -5   2 3521.39  209.99   1 0.22039 0.13580-0.37215-0.02082-0.90162 0.99051
   4  -5   3  631.11  154.11   1-0.44023 0.78528-0.85085 0.45473-0.28678 0.42016
   4  -5   3  558.72  115.51   1 0.35052-0.00501-0.35693-0.03949-0.86586 0.99920
   4  -5   4 4039.84  323.48   1-0.43122 0.76565-0.86075 0.46131-0.27044 0.44828
   4  -5   4 3264.37  205.29   1 0.48570-0.15129-0.33218-0.06761-0.80854 0.98617
   4  -5   5 8422.06  459.92   1-0.42127 0.74508-0.87102 0.46826-0.25264 0.47495
   4  -5   6 3546.59  321.49   1-0.41046 0.72364-0.88144 0.47535-0.23360 0.50036
   4  -5   7 4565.33  344.86   1-0.39886 0.70141-0.89181 0.48240-0.21346 0.52468
   4  -5   8 4106.52  398.31   1-0.38599 0.67794-0.90220 0.48964-0.19244 0.54830
   4  -5   932343.91 1730.07   1-0.37288 0.65422-0.91209 0.49623-0.17038 0.57072
   4  -5  10  427.15  195.70   1-0.35910 0.62983-0.92156 0.50240-0.14754 0.59237
   4  -5  11 6770.18  438.81   1-0.34465 0.60478-0.93050 0.50804-0.12398 0.61329
   4  -5  12   26.74  136.51   1-0.32957 0.57909-0.93884 0.51307-0.09977 0.63356
   4  -5  13 1596.55  274.08   1-0.31387 0.55277-0.94650 0.51743-0.07494 0.65321
   4  -5  14   97.78  140.69   1-0.29717 0.52518-0.95352 0.52099-0.04984 0.67285
  -4   5 -15 2508.70  712.99   1 0.28514-0.50095 0.95817-0.52072 0.02447-0.69129
   4  -5  15 2989.52  522.13   1-0.28022 0.49763-0.95963 0.52379-0.02386 0.69137
  -4   5 -16    3.11   55.02   1 0.26735-0.47250 0.96359-0.52272-0.00170-0.70957
   4  -5  16  -34.29  124.94   1-0.26266 0.46946-0.96488 0.52571 0.00263 0.70938
  -4   5 -17  141.78  131.65   1 0.24891-0.44342 0.96810-0.52381-0.02840-0.72731
   4  -5  17  131.18  153.04   1-0.24449 0.44069-0.96919 0.52670 0.02962 0.72688
   4  -4 -15   92.01  157.23   1-0.44843 0.98327-0.34604 0.08989-0.82411 0.15837
   4  -4 -14  507.09  214.51   1-0.45152 0.97575-0.34545 0.08581-0.82266 0.20131
   4  -4 -13  484.29  214.36   1-0.45232 0.96595-0.34530 0.08217-0.82229 0.24532
   4  -4 -12  587.30  238.68   1-0.45058 0.95360-0.34563 0.07900-0.82311 0.29052
   4  -4 -11  125.16  147.37   1-0.44597 0.93838-0.34650 0.07638-0.82525 0.33704
   4  -4 -10 1135.85  254.67   1-0.43810 0.91990-0.34796 0.07435-0.82884 0.38501
   4  -4  -914671.47  595.82   1-0.42648 0.89768-0.35006 0.07295-0.83400 0.43456
   4  -4  -8 1257.66  262.82   1-0.41051 0.87109-0.35283 0.07222-0.84082 0.48576
   4  -4  -712584.62  787.14   1-0.38943 0.83941-0.35628 0.07218-0.84935 0.53867
   4  -4  -6  -24.18   90.84   1-0.36235 0.80172-0.36040 0.07280-0.85954 0.59324
   4  -4  -5  175.89  116.28   1-0.32815 0.75692-0.36510 0.07401-0.87121 0.64930
   4  -4  -4 1433.21  100.01   1-0.36816 0.78466-0.91544 0.61972-0.16251-0.01541
   4  -4  -4 1914.09  203.31   1-0.28665 0.70376-0.36873 0.07369-0.88423 0.70660
   4  -4  -313769.39  440.49   1-0.39266 0.79855-0.89681 0.59779-0.20380 0.07035
   4  -4  -315234.33  582.38   1-0.23412 0.64058-0.37401 0.07554-0.89738 0.76416
   4  -4  -2 1937.70  136.03   1-0.40482 0.80023-0.88659 0.58433-0.22376 0.13484
   4  -4  -2 2850.17  208.89   1-0.17011 0.56592-0.37889 0.07698-0.90967 0.82085
   4  -4  -122447.53  588.86   1-0.41062 0.79540-0.88130 0.57571-0.23386 0.18940
   4  -4  -122369.69  657.98   1-0.09336 0.47811-0.38197 0.07626-0.91944 0.87497
   4  -4   0 1031.80  152.09   1-0.41196 0.78613-0.88004 0.57113-0.23622 0.23622
   4  -4   0 1255.64  152.70   1-0.00197 0.37615-0.38343 0.07438-0.92356 0.92356
   4  -4   1 8163.70  444.93   1-0.41018 0.77372-0.88170 0.56946-0.23311 0.27757
   4  -4   1 8407.81  467.38   1 0.10364 0.25998-0.38102 0.06846-0.91873 0.96318
   4  -4   219102.18  566.98   1-0.40607 0.75899-0.88546 0.56990-0.22594 0.31486
   4  -4   218501.74  545.61   1 0.22328 0.13009-0.37189 0.05613-0.90101 0.98991
   4  -4   3 2150.09  183.90   1-0.40012 0.74241-0.89073 0.57184-0.21563 0.34901
   4  -4   3 1919.82  156.47   1 0.35037-0.00769-0.35696 0.03773-0.86591 0.99925
   4  -4   4 2036.79  184.24   1-0.39233 0.72396-0.89708 0.57496-0.20324 0.38117
   4  -4   4 1752.68  153.41   1 0.48057-0.14898-0.33328 0.01073-0.81115 0.98878
   4  -4   517589.83  670.27   1-0.38355 0.70457-0.90411 0.57868-0.18830 0.41072
   4  -4   6 7394.43  418.58   1-0.37367 0.68408-0.91152 0.58280-0.17170 0.43859
   4  -4   720951.49  758.11   1-0.36282 0.66262-0.91909 0.58707-0.15367 0.46505
   4  -4   8 9291.92  478.86   1-0.35109 0.64028-0.92664 0.59131-0.13443 0.49029
   4  -4   923003.81  899.35   1-0.33854 0.61713-0.93400 0.59537-0.11412 0.51447
   4  -4  10  -88.08  138.98   1-0.32524 0.59322-0.94105 0.59912-0.09288 0.53771
   4  -4  1121687.78 1221.43   1-0.31123 0.56860-0.94769 0.60245-0.07081 0.56012
   4  -4  12  264.27  114.90   1-0.29619 0.54275-0.95390 0.60522-0.04832 0.58233
  -4   4 -13  374.89  119.85   1 0.28555-0.52037 0.95803-0.60465 0.02508-0.60299
   4  -4  13  312.80  159.44   1-0.28082 0.51677-0.95943 0.60744-0.02477 0.60328
  -4   4 -14  927.80  243.03   1 0.26937-0.49354 0.96303-0.60623 0.00125-0.62361
   4  -4  14  881.39  224.63   1-0.26481 0.49016-0.96429 0.60897-0.00059 0.62360
  -4   4 -15  507.71  144.93   1 0.25253-0.46605 0.96730-0.60708-0.02319-0.64361
   4  -4  15  168.28  110.46   1-0.24818 0.46293-0.96841 0.60976 0.02417 0.64333
  -4   4 -16 1136.55  260.61   1 0.23504-0.43790 0.97078-0.60714-0.04823-0.66303
   4  -4  16 1180.65  282.31   1-0.23093 0.43507-0.97170 0.60973 0.04949 0.66251
  -4   4 -17 1245.11  310.29   1 0.21690-0.40911 0.97339-0.60633-0.07382-0.68190
   4  -4  17  914.33  260.18   1-0.21307 0.40660-0.97412 0.60883 0.07534 0.68116
  -4   4 -18  219.85  173.00   1 0.19717-0.38004 0.97534-0.60397-0.09911-0.70055
   4  -4  18  295.47  181.14   1-0.19412 0.37733-0.97573 0.60745 0.10129 0.69900
   4  -3 -16 2083.16  432.42   1-0.43517 0.97758-0.34850 0.17299-0.83016 0.12004
   4  -3 -15  980.30  325.55   1-0.44048 0.97228-0.34752 0.16852-0.82776 0.16202
   4  -3 -14  118.53  218.33   1-0.44366 0.96485-0.34693 0.16443-0.82631 0.20496
   4  -3 -13 2823.83  358.79   1-0.44448 0.95507-0.34678 0.16079-0.82593 0.24896
   4  -3 -12 1436.32  313.60   1-0.44268 0.94266-0.34712 0.15763-0.82676 0.29417
   4  -3 -11    6.18  129.41   1-0.43792 0.92729-0.34799 0.15501-0.82892 0.34071
   4  -3 -10  156.77  133.68   1-0.42980 0.90856-0.34947 0.15299-0.83255 0.38872
   4  -3  -9 6459.67  508.74   1-0.41778 0.88594-0.35158 0.15161-0.83775 0.43831
   4  -3  -8   78.09  117.50   1-0.40125 0.85880-0.35437 0.15090-0.84463 0.48957
   4  -3  -7 3109.27  261.29   1-0.37943 0.82636-0.35784 0.15088-0.85321 0.54253
   4  -3  -6 6032.63  372.33   1-0.35137 0.78769-0.36196 0.15151-0.86343 0.59713
   4  -3  -5 7623.25  394.46   1-0.31594 0.74166-0.36664 0.15270-0.87506 0.65315
   4  -3  -4   68.98  122.70   1-0.27300 0.68721-0.37021 0.15238-0.88792 0.71029
  -4   3   3  469.12  105.36   1 0.23177-0.63476 0.97133-0.74992-0.05287 0.18624
   4  -3  -3  566.32   65.45   1-0.23512 0.63808-0.97099 0.74936 0.04339-0.17689
   4  -3  -3  654.31  152.67   1-0.21870 0.62226-0.37534 0.15406-0.90071 0.76749
  -4   3   2 3995.31  456.80   1 0.28376-0.67610 0.95863-0.73380 0.02243 0.06647
   4  -3  -2 4568.43  246.91   1-0.28566 0.67802-0.95779 0.73283-0.03215-0.05684
   4  -3  -2 4898.55  328.71   1-0.15275 0.54566-0.37993 0.15521-0.91231 0.82350
   4  -3  -1 2983.46  194.59   1-0.31311 0.69487-0.94677 0.71850-0.07465 0.03015
   4  -3  -1 3759.69  274.39   1-0.07398 0.45607-0.38255 0.15410-0.92096 0.87649
   4  -3   026102.50  958.80   1-0.32829 0.69960-0.93950 0.70781-0.09773 0.09773
   4  -3   028297.23  747.34   1 0.01890 0.35260-0.38331 0.15152-0.92342 0.92342
   4  -3   1107308.5 2125.99   1-0.33613 0.69682-0.93534 0.70034-0.11024 0.15472
   4  -3   1103161.0 2099.12   1 0.12501 0.23589-0.38003 0.14477-0.91648 0.96093
   4  -3   2 4718.88  278.36   1-0.33896 0.68905-0.93376 0.69547-0.11479 0.20376
   4  -3   3 9276.85  485.13   1-0.33822 0.67770-0.93418 0.69258-0.11360 0.24705
   4  -3   3 8830.19  468.87   1 0.36739-0.02787-0.35391 0.11200-0.86009 0.99331
   4  -3   4 3684.81  274.57   1-0.33480 0.66367-0.93606 0.69117-0.10811 0.28604
   4  -3   4 2809.50  219.32   1 0.49211-0.16334-0.33079 0.08549-0.80522 0.98285
   4  -3   5  393.24  104.43   1-0.32927 0.64753-0.93900 0.69080-0.09928 0.32169
   4  -3   615502.89  542.32   1-0.32203 0.62968-0.94264 0.69115-0.08779 0.35468
   4  -3   7 5067.43  352.77   1-0.31336 0.61040-0.94673 0.69193-0.07414 0.38552
   4  -3   8 5567.65  357.43   1-0.30318 0.58950-0.95109 0.69290-0.05915 0.41516
   4  -3   9  319.32  139.72   1-0.29218 0.56790-0.95543 0.69392-0.04216 0.44267
  -4   3 -1066391.20 2406.71   1 0.28448-0.54897 0.95839-0.69250 0.02350-0.46804
   4  -3  1075161.92 1149.94   1-0.28023 0.54533-0.95963 0.69480-0.02387 0.46888
  -4   3 -11 1859.82  531.78   1 0.27159-0.52543 0.96240-0.69308 0.00450-0.49350
   4  -3  11 2110.66  260.13   1-0.26739 0.52189-0.96357 0.69542-0.00446 0.49397
  -4   3 -12 2750.86  560.54   1 0.25785-0.50103 0.96605-0.69332-0.01551-0.51794
   4  -3  12 3059.91  337.91   1-0.25374 0.49764-0.96713 0.69566 0.01593 0.51807
   4  -3  13  -70.21  121.94   1-0.23933 0.47263-0.97022 0.69542 0.03721 0.54129
  -4   3 -14 2356.81  545.83   1 0.22800-0.44988 0.97191-0.69234-0.05820-0.56415
   4  -3  14 2499.16  325.66   1-0.22420 0.44689-0.97273 0.69461 0.05927 0.56373
  -4   3 -15 2354.45  568.67   1 0.21197-0.42319 0.97393-0.69093-0.08071-0.58610
   4  -3  15 2200.08  261.70   1-0.20782 0.42016-0.97473 0.69360 0.08178 0.58512
  -4   3 -16  859.01  267.08   1 0.19435-0.39600 0.97550-0.68827-0.10299-0.60782
   4  -3  16 1259.70  213.49   1-0.19133 0.39307-0.97586 0.69144 0.10524 0.60613
  -4   3 -17  328.10  130.09   1 0.17693-0.36794 0.97602-0.68531-0.12678-0.62846
   4  -3  17  239.26  123.18   1-0.17417 0.36531-0.97618 0.68847 0.12930 0.62653
  -4   3 -18   59.60  107.24   1 0.15881-0.33918 0.97566-0.68147-0.15117-0.64849
   4  -3  18  121.43  196.70   1-0.15636 0.33691-0.97562 0.68463 0.15394 0.64635
  -4   3 -19 1259.53  341.32   1 0.14001-0.30973 0.97435-0.67668-0.17614-0.66795
   4  -2 -16   72.85  211.61   1-0.41979 0.95915-0.35123 0.25286-0.83690 0.12678
   4  -2 -15  367.79  197.74   1-0.42504 0.95380-0.35031 0.24845-0.83463 0.16889
   4  -2 -14  210.12  163.75   1-0.42806 0.94621-0.34978 0.24442-0.83331 0.21195
   4  -2 -13  927.52  268.89   1-0.42862 0.93617-0.34968 0.24082-0.83306 0.25609
   4  -2 -12 1456.77  305.16   1-0.42644 0.92337-0.35007 0.23772-0.83402 0.30143
   4  -2 -11  785.15  203.73   1-0.42115 0.90747-0.35100 0.23515-0.83631 0.34811
   4  -2 -10   32.88  112.06   1-0.41232 0.88803-0.35252 0.23318-0.84007 0.39624
   4  -2  -9   75.82  112.62   1-0.39940 0.86451-0.35467 0.23184-0.84538 0.44594
   4  -2  -8 5398.63  344.34   1-0.38172 0.83622-0.35749 0.23116-0.85234 0.49728
   4  -2  -7  947.40  208.59   1-0.35847 0.80236-0.36096 0.23114-0.86093 0.55025
   4  -2  -6 1283.80  197.64   1-0.32867 0.76195-0.36503 0.23172-0.87104 0.60475
   4  -2  -5 1452.25  202.79   1-0.29241 0.71436-0.36808 0.23088-0.88261 0.66058
   4  -2  -4  358.47  106.65   1-0.24584 0.65715-0.37293 0.23229-0.89469 0.71706
  -4   2   3 7635.22  350.10   1-0.07035-0.33038 0.89747-0.75315-0.43542 0.56885
   4  -2  -3 9287.08  527.93   1-0.18882 0.58948-0.37764 0.23356-0.90649 0.77327
  -4   2   2   88.28   39.62   1 0.06902-0.45932 0.96067-0.81301-0.26894 0.35780
   4  -2  -2  -25.74   96.89   1-0.12031 0.51029-0.38092 0.23308-0.91674 0.82780
  -4   2   1 2953.86  259.05   1 0.14438-0.52449 0.97474-0.82387-0.17036 0.21479
   4  -2  -1 3217.82  240.04   1-0.03844 0.41784-0.38323 0.23205-0.92284 0.87838
  -4   2   0 7454.29  351.77   1 0.19064-0.56011 0.97569-0.82133-0.10808 0.10808
   4  -2   0 8187.59  364.63   1-0.19242 0.56104-0.97581 0.82126 0.10369-0.10369
   4  -2   0 7718.35  396.33   1 0.05642 0.31239-0.38260 0.22798-0.92218 0.92218
  -4   2  -118367.28  528.55   1 0.22081-0.57890 0.97291-0.81504-0.06833 0.02387
   4  -2   119438.52  496.98   1-0.22048 0.57837-0.97324 0.81552 0.06466-0.02016
   4  -2   118063.72  521.88   1 0.16316 0.19501-0.37780 0.21985-0.91139 0.95584
  -4   2  -216873.47  468.75   1 0.23881-0.58624 0.97011-0.80882-0.04286-0.04604
   4  -2   217960.68  540.77   1-0.23778 0.58507-0.97051 0.80946 0.03948 0.04951
   4  -2   216405.37  479.47   1 0.27966 0.06806-0.36613 0.20479-0.88754 0.97643
  -4   2  -337691.39  889.96   1 0.24936-0.58614 0.96801-0.80329-0.02776-0.10560
   4  -2   340506.87  922.82   1-0.24774 0.58442-0.96850 0.80413 0.02483 0.10867
   4  -2   334939.43  829.32   1 0.39985-0.06315-0.34866 0.18400-0.84767 0.98089
  -4   2  -4 3193.04  442.73   1 0.25460-0.58072 0.96683-0.79869-0.02021-0.15760
   4  -2   4 3208.66  219.72   1-0.25249 0.57857-0.96743 0.79974 0.01779 0.16021
   4  -2   4 3013.23  209.29   1 0.51775-0.19116-0.32411 0.15516-0.79175 0.96921
   4  -2   5 3465.95  228.34   1-0.25338 0.56885-0.96722 0.79620 0.01646 0.20603
  -4   2  -6  -89.21   83.88   1 0.25409-0.55890 0.96695-0.79197-0.02095-0.24577
   4  -2   6 -169.16   92.42   1-0.25130 0.55617-0.96770 0.79337 0.01955 0.24745
  -4   2  -7 9263.36 1069.79   1 0.24986-0.54401 0.96790-0.78950-0.02705-0.28412
   4  -2   7 9289.80  519.03   1-0.24686 0.54112-0.96869 0.79103 0.02612 0.28537
  -4   2  -833568.07  906.65   1 0.24362-0.52713 0.96920-0.78737-0.03599-0.31963
   4  -2   838290.07 1026.70   1-0.24049 0.52415-0.96999 0.78901 0.03551 0.32049
  -4   2  -913113.89  545.73   1 0.23571-0.50856 0.97067-0.78542-0.04728-0.35280
   4  -2   914147.00  957.28   1-0.23250 0.50555-0.97144 0.78714 0.04720 0.35329
  -4   2 -10 2882.33  788.10   1 0.22635-0.48854 0.97216-0.78349-0.06054-0.38400
   4  -2  10 2823.36  257.24   1-0.22312 0.48557-0.97288 0.78525 0.06084 0.38416
  -4   2 -11 7136.46  866.24   1 0.21572-0.46726 0.97353-0.78144-0.07547-0.41352
   4  -2  11 7567.10  459.22   1-0.21253 0.46438-0.97418 0.78322 0.07610 0.41340
  -4   2 -1226167.89 1538.24   1 0.20313-0.44486 0.97492-0.77879-0.09088-0.44223
   4  -2  1228905.54 1553.62   1-0.20022 0.44168-0.97536 0.78136 0.09264 0.44089
  -4   2 -13 3947.65 1004.39   1 0.19038-0.42146 0.97570-0.77609-0.10845-0.46909
   4  -2  13 4353.06  376.34   1-0.18756 0.41843-0.97601 0.77872 0.11055 0.46744
  -4   2 -14  271.61   79.19   1 0.17667-0.39711 0.97602-0.77293-0.12712-0.49484
   4  -2  14  400.88  143.84   1-0.17400 0.39427-0.97618 0.77561 0.12953 0.49291
  -4   2 -15 2176.31  491.41   1 0.16209-0.37189 0.97579-0.76922-0.14678-0.51960
   4  -2  15 2189.88  302.01   1-0.15961 0.36928-0.97579 0.77193 0.14948 0.51743
  -4   2 -16  333.08   99.98   1 0.14667-0.34582 0.97492-0.76487-0.16734-0.54348
  -4   2 -17 2089.49  423.69   1 0.13045-0.31896 0.97333-0.75979-0.18870-0.56654
  -4   2 -18 1160.02  360.08   1 0.11346-0.29132 0.97091-0.75390-0.21081-0.58886
  -4   2 -19  -36.51  125.59   1 0.09681-0.26339 0.96744-0.74705-0.23382-0.61035
   4  -1 -16  319.02  189.29   1-0.39633 0.93265-0.35517 0.33394-0.84662 0.13650
   4  -1 -15   22.24  136.44   1-0.40128 0.92700-0.35436 0.32964-0.84462 0.17888
   4  -1 -14  436.53  193.31   1-0.40387 0.91898-0.35394 0.32572-0.84357 0.22221
   4  -1 -13 3013.88  324.77   1-0.40384 0.90834-0.35394 0.32223-0.84358 0.26661
   4  -1 -12  481.34  213.31   1-0.40088 0.89477-0.35443 0.31922-0.84478 0.31219
   4  -1 -11   38.36  122.16   1-0.39462 0.87790-0.35545 0.31675-0.84730 0.35909
   4  -1 -10  -76.42  125.20   1-0.38457 0.85724-0.35704 0.31485-0.85124 0.40742
   4  -1  -9 7384.76  526.76   1-0.37016 0.83222-0.35924 0.31355-0.85669 0.45724
   4  -1  -848044.26 1589.57   1-0.35067 0.80213-0.36206 0.31288-0.86367 0.50861
   4  -1  -7  237.73  135.02   1-0.32525 0.76610-0.36547 0.31279-0.87214 0.56146
   4  -1  -6 5869.56  354.65   1-0.29419 0.72390-0.36787 0.31131-0.88210 0.61567
   4  -1  -5  301.00  106.01   1-0.25368 0.67274-0.37218 0.31218-0.89281 0.67078
   4  -1  -4 3326.51  276.50   1-0.20376 0.61218-0.37653 0.31309-0.90371 0.72608
  -4   1   325302.31  519.95   1-0.37546-0.02297 0.57159-0.50450-0.72959 0.86310
  -4   1   1 9638.31  277.58   1-0.07517-0.30191 0.89443-0.82056-0.44083 0.48530
   4  -1  -1 9748.91  398.15   1 0.01401 0.36271-0.38336 0.30943-0.92349 0.87902
  -4   1   0 2593.15  322.60   1 0.00624-0.37299 0.93835-0.86105-0.34562 0.34562
   4  -1   0 2495.25  201.94   1 0.11080 0.25527-0.38071 0.30340-0.91802 0.91802
  -4   1  -153486.09 1156.14   1 0.06207-0.41817 0.95868-0.87792-0.27761 0.23317
   4  -1   153546.59 1185.39   1 0.21800 0.13759-0.37236 0.29169-0.90211 0.94656
  -4   1  -2 2045.58  202.38   1 0.10055-0.44600 0.96820-0.88398-0.22904 0.14018
   4  -1   2 2085.05  195.72   1 0.33126 0.01364-0.35966 0.27553-0.87230 0.96119
  -4   1  -3   49.07   38.92   1 0.12621-0.46124 0.97279-0.88517-0.19425 0.06097
   4  -1   3   24.21   83.64   1 0.44615-0.11227-0.34026 0.25285-0.82774 0.96096
  -4   1  -4 5241.06  575.39   1 0.14382-0.46820 0.97469-0.88359-0.17111-0.00658
   4  -1   4 4020.72  271.31   1 0.55588-0.23197-0.31473 0.22295-0.76936 0.94682
  -4   1  -5 2961.91  283.08   1 0.15497-0.46871 0.97547-0.88089-0.15630-0.06582
  -4   1  -6 5236.54  441.69   1 0.16121-0.46430 0.97576-0.87769-0.14797-0.11858
   4  -1   6 6791.75  369.97   1-0.16000 0.46238-0.97581 0.87881 0.14894 0.11782
  -4   1  -730879.73  860.49   1 0.16359-0.45604 0.97584-0.87430-0.14478-0.16620
   4  -1   734122.46  876.13   1-0.16209 0.45388-0.97590 0.87562 0.14605 0.16517
  -4   1  -815760.22  516.84   1 0.16288-0.44468 0.97582-0.87079-0.14573-0.20968
   4  -1   817195.35  547.06   1-0.16117 0.44236-0.97586 0.87229 0.14732 0.20836
  -4   1  -9 1686.73  525.94   1 0.15964-0.43080 0.97570-0.86719-0.15007-0.24976
   4  -1   9 1455.36  180.24   1-0.15779 0.42838-0.97570 0.86884 0.15197 0.24817
  -4   1 -1027321.99  938.57   1 0.15429-0.41480 0.97543-0.86344-0.15722-0.28704
  -4   1 -11   95.48   70.88   1 0.14713-0.39700 0.97496-0.85949-0.16673-0.32196
  -4   1 -1254014.03 1913.05   1 0.13841-0.37764 0.97420-0.85524-0.17824-0.35486
  -4   1 -13 1286.67  334.50   1 0.12832-0.35690 0.97306-0.85063-0.19149-0.38605
  -4   1 -14 -108.92  110.16   1 0.11699-0.33493 0.97148-0.84556-0.20623-0.41573
  -4   1 -15 4987.67  840.39   1 0.10549-0.31244 0.96916-0.83991-0.22270-0.44375
  -4   1 -16 1344.68  300.40   1 0.09202-0.28831 0.96641-0.83371-0.23993-0.47095
  -4   1 -17  121.29  109.41   1 0.07757-0.26321 0.96296-0.82679-0.25821-0.49711
  -4   1 -18  112.84   87.34   1 0.06221-0.23720 0.95872-0.81909-0.27743-0.52231
  -4   1 -19  881.91  221.86   1 0.04597-0.21030 0.95360-0.81051-0.29752-0.54666
  -4   1 -20  -14.57  127.53   1 0.02887-0.18255 0.94751-0.80095-0.31840-0.57021
   4   0 -16  128.81  136.11   1-0.36376 0.89704-0.36019 0.41610-0.85903 0.14891
   4   0 -15   38.90  133.65   1-0.36813 0.89080-0.35955 0.41196-0.85743 0.19170
   4   0 -13  262.60  192.28   1-0.36894 0.87040-0.35943 0.40485-0.85714 0.28016
   4   0 -12  128.76  148.49   1-0.36477 0.85562-0.36004 0.40197-0.85866 0.32607
   4   0 -11  332.05  153.26   1-0.35702 0.83726-0.36116 0.39960-0.86144 0.37324
   4   0 -10  226.00  152.91   1-0.34517 0.81480-0.36282 0.39777-0.86556 0.42174
   4   0  -9  133.58  108.89   1-0.32860 0.78763-0.36504 0.39648-0.87106 0.47162
   4   0  -8  660.63  157.86   1-0.30793 0.75603-0.36625 0.39376-0.87808 0.52283
   4   0  -7 2433.16  224.95   1-0.27953 0.71699-0.36951 0.39358-0.88618 0.57533
   4   0  -6 1947.46  222.42   1-0.24372 0.67053-0.37313 0.39376-0.89519 0.62875
   4   0  -539759.51 1034.86   1-0.19936 0.61552-0.37687 0.39406-0.90455 0.68252
  -4   0   446609.42  950.75   1-0.59275 0.18607-0.03893 0.02530-0.80444 0.98220
  -4   0   346724.66  933.63   1-0.50106 0.10513 0.31303-0.32350-0.80681 0.94036
  -4   0   1 8572.42  209.95   1-0.27309-0.10174 0.71459-0.71805-0.64402 0.68851
   4   0  -1 9503.75  365.12   1 0.08366 0.29033-0.38180 0.38513-0.92044 0.87600
  -4   0   0 8604.49  226.30   1-0.18214-0.18214 0.81165-0.81165-0.55501 0.55501
   4   0   0 9656.75  361.29   1 0.18167 0.18167-0.37651 0.37651-0.90842 0.90842
  -4   0  -1 7131.07  333.28   1-0.11094-0.24264 0.87007-0.86670-0.48027 0.43582
  -4   0  -2 6199.63  313.37   1-0.05605-0.28672 0.90611-0.89925-0.41929 0.33033
   4   0   2 5275.20  308.32   1 0.39621-0.05441-0.34928 0.34250-0.84912 0.93793
  -4   0  -323204.08  653.94   1-0.01490-0.31722 0.92820-0.91791-0.37176 0.23833
  -4   0  -432770.99  835.66   1 0.01516-0.33705 0.94211-0.92826-0.33494 0.15722
  -4   0  -5  511.27  128.54   1 0.03737-0.34861 0.95063-0.93332-0.30804 0.08589
  -4   0  -618928.73  586.25   1 0.05301-0.35360 0.95590-0.93512-0.28883 0.02225
  -4   0  -729888.76  823.93   1 0.06340-0.35334 0.95907-0.93483-0.27594-0.03506
  -4   0  -816927.69  559.04   1 0.06955-0.34883 0.96082-0.93312-0.26827-0.08716
  -4   0  -9  938.98  268.82   1 0.07221-0.34084 0.96155-0.93038-0.26494-0.13493
  -4   0 -10 9338.48  652.80   1 0.07197-0.32995 0.96149-0.92685-0.26524-0.17906
  -4   0 -11   -9.04  107.54   1 0.06929-0.31661 0.96075-0.92265-0.26860-0.22013
  -4   0 -12 5377.62  596.01   1 0.06450-0.30117 0.95939-0.91783-0.27458-0.25858
  -4   0 -13  417.59   95.41   1 0.05789-0.28390 0.95742-0.91240-0.28280-0.29479
  -4   0 -14  549.87  127.27   1 0.04967-0.26503 0.95483-0.90634-0.29296-0.32907
  -4   0 -15 4758.02  901.40   1 0.04002-0.24472 0.95156-0.89962-0.30481-0.36164
  -4   0 -16  866.22  183.07   1 0.02906-0.22311 0.94758-0.89217-0.31816-0.39272
  -4   0 -17   10.48  119.69   1 0.01691-0.20031 0.94283-0.88395-0.33283-0.42248
  -4   0 -18 1191.86  289.45   1 0.00365-0.17639 0.93722-0.87489-0.34869-0.45105
  -4   0 -19  129.39   88.92   1-0.01062-0.15098 0.93026-0.86509-0.36673-0.47835
  -4   0 -20  237.88  181.19   1-0.02595-0.12500 0.92268-0.85408-0.38467-0.50489
   4   1 -16 1894.42  392.32   1-0.32075 0.85099-0.36604 0.49909-0.87357 0.16345
   4   1 -15   -8.21  123.54   1-0.32421 0.84384-0.36560 0.49515-0.87247 0.20674
   4   1 -14   64.37  125.05   1-0.32487 0.83390-0.36552 0.49158-0.87226 0.25091
   4   1 -13 3110.18  331.93   1-0.32244 0.82086-0.36583 0.48839-0.87303 0.29606
   4   1 -12  407.07  170.57   1-0.31791 0.80571-0.36502 0.48348-0.87503 0.34216
   4   1 -11 1810.02  260.49   1-0.30810 0.78526-0.36623 0.48125-0.87803 0.38956
   4   1 -10 3212.16  270.54   1-0.29382 0.76032-0.36791 0.47950-0.88221 0.43814
   4   1  -9 2964.70  340.42   1-0.27439 0.73024-0.37007 0.47821-0.88755 0.48789
   4   1  -812136.85  569.74   1-0.24902 0.69423-0.37263 0.47734-0.89394 0.53868
   4   1  -722145.13  811.06   1-0.21680 0.65136-0.37549 0.47676-0.90110 0.59026
  -4  -1   6 1469.08   97.93   1-0.59633 0.17125-0.49018 0.39284-0.63569 0.90351
   4   1  -6 1609.72  187.36   1-0.17674 0.60065-0.37846 0.47629-0.90858 0.64214
  -4  -1   5 3510.88  202.18   1-0.61264 0.19827-0.27831 0.18400-0.73973 0.96271
   4   1  -5 4000.05  301.96   1-0.12850 0.54217-0.38055 0.47451-0.91578 0.69345
  -4  -1   4 8939.26  429.17   1-0.59409 0.19028-0.04746-0.04356-0.80299 0.98076
   4   1  -4 9969.34  548.36   1-0.06950 0.47259-0.38266 0.47329-0.92126 0.74340
  -4  -1   114135.41  390.90   1-0.40155 0.02921 0.52534-0.60630-0.75017 0.79469
   4   1  -114711.48  472.10   1 0.17002 0.20123-0.37734 0.45798-0.91033 0.86588
  -4  -1   0 1649.57  139.86   1-0.32707-0.03460 0.64427-0.72171-0.69132 0.69132
   4   1   0 2016.96  184.93   1 0.26727 0.09337-0.36751 0.44473-0.89078 0.89078
  -4  -1  -115286.67  426.70   1-0.26010-0.09093 0.72989-0.80398-0.63213 0.58764
   4   1   114738.47  464.67   1 0.36928-0.01956-0.35362 0.42748-0.85940 0.90381
  -4  -1  -212897.43  393.80   1-0.20269-0.13783 0.79220-0.86261-0.57560 0.48671
   4   1   210570.10  375.08   1 0.47179-0.13280-0.33512 0.40559-0.81553 0.90435
  -4  -1  -420425.03  560.05   1-0.11696-0.20216 0.86565-0.92932-0.48678 0.30900
  -4  -1  -511373.62  389.97   1-0.08642-0.22205 0.88713-0.94728-0.45334 0.23095
  -4  -1  -6 1968.57  194.27   1-0.06296-0.23486 0.90200-0.95872-0.42710 0.16023
  -4  -1  -735104.55  876.59   1-0.04531-0.24185 0.91229-0.96558-0.40702 0.09568
  -4  -1  -8  202.18  143.65   1-0.03256-0.24394 0.91923-0.96910-0.39235 0.03652
  -4  -1  -912872.73  408.79   1-0.02395-0.24189 0.92370-0.97013-0.38235-0.01795
  -4  -1 -10 6566.30  356.96   1-0.01886-0.23632 0.92626-0.96926-0.37640-0.06837
  -4  -1 -11 1232.18  178.15   1-0.01677-0.22776 0.92729-0.96686-0.37395-0.11530
  -4  -1 -1217784.62  717.01   1-0.01727-0.21660 0.92704-0.96319-0.37453-0.15920
  -4  -1 -1336171.32 1882.65   1-0.02002-0.20320 0.92568-0.95839-0.37775-0.20045
  -4  -1 -14  761.40  164.33   1-0.02475-0.18781 0.92329-0.95257-0.38328-0.23941
  -4  -1 -15  835.94  181.31   1-0.03124-0.17066 0.91993-0.94578-0.39082-0.27634
  -4  -1 -16  183.82  108.68   1-0.03932-0.15192 0.91560-0.93802-0.40015-0.31149
  -4  -1 -17  560.26  182.48   1-0.04883-0.13175 0.91029-0.92928-0.41106-0.34506
  -4  -1 -18   97.62  125.19   1-0.05967-0.11026 0.90397-0.91953-0.42339-0.37721
  -4  -1 -19   88.58  126.80   1-0.07174-0.08753 0.89660-0.90873-0.43698-0.40810
  -4  -1 -20   36.60  118.26   1-0.08496-0.06365 0.88809-0.89679-0.45172-0.43783
   4   2 -16  207.11  133.14   1-0.26703 0.79452-0.37084 0.58025-0.88947 0.17897
   4   2 -15    0.81  112.31   1-0.26921 0.78606-0.37061 0.57659-0.88891 0.22281
   4   2 -14  175.58  159.31   1-0.26830 0.77450-0.37071 0.57324-0.88914 0.26745
   4   2 -13  704.76  200.53   1-0.26395 0.75950-0.37115 0.57025-0.89026 0.31297
   4   2 -12  302.06  123.83   1-0.25576 0.74067-0.37197 0.56764-0.89230 0.35942
   4   2 -11   -9.60   88.58   1-0.24324 0.71750-0.37318 0.56540-0.89530 0.40683
  -4  -2   9  170.28   69.31   1-0.51106 0.05628-0.74740 0.56267-0.42449 0.82476
   4   2  -9  181.26  111.09   1-0.20272 0.65568-0.37661 0.56196-0.90391 0.50425
  -4  -2   8  360.53   89.79   1-0.55599 0.11217-0.64848 0.46772-0.51993 0.87672
   4   2  -8  347.44  128.18   1-0.17324 0.61555-0.37869 0.56059-0.90916 0.55391
  -4  -2   7 3873.49  191.09   1-0.58917 0.15625-0.52892 0.35087-0.61082 0.92329
   4   2  -7 4435.76  288.57   1-0.13753 0.56967-0.38010 0.55802-0.91465 0.60338
  -4  -2   6   80.49   95.74   1-0.60861 0.18646-0.38977 0.21472-0.69112 0.95870
   4   2  -6  159.55  154.72   1-0.09240 0.51397-0.38200 0.55657-0.91952 0.65272
  -4  -2   5  830.01  101.46   1-0.61171 0.20013-0.23627 0.06457-0.75496 0.97763
   4   2  -5  995.46  159.92   1-0.03826 0.44925-0.38323 0.55447-0.92285 0.70052
  -4  -2   411112.36  540.98   1-0.59798 0.19704-0.07408-0.09435-0.79807 0.97584
   4   2  -412159.18  630.64   1 0.02568 0.37477-0.38316 0.55110-0.92332 0.74553
  -4  -2   3    6.44   64.42   1-0.57032 0.17980 0.08835-0.25367-0.81665 0.95043
   4   2  -3   22.32  105.33   1 0.09904 0.29077-0.38122 0.54583-0.91916 0.78582
  -4  -2   2 2116.14  172.14   1-0.52775 0.14784 0.23901-0.40090-0.81507 0.90411
  -4  -2   1 1290.26  133.59   1-0.47691 0.10767 0.37207-0.53048-0.79631 0.84082
   4   2  -1 1492.65  168.74   1 0.27072 0.09778-0.36714 0.52502-0.88989 0.84545
  -4  -2   0    8.76   63.45   1-0.42288 0.06381 0.48651-0.64144-0.76450 0.76450
   4   2   0  -59.02   68.77   1 0.36522-0.00757-0.35425 0.50874-0.86088 0.86088
  -4  -2  -1 7568.26  377.06   1-0.36971 0.02106 0.58077-0.73219-0.72526 0.68076
   4   2   2  -65.03   85.81   1 0.55292-0.21588-0.31549 0.46252-0.77119 0.85992
  -4  -2  -316652.43  488.35   1-0.27474-0.05249 0.71261-0.85734-0.64551 0.51205
  -4  -2  -453647.31 1194.61   1-0.23546-0.08107 0.75739-0.89866-0.60902 0.43107
  -4  -2  -513480.31  440.10   1-0.20256-0.10349 0.79233-0.92978-0.57547 0.35325
  -4  -2  -6  545.19  114.56   1-0.17515-0.12020 0.81799-0.95208-0.54790 0.28123
  -4  -2  -7 6186.15  390.28   1-0.15298-0.13167 0.83722-0.96793-0.52502 0.21390
  -4  -2  -8 8636.06  491.52   1-0.13552-0.13844 0.85143-0.97877-0.50664 0.15108
  -4  -2  -9  971.91  165.99   1-0.12224-0.14102 0.86170-0.98567-0.49246 0.09245
  -4  -2 -10  295.84  136.97   1-0.11264-0.13992 0.86883-0.98944-0.48210 0.03765
  -4  -2 -11 1913.76  221.00   1-0.10596-0.13623 0.87369-0.99057-0.47479-0.01446
  -4  -2 -12  498.73  138.67   1-0.10243-0.12911 0.87619-0.98963-0.47094-0.06279
  -4  -2 -13 1404.13  208.77   1-0.10144-0.11945 0.87689-0.98690-0.46985-0.10836
  -4  -2 -14 4210.09  317.01   1-0.10269-0.10753 0.87601-0.98259-0.47122-0.15146
  -4  -2 -15  437.77  136.99   1-0.10597-0.09360 0.87369-0.97684-0.47479-0.19237
  -4  -2 -16 2666.00  304.04   1-0.11147-0.07690 0.86968-0.97007-0.48084-0.23028
  -4  -2 -17  523.72  153.37   1-0.11822-0.05946 0.86471-0.96173-0.48814-0.26743
  -4  -2 -18 2963.47  513.52   1-0.12648-0.04050 0.85847-0.95212-0.49701-0.30300
  -4  -2 -19   10.80  116.04   1-0.13613-0.02015 0.85094-0.94122-0.50730-0.33716
  -4  -2 -20   -2.57  118.57   1-0.14710 0.00151 0.84210-0.92901-0.51887-0.37004
   4   3 -15   98.17  146.62   1-0.19828 0.71223-0.37695 0.66012-0.90476 0.23866
   4   3 -14  -64.23  113.29   1-0.19528 0.69858-0.37717 0.65690-0.90531 0.28362
   4   3 -13 7996.99 1118.16   1-0.18845 0.68110-0.37766 0.65396-0.90656 0.32927
   4   3 -12   71.69   99.99   1-0.17734 0.65935-0.37842 0.65128-0.90848 0.37560
   4   3 -11 3524.40  353.39   1-0.16144 0.63280-0.37942 0.64884-0.91102 0.42255
  -4  -3  10 2822.50  213.11   1-0.51598 0.05318-0.73794 0.47252-0.43497 0.87970
   4   3 -10 3623.44  295.62   1-0.14170 0.60289-0.37989 0.64509-0.91411 0.46944
  -4  -3   9   75.65   65.78   1-0.55222 0.10032-0.65899 0.39760-0.51066 0.91205
   4   3  -9  -59.08   82.90   1-0.11416 0.56478-0.38119 0.64304-0.91742 0.51721
  -4  -3   8 3087.39  246.40   1-0.58039 0.13962-0.56795 0.30921-0.58358 0.94068
   4   3  -8 3683.69  324.71   1-0.07978 0.51982-0.38239 0.64091-0.92054 0.56481
  -4  -3   7 5356.53  254.21   1-0.60007 0.16984-0.46589 0.21048-0.65026 0.96273
   4   3  -7 5700.03  326.72   1-0.03782 0.46729-0.38324 0.63841-0.92287 0.61160
  -4  -3   6 2319.40  179.82   1-0.61099 0.19160-0.35262 0.10022-0.70876 0.97634
   4   3  -6 2436.92  227.40   1 0.01238 0.40650-0.38337 0.63520-0.92351 0.65670
  -4  -3   529053.28  876.85   1-0.61156 0.20279-0.23203-0.01704-0.75639 0.97907
   4   3  -532203.08 1005.27   1 0.07158 0.33678-0.38219 0.63077-0.92130 0.69907
  -4  -3   4 4269.34  242.54   1-0.60202 0.20384-0.10800-0.13768-0.79113 0.96927
   4   3  -4 4737.23  282.55   1 0.13918 0.25854-0.37927 0.62452-0.91475 0.73696
  -4  -3   3 2205.64  164.76   1-0.58281 0.19532 0.01720-0.25963-0.81241 0.94574
   4   3  -3 2164.94  167.01   1 0.21415 0.17291-0.37270 0.61471-0.90289 0.76955
  -4  -3   221495.46  609.95   1-0.55725 0.18002 0.13990-0.37915-0.81846 0.90765
   4   3  -219805.08  580.50   1 0.29657 0.07980-0.36414 0.60269-0.88286 0.79396
  -4  -3   1 6233.35  364.17   1-0.52317 0.15661 0.25249-0.48835-0.81396 0.85847
   4   3  -1 5678.63  340.51   1 0.38336-0.01779-0.35139 0.58653-0.85413 0.80972
  -4  -3   0 2983.37  207.14   1-0.48472 0.12883 0.35366-0.58603-0.79997 0.79997
   4   3   0 2378.20  195.16   1 0.47194-0.11711-0.33509 0.56684-0.81546 0.81546
  -4  -3  -140720.82  952.01   1-0.44488 0.09908 0.44341-0.67232-0.77811 0.73359
   4   3   134211.82  832.85   1 0.55711-0.21217-0.31441 0.54226-0.76861 0.81297
  -4  -3  -224560.80  650.25   1-0.40480 0.06973 0.51958-0.74501-0.75243 0.66339
  -4  -3  -3 8331.38  316.92   1-0.36751 0.04257 0.58425-0.80622-0.72358 0.59008
  -4  -3  -4163084.8 1276.44   1-0.33231 0.01805 0.63689-0.85540-0.69565 0.51764
  -4  -3  -5  280.06   83.05   1-0.30134-0.00209 0.67933-0.89469-0.66910 0.44666
  -4  -3  -6 2047.69  176.61   1-0.27373-0.01900 0.71382-0.92574-0.64460 0.37767
  -4  -3  -721882.30  659.58   1-0.25012-0.03191 0.74126-0.94972-0.62286 0.31144
  -4  -3  -8 5955.27  393.64   1-0.23038-0.04094 0.76282-0.96782-0.60417 0.24826
  -4  -3  -913269.98  550.15   1-0.21432-0.04631 0.77948-0.98103-0.58861 0.18822
  -4  -3 -1014060.92  610.28   1-0.20239-0.04779 0.79249-0.99024-0.57531 0.13086
  -4  -3 -1157091.27 1794.37   1-0.19297-0.04652 0.80155-0.99594-0.56592 0.07702
  -4  -3 -12 8396.06  611.51   1-0.18637-0.04242 0.80774-0.99876-0.55929 0.02594
  -4  -3 -13 6346.54  471.44   1-0.18235-0.03574 0.81145-0.99910-0.55523-0.02256
  -4  -3 -14  513.55  133.35   1-0.18067-0.02673 0.81299-0.99727-0.55352-0.06871
  -4  -3 -15 2055.78  265.80   1-0.18111-0.01559 0.81259-0.99350-0.55397-0.11271
  -4  -3 -16 1379.96  226.27   1-0.18349-0.00251 0.81041-0.98795-0.55638-0.15474
  -4  -3 -17 1252.71  254.14   1-0.18765 0.01234 0.80655-0.98072-0.56058-0.19499
  -4  -3 -18  317.26  163.66   1-0.19345 0.02883 0.80109-0.97190-0.56640-0.23361
  -4  -3 -19  404.81  217.27   1-0.20077 0.04685 0.79407-0.96150-0.57370-0.27076
  -4  -3 -20   91.42  118.34   1-0.20951 0.06629 0.78547-0.94953-0.58234-0.30656
   4   4 -13 2112.35  381.21   1-0.09661 0.58685-0.38186 0.73434-0.91915 0.34108
   4   4 -12 1959.67  256.66   1-0.08188 0.56155-0.38233 0.73147-0.92038 0.38678
  -4  -4  11  327.14  144.06   1-0.51207 0.04126-0.74548 0.39938-0.42664 0.91585
   4   4 -11  289.89  154.16   1-0.06188 0.53097-0.38284 0.72864-0.92173 0.43260
  -4  -4  10 2114.98  229.14   1-0.54415 0.08417-0.68003 0.33803-0.49137 0.93736
   4   4 -10 2459.28  286.20   1-0.03604 0.49455-0.38326 0.72572-0.92293 0.47826
  -4  -4   9 1172.90  181.68   1-0.56936 0.12001-0.60694 0.26820-0.55446 0.95585
   4   4  -9 1390.25  200.80   1-0.00373 0.45167-0.38343 0.72255-0.92355 0.52335
  -4  -4   8  140.38   88.01   1-0.58982 0.15174-0.52572 0.18960-0.61296 0.97006
   4   4  -8  211.98  117.09   1 0.03609 0.40146-0.38301 0.71890-0.92303 0.56745
  -4  -4   7  461.23  112.11   1-0.60376 0.17622-0.43764 0.10485-0.66628 0.97874
   4   4  -7  500.35  139.87   1 0.08293 0.34398-0.38182 0.71437-0.92050 0.60937
  -4  -4   6 6693.62  358.48   1-0.61144 0.19481-0.34281 0.01305-0.71317 0.98075
   4   4  -6 6109.00  335.70   1 0.13762 0.27865-0.37936 0.70858-0.91495 0.64827
  -4  -4   5 1543.75  170.16   1-0.61195 0.20599-0.24379-0.08266-0.75238 0.97505
   4   4  -5 1700.44  182.07   1 0.19922 0.20641-0.37395 0.70009-0.90579 0.68356
  -4  -4   4  973.42  159.98   1-0.60571 0.21034-0.14290-0.18016-0.78274 0.96088
   4   4  -4  959.23  130.01   1 0.26862 0.12631-0.36737 0.69005-0.89043 0.71265
  -4  -4   3 1020.16  157.52   1-0.59307 0.20845-0.04095-0.27887-0.80410 0.93742
   4   4  -3  948.36  135.30   1 0.34394 0.04031-0.35788 0.67711-0.86811 0.73477
  -4  -4   212505.76  644.58   1-0.57440 0.20036 0.05786-0.37429-0.81652 0.90540
   4   4  -211936.82  350.83   1 0.42286-0.04936-0.34462 0.66040-0.83810 0.74928
  -4  -4   1  351.24  104.75   1-0.55311 0.18916 0.15499-0.46816-0.81856 0.86315
   4   4  -1  293.09   84.25   1 0.50344-0.14069-0.32827 0.64065-0.79923 0.75482
  -4  -4   0 5479.27  346.10   1-0.52619 0.17297 0.24363-0.55346-0.81471 0.81471
   4   4   0 4829.21  308.43   1 0.58092-0.22808-0.30805 0.61672-0.75340 0.75340
  -4  -4  -1  618.43  123.90   1-0.49661 0.15407 0.32439-0.63073-0.80507 0.76055
  -4  -4  -210941.24  583.29   1-0.46656 0.13402 0.39743-0.70032-0.79016 0.70113
  -4  -4  -3 2000.85  192.47   1-0.43609 0.11428 0.46104-0.76043-0.77282 0.63927
  -4  -4  -420196.52  622.47   1-0.40674 0.09565 0.51614-0.81205-0.75375 0.57569
  -4  -4  -5 6296.94  388.03   1-0.38039 0.07917 0.56357-0.85606-0.73326 0.51076
  -4  -4  -6 3828.31  300.74   1-0.35535 0.06480 0.60305-0.89210-0.71417 0.44716
  -4  -4  -710749.56  469.86   1-0.33300 0.05313 0.63591-0.92150-0.69621 0.38470
  -4  -4  -8 2207.44  236.99   1-0.31348 0.04429 0.66291-0.94505-0.67989 0.32388
  -4  -4  -9 9334.52  463.93   1-0.29754 0.03930 0.68424-0.96333-0.66579 0.26540
  -4  -4 -1026674.78  961.45   1-0.28371 0.03618 0.70167-0.97731-0.65357 0.20869
  -4  -4 -11 1647.79  239.88   1-0.27258 0.03575 0.71520-0.98739-0.64356 0.15419
  -4  -4 -12 9116.75  636.31   1-0.26402 0.03788 0.72534-0.99407-0.63574 0.10188
  -4  -4 -13 4376.81  321.58   1-0.25785 0.04242 0.73248-0.99776-0.63006 0.05171
  -4  -4 -14   97.69  122.30   1-0.25393 0.04920 0.73696-0.99878-0.62642 0.00358
  -4  -4 -15 5279.07  448.55   1-0.25210 0.05807 0.73903-0.99740-0.62471-0.04260
  -4  -4 -16 1297.27  225.26   1-0.25221 0.06888 0.73891-0.99382-0.62481-0.08699
  -4  -4 -17   87.66  170.90   1-0.25412 0.08150 0.73674-0.98819-0.62660-0.12969
  -4  -4 -18 3250.86  547.67   1-0.25773 0.09580 0.73262-0.98062-0.62994-0.17084
  -4  -4 -19  836.88  249.08   1-0.26291 0.11168 0.72663-0.97118-0.63472-0.21054
  -4  -5  11  315.58  158.45   1-0.53092 0.06270-0.70658 0.28313-0.46781 0.95702
   4   5 -11  136.92  109.02   1 0.06239 0.40435-0.38245 0.80563-0.92186 0.43294
  -4  -5  10 1347.11  216.37   1-0.55728 0.09985-0.64479 0.22542-0.52314 0.96912
   4   5 -10 1572.28  208.36   1 0.09276 0.36334-0.38146 0.80132-0.91971 0.47524
  -4  -5   9  177.67  111.50   1-0.57737 0.13057-0.57791 0.16180-0.57675 0.97814
   4   5  -9  168.59  139.11   1 0.12969 0.31577-0.37979 0.79631-0.91593 0.51591
  -4  -5   8  906.05  172.43   1-0.59364 0.15825-0.50570 0.09221-0.62598 0.98308
   4   5  -8  988.47  179.13   1 0.17349 0.26133-0.37710 0.79029-0.90977 0.55419
  -4  -5   7 3081.47  236.97   1-0.60498 0.18057-0.42831 0.01781-0.67122 0.98339
   4   5  -7 2910.14  232.89   1 0.22343 0.20076-0.37188 0.78215-0.90098 0.58986
  -4  -5   6  633.23  130.17   1-0.61122 0.19736-0.34777-0.05933-0.71095 0.97853
   4   5  -6  822.00  151.76   1 0.28073 0.13277-0.36601 0.77282-0.88725 0.62057
  -4  -5   5 8325.18  547.02   1-0.61238 0.20924-0.26406-0.13976-0.74515 0.96782
   4   5  -5 7535.43  472.28   1 0.34409 0.05872-0.35786 0.76121-0.86806 0.64582
  -4  -5   4 5677.20  310.39   1-0.60873 0.21617-0.17931-0.22112-0.77284 0.95098
   4   5  -4 4189.89  229.67   1 0.41171-0.01955-0.34661 0.74641-0.84281 0.66519
  -4  -5   3 6543.00  353.56   1-0.60057 0.21882-0.09377-0.30346-0.79404 0.92737
   4   5  -3 5544.49  291.97   1 0.48292-0.10150-0.33278 0.72919-0.80996 0.67673
  -4  -5   2  308.05  101.68   1-0.58792 0.21675-0.01029-0.38353-0.80884 0.89773
   4   5  -2  197.56   74.02   1 0.55401-0.18269-0.31521 0.70836-0.77052 0.68179
  -4  -5   1 2307.79  196.00   1-0.57393 0.21264 0.07282-0.46341-0.81565 0.86024
  -4  -5   026396.58  879.07   1-0.55451 0.20385 0.14994-0.53704-0.81855 0.81855
  -4  -5  -125234.86  850.41   1-0.53286 0.19284 0.22216-0.60576-0.81651 0.77192
  -4  -5  -2 5002.54  298.67   1-0.51037 0.18117 0.28840-0.66870-0.81014 0.72111
  -4  -5  -313146.97  547.87   1-0.48680 0.16828 0.34866-0.72547-0.80090 0.66735
  -4  -5  -419404.60  712.67   1-0.46402 0.15547 0.40302-0.77640-0.78883 0.61076
  -4  -5  -511390.60  499.22   1-0.44136 0.14354 0.45054-0.82043-0.77601 0.55343
  -4  -5  -6 2251.10  231.43   1-0.41996 0.13287 0.49198-0.85838-0.76261 0.49550
  -4  -5  -7 5366.29  329.87   1-0.40021 0.12385 0.52768-0.89058-0.74925 0.43762
  -4  -5  -8  129.26  105.59   1-0.38371 0.11687 0.55811-0.91769-0.73571 0.37969
  -4  -5  -911037.40  528.10   1-0.36800 0.11184 0.58348-0.93961-0.72395 0.32344
  -4  -5 -1012411.17  756.82   1-0.35444 0.10896 0.60443-0.95711-0.71345 0.26844
  -4  -5 -11   96.65  119.24   1-0.34305 0.10825 0.62140-0.97062-0.70439 0.21488
  -4  -5 -12  840.02  177.00   1-0.33381 0.10969 0.63476-0.98053-0.69688 0.16286
  -4  -5 -13   27.33  105.94   1-0.32665 0.11320 0.64487-0.98718-0.69097 0.11245
  -4  -5 -14 3471.76  395.34   1-0.32149 0.11873 0.65202-0.99088-0.68666 0.06364
  -4  -5 -15 1187.62  225.06   1-0.31825 0.12616 0.65646-0.99187-0.68393 0.01641
  -4  -5 -16   24.72  126.91   1-0.31683 0.13542 0.65839-0.99035-0.68273-0.02928
  -4  -5 -17 2220.19  435.59   1-0.31714 0.14640 0.65798-0.98648-0.68299-0.07352
  -4  -5 -18  396.01  184.13   1-0.31908 0.15902 0.65533-0.98038-0.68463-0.11639
  -4  -5 -19   21.58  121.90   1-0.32257 0.17319 0.65053-0.97213-0.68756-0.15795
  -4  -6  11  210.98  128.12   1-0.54341 0.07790-0.68187 0.18188-0.48964 0.98022
  -4  -6  10   64.83   91.79   1-0.56379 0.10891-0.62515 0.12842-0.53973 0.98572
  -4  -6   9 7832.08  419.76   1-0.58127 0.13803-0.56435 0.07016-0.58619 0.98793
  -4  -6   8  216.96  150.71   1-0.59467 0.16197-0.49989 0.00904-0.62965 0.98675
   4   6  -8  -25.78   65.52   1 0.33215 0.09991-0.35954 0.85047-0.87201 0.51643
  -4  -6   7  134.03  105.07   1-0.60439 0.18223-0.43224-0.05528-0.66923 0.98170
   4   6  -7  137.52  109.19   1 0.38322 0.03834-0.35142 0.83863-0.85419 0.54334
  -4  -6   6 3309.15  288.77   1-0.61051 0.19941-0.36166-0.12280-0.70460 0.97218
   4   6  -6 2604.56  213.95   1 0.44018-0.02935-0.34141 0.82523-0.83046 0.56402
  -4  -6   5 1780.60  237.76   1-0.61264 0.21209-0.28970-0.19136-0.73534 0.95832
   4   6  -5 1275.69  156.33   1 0.50069-0.10060-0.32889 0.80933-0.80070 0.57867
  -4  -6   4  977.59  204.10   1-0.61093 0.22118-0.21663-0.26118-0.76146 0.93960
   4   6  -4  787.55  141.65   1 0.56304-0.17325-0.31287 0.79049-0.76491 0.58745
  -4  -6   3 3318.81  320.03   1-0.60579 0.22663-0.14375-0.33066-0.78252 0.91613
  -4  -6   2 3344.95  298.81   1-0.59762 0.22931-0.07147-0.39976-0.79858 0.88746
  -4  -6   1  396.79  223.53   1-0.58632 0.22860-0.00141-0.46641-0.81007 0.85451
  -4  -6   0 4674.74  319.69   1-0.57499 0.22699 0.06815-0.53266-0.81531 0.81531
  -4  -6  -113326.53  587.83   1-0.55928 0.22191 0.13233-0.59334-0.81834 0.77375
  -4  -6  -2 -102.92  124.11   1-0.54216 0.21543 0.19251-0.65002-0.81791 0.72873
  -4  -6  -3  659.64  177.87   1-0.52480 0.20894 0.24774-0.70201-0.81437 0.68081
  -4  -6  -4 1162.25  199.58   1-0.50656 0.20139 0.29860-0.74938-0.80884 0.63076
  -4  -6  -5 4593.63  320.98   1-0.48848 0.19399 0.34458-0.79186-0.80165 0.57906
  -4  -6  -622961.59  871.35   1-0.47097 0.18715 0.38567-0.82946-0.79337 0.52626
  -4  -6  -7 1110.68  223.01   1-0.45511 0.18128 0.42219-0.86256-0.78398 0.47235
  -4  -6  -8  808.62  206.50   1-0.43973 0.17663 0.45380-0.89068-0.77504 0.41890
  -4  -6  -9  258.10  157.13   1-0.42577 0.17339 0.48104-0.91443-0.76636 0.36570
  -4  -6 -10  114.37  152.75   1-0.41336 0.17171 0.50417-0.93407-0.75824 0.31306
  -4  -6 -11  319.13  139.83   1-0.40261 0.17169 0.52347-0.94988-0.75091 0.26122
  -4  -6 -12  567.77  194.16   1-0.39356 0.17336 0.53921-0.96213-0.74455 0.21034
  -4  -6 -13  -14.49   96.46   1-0.38774 0.17665 0.55140-0.97115-0.73865 0.16013
  -4  -6 -14  306.22  147.00   1-0.38214 0.18173 0.56069-0.97699-0.73456 0.11154
  -4  -6 -15 7186.50  477.05   1-0.37821 0.18848 0.56712-0.97997-0.73165 0.06413
  -4  -6 -16  180.50  195.50   1-0.37590 0.19685 0.57086-0.98026-0.72993 0.01790
  -4  -6 -17 1851.92  383.40   1-0.37517 0.20679 0.57206-0.97800-0.72937-0.02714
  -4  -6 -18  -11.92  123.10   1-0.37594 0.21824 0.57080-0.97330-0.72996-0.07106
  -4  -7  11  206.12  147.24   1-0.54843 0.08547-0.66910 0.09174-0.50151 0.99210
  -4  -7  10 1512.64  317.30   1-0.56640 0.11407-0.61680 0.04270-0.54656 0.99255
  -4  -7   9 8517.93 1190.65   1-0.58193 0.14138-0.56162-0.00993-0.58816 0.98990
  -4  -7   8 3339.52  324.84   1-0.59400 0.16399-0.50370-0.06451-0.62724 0.98434
  -4  -7   7 2802.35  319.29   1-0.60305 0.18358-0.44354-0.12135-0.66302 0.97548
  -4  -7   6  104.00  171.00   1-0.60925 0.20091-0.38134-0.18046-0.69526 0.96284
  -4  -7   5  272.96  124.00   1-0.61225 0.21446-0.31828-0.24014-0.72376 0.94675
  -4  -7   4   74.78  117.74   1-0.61221 0.22528-0.25452-0.30066-0.74860 0.92674
  -4  -7   3 4105.39  301.57   1-0.60951 0.23317-0.19099-0.36080-0.76942 0.90302
  -4  -7   2 4735.80  346.94   1-0.60424 0.23849-0.12813-0.42027-0.78642 0.87549
  -4  -7   1  105.98  122.94   1-0.59693 0.24207-0.06657-0.47866-0.79952 0.84396
  -4  -7   027209.63 1481.66   1-0.58735 0.24307-0.00708-0.53474-0.80929 0.80929
  -4  -7  -1  278.34  200.75   1-0.57612 0.24242 0.04995-0.58837-0.81583 0.77139
  -4  -7  -2 1161.20  237.55   1-0.56600 0.24193 0.10613-0.64106-0.81753 0.72835
  -4  -7  -3 6754.15  515.50   1-0.55255 0.23911 0.15696-0.68840-0.81855 0.68478
  -4  -7  -4 7124.88  545.47   1-0.53858 0.23576 0.20416-0.73210-0.81746 0.63909
  -4  -7  -511314.86  714.27   1-0.52512 0.23329 0.24679-0.77153-0.81445 0.59186
  -4  -7  -6 2297.34  250.03   1-0.51120 0.23005 0.28614-0.80738-0.81042 0.54331
  -4  -7  -719397.79  615.85   1-0.49774 0.22727 0.32153-0.83929-0.80552 0.49389
  -4  -7  -8 4271.53  346.45   1-0.48499 0.22520 0.35302-0.86728-0.80009 0.44395
  -4  -7  -913481.08  606.42   1-0.47316 0.22405 0.38069-0.89146-0.79447 0.39381
  -4  -7 -10  963.46  229.64   1-0.46323 0.22412 0.40474-0.91211-0.78841 0.34323
  -4  -7 -1111923.48  832.73   1-0.45371 0.22532 0.42514-0.92902-0.78319 0.29350
  -4  -7 -12 2253.82  258.63   1-0.44549 0.22783 0.44217-0.94256-0.77846 0.24425
  -4  -7 -13  200.50  135.53   1-0.43863 0.23170 0.45601-0.95290-0.77437 0.19564
  -4  -7 -14 9921.84 1378.61   1-0.43315 0.23695 0.46680-0.96021-0.77101 0.14777
  -4  -7 -15   55.07  130.88   1-0.42907 0.24360 0.47471-0.96463-0.76846 0.10070
  -4  -7 -16   85.52  130.98   1-0.42639 0.25164 0.47985-0.96628-0.76676 0.05448
  -4  -7 -17 2614.24  505.95   1-0.42509 0.26106 0.48233-0.96527-0.76592 0.00913
  -4  -8  10   42.87  113.37   1-0.56641 0.11662-0.61678-0.03467-0.54658 0.99257
  -4  -8   9  182.21  165.58   1-0.58072 0.14287-0.56659-0.08232-0.58457 0.98631
  -4  -8   8 1680.51  329.93   1-0.59205 0.16473-0.51429-0.13129-0.62045 0.97756
  -4  -8   7  500.41  166.57   1-0.60085 0.18407-0.46037-0.18188-0.65347 0.96593
  -4  -8   6   61.64  142.75   1-0.60732 0.20175-0.40502-0.23414-0.68345 0.95103
  -4  -8   5  859.79  228.85   1-0.61116 0.21613-0.34911-0.28665-0.71035 0.93333
  -4  -8   4   65.90  186.44   1-0.61263 0.22814-0.29284-0.33954-0.73411 0.91250
  -4  -8   3 2046.98  301.55   1-0.61173 0.23820-0.23675-0.39241-0.75480 0.88840
  -4  -8   2   66.08  134.98   1-0.60886 0.24592-0.18126-0.44451-0.77228 0.86135
  -4  -8   1   45.03  136.15   1-0.60411 0.25175-0.12681-0.49557-0.78674 0.83127
  -4  -8   0 4820.53  453.41   1-0.59797 0.25657-0.07404-0.54518-0.79808 0.79808
  -4  -8  -121495.77  718.79   1-0.59015 0.25932-0.02310-0.59271-0.80696 0.76252
  -4  -8  -2 6387.05  452.18   1-0.58117 0.26092 0.02556-0.63798-0.81337 0.72449
  -4  -8  -3  708.20  229.49   1-0.57374 0.26295 0.07364-0.68250-0.81571 0.68193
  -4  -8  -4  362.50  193.66   1-0.56328 0.26313 0.11693-0.72229-0.81794 0.63957
  -4  -8  -5   -7.62  127.05   1-0.55250 0.26297 0.15715-0.75901-0.81855 0.59559
  -4  -8  -611569.69  824.17   1-0.54166 0.26276 0.19417-0.79253-0.81786 0.55030
  -4  -8  -7 4789.33  506.75   1-0.53100 0.26273 0.22790-0.82277-0.81614 0.50400
  -4  -8  -8  -96.27  119.37   1-0.52150 0.26437 0.25734-0.84906-0.81351 0.45737
  -4  -8  -9 1014.30  210.83   1-0.51184 0.26540 0.28439-0.87262-0.81063 0.40997
  -4  -8 -10   46.33  103.42   1-0.50292 0.26715 0.30819-0.89293-0.80751 0.36233
  -4  -8 -11  613.56  212.40   1-0.49486 0.26978 0.32881-0.91005-0.80435 0.31466
  -4  -8 -12 1159.13  264.00   1-0.48777 0.27336 0.34631-0.92407-0.80133 0.26712
  -4  -8 -13  211.63  154.96   1-0.48172 0.27799 0.36081-0.93508-0.79859 0.21986
  -4  -8 -14  184.82  146.82   1-0.47677 0.28373 0.37239-0.94317-0.79624 0.17299
  -4  -8 -15  690.18  222.80   1-0.47296 0.29060 0.38114-0.94843-0.79437 0.12660
  -4  -9   8 1954.39  416.79   1-0.58898 0.16436-0.52984-0.19311-0.61020 0.96731
  -4  -9   7  174.35  181.05   1-0.59778 0.18369-0.48121-0.23842-0.64116 0.95363
  -4  -9   6  111.22  184.60   1-0.60445 0.20089-0.43169-0.28460-0.66953 0.93735
  -4  -9   5  268.47  220.25   1-0.60923 0.21696-0.38155-0.33157-0.69515 0.91814
  -4  -9   4 1347.70  328.17   1-0.61187 0.23015-0.33136-0.37837-0.71819 0.89658
  -4  -9   3 4753.88  740.95   1-0.61265 0.24147-0.28132-0.42502-0.73858 0.87237
  -4  -9   2  582.25  204.73   1-0.61156 0.25144-0.23203-0.47112-0.75640 0.84546
  -4  -9   1  122.16  137.02   1-0.60902 0.25947-0.18349-0.51627-0.77163 0.81616
  -4  -9   0 3904.99  412.80   1-0.60506 0.26610-0.13617-0.56020-0.78444 0.78444
  -4  -9  -1  882.50  219.56   1-0.60019 0.27223-0.09072-0.60250-0.79469 0.75025
  -4  -9  -2 2055.25  312.71   1-0.59400 0.27662-0.04687-0.64294-0.80309 0.71421
  -4  -9  -3  755.37  197.04   1-0.58700 0.28020-0.00510-0.68130-0.80957 0.67624
  -4  -9  -4  649.48  218.10   1-0.57939 0.28317 0.03435-0.71736-0.81432 0.63655
  -4  -9  -5  869.71  258.03   1-0.57383 0.28696 0.07326-0.75254-0.81568 0.59272
  -4  -9  -6 2659.24  360.55   1-0.56564 0.28940 0.10760-0.78338-0.81760 0.55004
  -4  -9  -7 2387.33  311.39   1-0.55745 0.29184 0.13917-0.81146-0.81845 0.50631
  -4  -9  -8 3449.14  367.02   1-0.54944 0.29446 0.16791-0.83670-0.81848 0.46174
  -4  -9  -9  575.85  205.61   1-0.54178 0.29743 0.19378-0.85908-0.81787 0.41654
  -4  -9 -10   -9.97  113.33   1-0.53460 0.30088 0.21677-0.87857-0.81682 0.37090
  -4  -9 -11 4444.93  701.18   1-0.52883 0.30642 0.23576-0.89447-0.81531 0.32562
  -4  -9 -12  878.75  246.54   1-0.52299 0.31125 0.25301-0.90823-0.81391 0.27969
  -4  -9 -13  112.67  148.13   1-0.51794 0.31688 0.26747-0.91919-0.81252 0.23378
  -4  -9 -14 4315.52  714.56   1-0.51374 0.32336 0.27917-0.92741-0.81124 0.18799
  -4 -10   5  260.11  189.08   1-0.60635 0.21685-0.41518-0.37529-0.67819 0.90118
  -4 -10   4  181.29  148.41   1-0.61001 0.23105-0.37008-0.41700-0.70065 0.87904
  -4 -10   3 1676.12  391.03   1-0.61207 0.24365-0.32519-0.45850-0.72084 0.85463
  -4 -10   2  138.08  147.98   1-0.61265 0.25478-0.28078-0.49952-0.73879 0.82798
  -4 -10   1 1557.30  349.10   1-0.61175 0.26502-0.23749-0.53964-0.75455 0.79908
  -4 -10   0  203.81  137.29   1-0.60976 0.27362-0.19499-0.57876-0.76822 0.76822
  -4 -10  -1  128.33  131.72   1-0.60670 0.28114-0.15377-0.61658-0.77991 0.73537
  -4 -10  -2   -9.93  121.82   1-0.60272 0.28775-0.11409-0.65287-0.78974 0.70067
  -4 -10  -3 1078.84  304.22   1-0.59834 0.29441-0.07671-0.68710-0.79755 0.66423
  -4 -10  -4  665.60  229.09   1-0.59305 0.29969-0.04079-0.71961-0.80413 0.62636
  -4 -10  -5  713.92  255.52   1-0.58733 0.30456-0.00697-0.75003-0.80931 0.58710
  -4 -10  -6 1289.75  299.73   1-0.58136 0.30916 0.02461-0.77821-0.81327 0.54662
  -4 -10  -7  192.96  164.30   1-0.57528 0.31366 0.05385-0.80405-0.81617 0.50508
  -4 -10  -8 1830.78  389.00   1-0.57169 0.31937 0.08252-0.82873-0.81630 0.45956
  -4 -10  -9  858.81  292.09   1-0.56584 0.32415 0.10679-0.84951-0.81756 0.41623
  -4 -10 -10  280.17  244.86   1-0.56028 0.32922 0.12852-0.86773-0.81826 0.37234
  -4 -10 -11  417.04  233.75   1-0.55514 0.33471 0.14766-0.88338-0.81854 0.32802
  -4 -11   1 1445.70  372.57   1-0.61265 0.26808-0.28908-0.56518-0.73558 0.78018
  -4 -11   0 7360.28 1080.89   1-0.61214 0.27881-0.25110-0.60002-0.74982 0.74982
  -4 -11  -1 -112.30  142.58   1-0.61079 0.28805-0.21388-0.63385-0.76234 0.71781
  -4 -11  -2  342.06  188.40   1-0.60863 0.29647-0.17799-0.66635-0.77322 0.68415
  -4 -11  -3 3122.49  589.13   1-0.60577 0.30420-0.14360-0.69735-0.78256 0.64896
  -4 -11  -4 1956.20  413.76   1-0.60236 0.31137-0.11087-0.72668-0.79048 0.61234
  -4 -11  -5  588.31  253.34   1-0.59887 0.31897-0.08066-0.75374-0.79676 0.57455
  -4 -11  -6 5321.05  858.81   1-0.59474 0.32542-0.05174-0.77925-0.80224 0.53559
  -4 -11  -7   14.91  163.30   1-0.59044 0.33170-0.02487-0.80271-0.80669 0.49559
   5 -10   1  458.67  180.21   1-0.45854 0.92940-0.82877 0.05317-0.32073 0.36519
   5 -10   2  365.15  181.74   1-0.45405 0.91429-0.83444 0.05552-0.31230 0.40122
   5 -10   3  700.89  213.58   1-0.44861 0.89823-0.84108 0.05883-0.30218 0.43556
   5 -10   4   19.21  133.75   1-0.44228 0.88128-0.84851 0.06293-0.29053 0.46837
   5  -9  -6  609.11  146.20   1-0.16188 0.70549-0.37940-0.29473-0.91095 0.64452
   5  -9  -5  242.24  134.87   1-0.12417 0.65548-0.38075-0.29790-0.91630 0.69396
   5  -9  -1   40.76  106.49   1-0.46099 0.95035-0.82560 0.13387-0.32536 0.28090
   5  -9   0   -7.14  104.12   1-0.45882 0.93755-0.82841 0.13337-0.32126 0.32126
   5  -9   1   53.01  111.76   1-0.45539 0.92350-0.83276 0.13439-0.31481 0.35928
   5  -9   2 1718.52  365.39   1-0.45085 0.90833-0.83838 0.13668-0.30634 0.39526
   5  -9   3   58.45  122.40   1-0.44530 0.89216-0.84500 0.13998-0.29608 0.42946
   5  -9   4 1352.90  311.57   1-0.43882 0.87506-0.85243 0.14409-0.28421 0.46205
   5  -9   5  346.42  184.78   1-0.43147 0.85709-0.86048 0.14881-0.27089 0.49319
   5  -9   6 2373.21  465.36   1-0.42330 0.83829-0.86899 0.15399-0.25625 0.52301
   5  -9   7  -67.32  135.28   1-0.41434 0.81870-0.87779 0.15947-0.24039 0.55161
   5  -9   8 1985.15  412.38   1-0.40461 0.79836-0.88677 0.16512-0.22341 0.57909
   5  -9   9  238.74  244.07   1-0.39372 0.77685-0.89593 0.17115-0.20562 0.60597
   5  -8  -9  182.79  133.29   1-0.27275 0.84540-0.37024-0.21638-0.88798 0.48833
   5  -8  -8  381.01  175.25   1-0.25240 0.81441-0.37230-0.21775-0.89312 0.53787
   5  -8  -7  179.65  178.20   1-0.22728 0.77864-0.37461-0.21888-0.89889 0.58804
   5  -8  -616211.50 2167.13   1-0.19673 0.73744-0.37706-0.21987-0.90504 0.63861
   5  -8  -5   85.55  145.33   1-0.16001 0.69007-0.37951-0.22086-0.91124 0.68921
   5  -8  -4  367.49  133.10   1-0.11716 0.63522-0.38106-0.22367-0.91709 0.73922
   5  -8  -3   96.46  125.64   1-0.06529 0.57278-0.38276-0.22531-0.92153 0.78813
   5  -8  -2   10.67   93.74   1-0.00451 0.50142-0.38343-0.22798-0.92355 0.83462
   5  -8  -1   25.08  106.90   1-0.45192 0.93852-0.83707 0.22257-0.30834 0.26388
   5  -8  -1   76.98   86.05   1 0.06669 0.41997-0.38233-0.23280-0.92161 0.87716
   5  -8   0 1342.58  208.84   1-0.45023 0.92621-0.83912 0.22130-0.30520 0.30520
   5  -8   0 1202.62  211.26   1 0.14766 0.32837-0.37878-0.23968-0.91363 0.91363
   5  -8   1 1748.17  222.62   1-0.44711 0.91246-0.84287 0.22173-0.29941 0.34387
   5  -8   2  412.57  186.43   1-0.44272 0.89745-0.84800 0.22353-0.29134 0.38026
   5  -8   3 1210.11  231.63   1-0.43723 0.88134-0.85421 0.22642-0.28131 0.41469
   5  -8   4  108.55  181.08   1-0.43073 0.86421-0.86128 0.23016-0.26954 0.44739
   5  -8   5  169.08  136.22   1-0.42329 0.84615-0.86899 0.23455-0.25624 0.47854
   5  -8   6   91.36  132.21   1-0.41499 0.82722-0.87717 0.23940-0.24154 0.50830
   5  -8   7  175.80  182.27   1-0.40587 0.80748-0.88565 0.24455-0.22558 0.53681
   5  -8   8  225.25  120.42   1-0.39555 0.78653-0.89440 0.25015-0.20875 0.56461
   5  -8   9 1700.93  370.01   1-0.38485 0.76523-0.90309 0.25554-0.19051 0.59086
   5  -8  10  779.81  261.06   1-0.37343 0.74319-0.91170 0.26085-0.17129 0.61612
   5  -8  11  352.81  207.39   1-0.36130 0.72045-0.92011 0.26596-0.15116 0.64047
   5  -8  12  281.65  207.81   1-0.34847 0.69701-0.92823 0.27078-0.13016 0.66396
   5  -7 -11  186.21  181.43   1-0.32028 0.91270-0.36610-0.13543-0.87371 0.38551
   5  -7 -10    9.01  127.82   1-0.30983 0.89024-0.36602-0.13996-0.87751 0.43344
   5  -7  -9   29.50  119.24   1-0.29472 0.86448-0.36781-0.14161-0.88195 0.48229
   5  -7  -8 1386.75  298.19   1-0.27547 0.83458-0.36995-0.14291-0.88726 0.53201
   5  -7  -7   99.31  126.34   1-0.25153 0.79999-0.37239-0.14391-0.89333 0.58249
   5  -7  -6 4245.55  390.91   1-0.22225 0.76006-0.37504-0.14469-0.89996 0.63353
   5  -7  -5  548.00  196.01   1-0.18690 0.71407-0.37777-0.14540-0.90683 0.68480
   5  -7  -4  998.82  228.75   1-0.14558 0.66096-0.37968-0.14779-0.91358 0.73572
   5  -7  -312747.05  857.85   1-0.09539 0.60020-0.38190-0.14891-0.91926 0.78586
   5  -7  -2 1886.36  225.37   1-0.43306 0.92753-0.85878 0.32484-0.27375 0.18483
   5  -7  -2 2177.21  299.54   1-0.03652 0.53075-0.38326-0.15089-0.92291 0.83398
   5  -7  -1 8128.31  585.53   1-0.43475 0.91859-0.85695 0.31968-0.27680 0.23234
   5  -7  -1 8123.17  593.64   1 0.03235 0.45158-0.38307-0.15475-0.92315 0.87870
   5  -7   0   89.09  116.45   1-0.43422 0.90744-0.85752 0.31693-0.27585 0.27585
   5  -7   0   38.59   81.94   1 0.11072 0.36258-0.38071-0.16043-0.91803 0.91803
   5  -7   1  203.69  116.11   1-0.43190 0.89450-0.86003 0.31611-0.27166 0.31612
   5  -7   1  238.42  132.87   1 0.20116 0.26225-0.37379-0.17015-0.90543 0.94988
   5  -7   2 8326.23  617.88   1-0.42808 0.88005-0.86407 0.31683-0.26479 0.35371
   5  -7   2 7347.77  512.32   1 0.29933 0.15338-0.36380-0.18359-0.88206 0.97096
   5  -7   3 4663.67  472.05   1-0.42296 0.86431-0.86933 0.31876-0.25565 0.38903
   5  -7   3 3712.93  326.18   1 0.40582 0.03578-0.34764-0.20326-0.84524 0.97847
   5  -7   4 1900.74  251.58   1-0.41670 0.84742-0.87553 0.32163-0.24455 0.42239
   5  -7   5  305.72  116.36   1-0.40940 0.82950-0.88243 0.32521-0.23174 0.45404
   5  -7   615964.54 1062.86   1-0.40115 0.81063-0.88983 0.32928-0.21742 0.48418
   5  -7   7  623.01  199.91   1-0.39164 0.79048-0.89765 0.33393-0.20206 0.51344
   5  -7   8 3485.89  333.86   1-0.38166 0.76988-0.90557 0.33855-0.18511 0.54097
   5  -7   9  102.72  163.50   1-0.37089 0.74850-0.91352 0.34320-0.16705 0.56740
   5  -7  10  108.32  197.79   1-0.35937 0.72637-0.92138 0.34776-0.14799 0.59281
   5  -7  11 6612.10 1001.80   1-0.34713 0.70352-0.92904 0.35211-0.12799 0.61730
   5  -7  12  569.27  207.88   1-0.33418 0.67997-0.93640 0.35617-0.10712 0.64091
   5  -7  13  103.15  145.20   1-0.32054 0.65572-0.94336 0.35984-0.08545 0.66372
   5  -7  14  888.38  264.48   1-0.30594 0.63007-0.94993 0.36301-0.06345 0.68646
   5  -6 -12  209.36  215.17   1-0.34064 0.94063-0.36344-0.05745-0.86710 0.33451
   5  -6 -11  294.15  206.95   1-0.33307 0.92246-0.36445-0.05994-0.86961 0.38140
   5  -6 -10  205.35  125.58   1-0.32226 0.90104-0.36585-0.06203-0.87309 0.42926
   5  -6  -9   86.92  127.93   1-0.30893 0.87580-0.36613-0.06610-0.87778 0.47812
   5  -6  -8  609.75  227.52   1-0.29039 0.84660-0.36831-0.06736-0.88318 0.52793
   5  -6  -7 2528.07  357.98   1-0.26718 0.81275-0.37082-0.06828-0.88943 0.57859
   5  -6  -6 1466.97  288.97   1-0.23867 0.77359-0.37360-0.06894-0.89635 0.62991
   5  -6  -5 2235.40  284.29   1-0.20413 0.72841-0.37650-0.06947-0.90364 0.68160
   5  -6  -4   -5.30   91.39   1-0.16276 0.67639-0.37934-0.07007-0.91082 0.73319
   5  -6  -3 1162.32  204.16   1-0.11440 0.61653-0.38118-0.07237-0.91739 0.78399
   5  -6  -2 1614.00  192.81   1-0.40046 0.89202-0.89019 0.43341-0.21721 0.12825
   5  -6  -2 1483.03  202.02   1-0.05660 0.54815-0.38294-0.07394-0.92203 0.83309
   5  -6  -1 2261.35  219.12   1-0.40547 0.88656-0.88600 0.42596-0.22490 0.18044
   5  -6  -1 2216.41  216.94   1 0.01050 0.47047-0.38338-0.07685-0.92352 0.87906
   5  -6   0  472.02  138.17   1-0.40745 0.87791-0.88421 0.42084-0.22835 0.22835
   5  -6   0  477.17  111.48   1 0.08769 0.38288-0.38165-0.08219-0.92013 0.92013
   5  -6   1 3532.55  257.44   1-0.40696 0.86679-0.88466 0.41797-0.22748 0.27194
   5  -6   1 3584.55  257.50   1 0.17430 0.28563-0.37704-0.09013-0.90964 0.95409
   5  -6   2 3027.81  252.64   1-0.40448 0.85369-0.88689 0.41687-0.22318 0.31210
   5  -6   2 2291.39  199.70   1 0.27161 0.17827-0.36704-0.10315-0.88966 0.97855
   5  -6   3  551.00  151.38   1-0.40036 0.83895-0.89051 0.41717-0.21606 0.34944
   5  -6   3  510.03  124.47   1 0.37477 0.06401-0.35277-0.12088-0.85737 0.99059
   5  -6   4  103.22  139.43   1-0.39459 0.82249-0.89521 0.41862-0.20710 0.38503
   5  -6   4    7.57   65.80   1 0.48191-0.05386-0.33299-0.14404-0.81047 0.98810
   5  -6   5 2544.81  263.55   1-0.38780 0.80510-0.90076 0.42087-0.19552 0.41793
   5  -6   5 2003.78  191.12   1 0.58991-0.17232-0.30555-0.17571-0.74741 0.96923
   5  -6   6  942.47  193.13   1-0.37994 0.78662-0.90688 0.42369-0.18221 0.44910
   5  -6   7    6.89  104.91   1-0.37109 0.76716-0.91338 0.42689-0.16738 0.47876
   5  -6   8   86.91  121.61   1-0.36133 0.74680-0.92009 0.43030-0.15121 0.50707
   5  -6   9 3882.11  387.53   1-0.35073 0.72559-0.92686 0.43376-0.13384 0.53419
   5  -6  10   75.34  140.47   1-0.33933 0.70358-0.93355 0.43716-0.11539 0.56022
   5  -6  11   70.97  156.22   1-0.32718 0.68082-0.94007 0.44038-0.09596 0.58527
   5  -6  12 1223.05  325.06   1-0.31430 0.65733-0.94630 0.44331-0.07562 0.60941
   5  -6  13 1493.24  336.89   1-0.30042 0.63249-0.95222 0.44582-0.05488 0.63339
  -5   6 -14 1470.64  471.77   1 0.29073-0.61053 0.95624-0.44499 0.03279-0.65515
   5  -6  14 1466.67  363.18   1-0.28613 0.60760-0.95762 0.44790-0.03288 0.65589
   5  -6  15  195.63  262.86   1-0.27117 0.58203-0.96247 0.44943-0.01016 0.67767
   5  -5 -13   63.80  149.23   1-0.35015 0.95771-0.36213 0.02186-0.86385 0.28688
   5  -5 -12  972.29  294.20   1-0.34587 0.94282-0.36273 0.01896-0.86532 0.33273
   5  -5 -11   19.27  112.82   1-0.33868 0.92502-0.36371 0.01645-0.86776 0.37955
   5  -5 -10  354.86  213.05   1-0.32823 0.90396-0.36509 0.01433-0.87119 0.42736
   5  -5  -9 1837.06  290.45   1-0.31532 0.87928-0.36534 0.01030-0.87584 0.47618
   5  -5  -8  851.48  266.17   1-0.29710 0.85042-0.36753 0.00906-0.88127 0.52602
   5  -5  -7  -16.94  119.33   1-0.27419 0.81687-0.37009 0.00817-0.88760 0.57676
   5  -5  -6 3146.06  302.95   1-0.24596 0.77799-0.37292 0.00757-0.89466 0.62822
   5  -5  -5  426.99  155.60   1-0.21169 0.73306-0.37591 0.00712-0.90214 0.68011
   5  -5  -4  612.54  187.30   1-0.17057 0.68130-0.37886 0.00663-0.90959 0.73197
   5  -5  -3  731.88  168.56   1-0.12242 0.62187-0.38083 0.00454-0.91650 0.78310
   5  -5  -2  519.31  116.39   1-0.34516 0.83396-0.93020 0.55065-0.12480 0.03583
   5  -5  -2  548.28  145.54   1-0.06495 0.55383-0.38277 0.00314-0.92155 0.83262
   5  -5  -115598.58  843.90   1-0.35765 0.83584-0.92250 0.53964-0.14517 0.10068
   5  -5  -117032.54  956.15   1 0.00167 0.47663-0.38342 0.00045-0.92356 0.87910
   5  -5   021028.36  735.20   1-0.36473 0.83231-0.91781 0.53165-0.15682 0.15682
   5  -5   023312.77  844.90   1 0.07799 0.38984-0.38199-0.00455-0.92086 0.92086
   5  -5   1  584.34  127.98   1-0.36793 0.82490-0.91560 0.52615-0.16213 0.20661
   5  -5   1 1078.56  172.46   1 0.16343 0.29376-0.37778-0.01208-0.91135 0.95580
   5  -5   2 1070.81  168.59   1-0.36821 0.81458-0.91540 0.52265-0.16260 0.25157
   5  -5   2 1619.68  195.59   1 0.25877 0.18829-0.36842-0.02455-0.89291 0.98180
   5  -5   3 4889.14  307.51   1-0.36620 0.80195-0.91680 0.52074-0.15926 0.29271
   5  -5   3 4794.55  292.83   1 0.35918 0.07719-0.35565-0.04077-0.86284 0.99618
   5  -5   4  661.63  146.88   1-0.36232 0.78746-0.91943 0.52007-0.15284 0.33077
   5  -5   4 1148.03  171.77   1 0.46333-0.03810-0.33686-0.06293-0.81966 0.99728
   5  -5   5 2681.10  264.64   1-0.35686 0.77140-0.92300 0.52035-0.14387 0.36629
   5  -5   5 2257.53  240.54   1 0.56740-0.15249-0.31171-0.09238-0.76215 0.98397
   5  -5   6  723.85  182.52   1-0.35006 0.75399-0.92726 0.52131-0.13276 0.39965
   5  -5   7 3584.03  336.49   1-0.34207 0.73539-0.93200 0.52274-0.11981 0.43119
   5  -5   8 3262.51  304.41   1-0.33303 0.71574-0.93701 0.52445-0.10528 0.46114
   5  -5   9  811.82  222.64   1-0.32302 0.69512-0.94216 0.52630-0.08935 0.48970
   5  -5  10 1049.12  261.13   1-0.31212 0.67361-0.94729 0.52813-0.07220 0.51702
   5  -5  11  804.23  215.27   1-0.30012 0.65074-0.95234 0.52979-0.05441 0.54392
  -5   5 -12   -6.00  119.26   1 0.29195-0.63076 0.95580-0.52862 0.03460-0.56806
   5  -5  12   47.52  150.40   1-0.28759 0.62760-0.95710 0.53123-0.03511 0.56912
  -5   5 -13  536.35  138.50   1 0.27858-0.60674 0.96029-0.52969 0.01478-0.59269
   5  -5  13  749.28  206.83   1-0.27431 0.60372-0.96152 0.53232-0.01490 0.59341
  -5   5 -14 4854.12 1164.45   1 0.26447-0.58197 0.96437-0.53034-0.00589-0.61646
   5  -5  14 5714.53  854.82   1-0.26032 0.57913-0.96550 0.53297 0.00613 0.61687
  -5   5 -15  593.80  193.29   1 0.24963-0.55648 0.96795-0.53050-0.02737-0.63944
   5  -5  15  590.38  203.41   1-0.24563 0.55383-0.96895 0.53311 0.02794 0.63957
  -5   5 -16   72.73   69.86   1 0.23408-0.53028 0.97094-0.53008-0.04959-0.66167
   5  -5  16   -4.39  139.24   1-0.23027 0.52786-0.97181 0.53264 0.05046 0.66154
   5  -4 -14   77.06  144.38   1-0.34953 0.96465-0.36222 0.10258-0.86407 0.24271
   5  -4 -13  866.30  262.75   1-0.34807 0.95258-0.36242 0.09929-0.86457 0.28760
   5  -4 -12   13.81  139.53   1-0.34394 0.93784-0.36299 0.09637-0.86598 0.33340
   5  -4 -11  376.83  196.22   1-0.33684 0.92014-0.36395 0.09383-0.86837 0.38016
   5  -4 -10 4253.37  414.03   1-0.32645 0.89914-0.36532 0.09170-0.87176 0.42793
   5  -4  -9 4098.52  444.21   1-0.31360 0.87467-0.36555 0.08771-0.87636 0.47670
   5  -4  -8   -2.38  127.77   1-0.29532 0.84574-0.36774 0.08646-0.88178 0.52653
   5  -4  -7 1178.00  233.92   1-0.27228 0.81205-0.37029 0.08557-0.88811 0.57726
   5  -4  -6  117.84  140.92   1-0.24384 0.77297-0.37312 0.08497-0.89516 0.62872
   5  -4  -5  621.76  165.73   1-0.20928 0.72776-0.37610 0.08451-0.90263 0.68059
   5  -4  -4  715.12  185.43   1-0.16782 0.67566-0.37903 0.08400-0.91003 0.73240
   5  -4  -311406.71  551.22   1-0.11923 0.61601-0.38097 0.08194-0.91686 0.78346
  -5   4   2 3301.68  510.56   1 0.25243-0.73810 0.96733-0.66527-0.02333 0.11224
   5  -4  -2 3916.86  180.28   1-0.25354 0.73935-0.96718 0.66503 0.01623-0.10523
   5  -4  -2 4113.71  284.18   1-0.06144 0.54764-0.38285 0.08048-0.92176 0.83283
  -5   4   1  114.19   49.39   1 0.28096-0.75598 0.95954-0.65406 0.01829 0.02615
   5  -4  -1   66.08   77.73   1-0.28117 0.75638-0.95932 0.65384-0.02530-0.01919
   5  -4  -1  285.00  115.94   1 0.00535 0.47027-0.38341 0.07770-0.92356 0.87909
   5  -4   0  319.91   91.61   1-0.29848 0.76309-0.95300 0.64420-0.05187 0.05187
   5  -4   0  486.90  134.05   1 0.08146 0.38365-0.38187 0.07264-0.92061 0.92061
   5  -4   1  309.45   90.83   1-0.30900 0.76300-0.94861 0.63649-0.06822 0.11272
   5  -4   1  429.63  131.98   1 0.16628 0.28818-0.37759 0.06503-0.91091 0.95536
   5  -4   2 2644.47  208.21   1-0.31471 0.75832-0.94611 0.63059-0.07626 0.16523
   5  -4   2 2330.23  229.12   1 0.26006 0.18417-0.36829 0.05252-0.89259 0.98148
   5  -4   3   15.94   72.69   1 0.35829 0.07525-0.35579 0.03656-0.86315 0.99649
   5  -4   425773.61  905.60   1-0.31630 0.73868-0.94538 0.62325-0.07875 0.25668
   5  -4   418727.01  678.75   1 0.45934-0.03692-0.33766 0.01511-0.82157 0.99920
   5  -4   5   12.16  121.96   1-0.31347 0.72525-0.94668 0.62125-0.07431 0.29673
   5  -4   5  109.44  101.63   1 0.55937-0.14713-0.31383-0.01310-0.76720 0.98902
   5  -4   6  289.24  190.11   1-0.30864 0.70962-0.94876 0.62003-0.06765 0.33466
   5  -4   740652.21 1358.35   1-0.30238 0.69275-0.95142 0.61936-0.05791 0.36942
   5  -4   815334.89 1242.65   1-0.29478 0.67455-0.95444 0.61906-0.04615 0.40216
  -5   4  -9  -39.06  110.58   1 0.28977-0.65825 0.95658-0.61688 0.03136-0.43145
   5  -4   9   63.58  127.03   1-0.28599 0.65516-0.95767 0.61896-0.03266 0.43317
  -5   4 -10   14.84   43.91   1 0.27996-0.63778 0.95986-0.61674 0.01681-0.46135
   5  -4  10   74.67  130.33   1-0.27614 0.63471-0.96095 0.61892-0.01767 0.46268
  -5   4 -11 1489.92  243.40   1 0.26914-0.61630 0.96310-0.61656 0.00091-0.48991
   5  -4  11 1402.80  227.98   1-0.26533 0.61329-0.96415 0.61880-0.00136 0.49087
  -5   4 -12 1661.24  366.79   1 0.25738-0.59390 0.96617-0.61621-0.01619-0.51726
   5  -4  12 1837.19  285.87   1-0.25362 0.59097-0.96716 0.61849 0.01611 0.51789
  -5   4 -13 9438.52 1250.66   1 0.24476-0.57062 0.96897-0.61559-0.03436-0.54353
   5  -4  1310610.98  526.97   1-0.24108 0.56783-0.96988 0.61788 0.03465 0.54386
  -5   4 -14 1122.03  336.87   1 0.23131-0.54652 0.97140-0.61460-0.05352-0.56883
   5  -4  14  954.10  203.19   1-0.22775 0.54389-0.97221 0.61689 0.05413 0.56887
  -5   4 -15  320.98  134.82   1 0.21708-0.52163 0.97337-0.61315-0.07357-0.59324
   5  -4  15  242.67  120.93   1-0.21367 0.51921-0.97406 0.61541 0.07448 0.59302
  -5   4 -16  671.66  224.93   1 0.20104-0.49631 0.97508-0.61067-0.09377-0.61704
   5  -4  16  833.93  264.74   1-0.19838 0.49361-0.97548 0.61378 0.09525 0.61612
  -5   4 -17  -95.85  123.90   1 0.18533-0.46996 0.97588-0.60799-0.11534-0.63990
   5  -4  17   58.93  148.10   1-0.18287 0.46751-0.97613 0.61114 0.11714 0.63869
   5  -3 -14  406.67  229.55   1-0.34015 0.95224-0.36351 0.18101-0.86726 0.24591
   5  -3 -13  -14.52  133.74   1-0.33866 0.94013-0.36371 0.17772-0.86776 0.29079
   5  -3 -12 1615.64  341.56   1-0.33442 0.92528-0.36427 0.17479-0.86917 0.33658
   5  -3 -11 1039.04  261.90   1-0.32715 0.90740-0.36523 0.17224-0.87153 0.38333
   5  -3 -10   40.48  138.41   1-0.31648 0.88613-0.36658 0.17010-0.87490 0.43107
   5  -3  -9 2472.49  337.94   1-0.30332 0.86149-0.36680 0.16616-0.87945 0.47979
   5  -3  -8  701.62  194.34   1-0.28456 0.83209-0.36896 0.16488-0.88480 0.52955
   5  -3  -7 1710.06  260.67   1-0.26093 0.79781-0.37146 0.16394-0.89102 0.58017
   5  -3  -6 1311.67  219.24   1-0.23178 0.75802-0.37422 0.16326-0.89790 0.63146
   5  -3  -5  143.85  137.57   1-0.19640 0.71199-0.37709 0.16269-0.90511 0.68307
   5  -3  -4 2158.39  224.46   1-0.15404 0.65898-0.37985 0.16202-0.91212 0.73450
   5  -3  -3 2194.02  232.61   1-0.10440 0.59850-0.38157 0.15981-0.91842 0.78501
  -5   3   222324.66  701.14   1 0.10848-0.59216 0.96970-0.74474-0.21885 0.30772
   5  -3  -228864.49  971.89   1-0.04571 0.52924-0.38313 0.15803-0.92255 0.83362
  -5   3   1  571.56  130.66   1 0.16214-0.63587 0.97579-0.74774-0.14671 0.19114
   5  -3  -1  645.87   90.71   1-0.16480 0.63750-0.97600 0.74746 0.14231-0.18678
   5  -3  -1  809.41  174.50   1 0.02178 0.45116-0.38328 0.15484-0.92337 0.87890
  -5   3   055096.98 1568.08   1 0.19819-0.66127 0.97527-0.74374-0.09770 0.09770
   5  -3   061047.85  675.52   1-0.20011 0.66222-0.97536 0.74353 0.09279-0.09279
   5  -3   061717.31  885.74   1 0.09812 0.36426-0.38125 0.14933-0.91924 0.91924
  -5   3  -1  673.43  149.78   1 0.22370-0.67512 0.97253-0.73744-0.06426 0.01981
   5  -3   1  641.16  107.14   1-0.22333 0.67467-0.97285 0.73793 0.06054-0.01604
   5  -3   1  616.43  125.19   1 0.18263 0.26910-0.37644 0.14119-0.90825 0.95270
  -5   3  -2 2863.54  571.27   1 0.23948-0.68024 0.96999-0.73147-0.04191-0.04699
   5  -3   2 3634.51  215.09   1-0.23854 0.67928-0.97037 0.73212 0.03837 0.05062
   5  -3   2 3479.78  249.26   1 0.27494 0.16647-0.36667 0.12811-0.88879 0.97768
  -5   3  -3  400.83  110.11   1 0.24935-0.67945 0.96801-0.72607-0.02777-0.10558
   5  -3   3  505.06  121.08   1-0.24791 0.67804-0.96846 0.72690 0.02457 0.10892
   5  -3   3  272.31   88.80   1 0.37099 0.05933-0.35336 0.11144-0.85877 0.99199
  -5   3  -4  359.32  134.56   1 0.25479-0.67424 0.96678-0.72142-0.01993-0.15788
   5  -3   4  500.13  171.05   1-0.25293 0.67246-0.96733 0.72244 0.01714 0.16085
   5  -3   4  349.71  112.55   1 0.46869-0.04909-0.33576 0.09046-0.81705 0.99468
  -5   3  -533145.09 1179.59   1 0.25680-0.66560 0.96631-0.71753-0.01703-0.20523
   5  -3   536848.08 1125.87   1-0.25458 0.66351-0.96693 0.71872 0.01468 0.20781
   5  -3   528470.08  899.64   1 0.56426-0.15469-0.31254 0.06277-0.76414 0.98596
  -5   3  -6 4237.40  273.47   1 0.25606-0.65420 0.96649-0.71428-0.01810-0.24861
   5  -3   6 4695.47  289.40   1-0.25356 0.65188-0.96718 0.71564 0.01620 0.25079
  -5   3  -7 5290.03 1014.66   1 0.25306-0.64054 0.96719-0.71156-0.02244-0.28874
   5  -3   7 5154.93  303.04   1-0.25035 0.63806-0.96792 0.71306 0.02097 0.29053
  -5   3  -8 3651.72  665.02   1 0.24816-0.62500 0.96826-0.70922-0.02948-0.32615
   5  -3   8 4084.36  326.64   1-0.24530 0.62241-0.96902 0.71084 0.02843 0.32756
  -5   3  -917685.02  807.91   1 0.24165-0.60783 0.96958-0.70711-0.03881-0.36127
   5  -3   919143.71  793.65   1-0.23868 0.60519-0.97034 0.70883 0.03816 0.36233
  -5   3 -10 3781.27  842.61   1 0.23372-0.58925 0.97101-0.70511-0.05010-0.39444
   5  -3  10 3798.65  347.26   1-0.23070 0.58660-0.97174 0.70691 0.04983 0.39517
  -5   3 -11 1175.15  252.94   1 0.22454-0.56942 0.97241-0.70310-0.06308-0.42591
   5  -3  11 1432.96  214.09   1-0.22151 0.56681-0.97310 0.70495 0.06317 0.42633
   5  -3  12 1179.62  226.74   1-0.21069 0.54564-0.97446 0.70318 0.07768 0.45585
  -5   3 -13 1252.52  362.40   1 0.20189-0.52659 0.97501-0.69823-0.09260-0.48493
   5  -3  13 1212.65  257.36   1-0.19942 0.52377-0.97541 0.70085 0.09378 0.48421
  -5   3 -14 8078.80  982.92   1 0.18962-0.50367 0.97573-0.69546-0.10949-0.51247
   5  -3  14 9916.99  527.95   1-0.18723 0.50099-0.97602 0.69817 0.11102 0.51143
  -5   3 -15   48.38   71.15   1 0.17645-0.47986 0.97602-0.69227-0.12743-0.53896
   5  -3  15   90.75  145.69   1-0.17418 0.47734-0.97618 0.69505 0.12929 0.53762
  -5   3 -16  943.84  260.83   1 0.16243-0.45520 0.97580-0.68857-0.14633-0.56449
   5  -3  16  678.51  203.69   1-0.16033 0.45289-0.97583 0.69140 0.14849 0.56288
  -5   3 -17  786.99  284.68   1 0.14760-0.42972 0.97499-0.68428-0.16611-0.58913
  -5   3 -18  124.29  122.88   1 0.13198-0.40346 0.97351-0.67931-0.18669-0.61297
   5  -2 -15   99.37  154.73   1-0.32233 0.94197-0.36584 0.26398-0.87307 0.20733
   5  -2 -14   87.82  200.41   1-0.32314 0.93218-0.36574 0.26038-0.87281 0.25146
   5  -2 -13  387.77  197.49   1-0.32137 0.91980-0.36596 0.25711-0.87337 0.29640
   5  -2 -12  132.82  207.99   1-0.31675 0.90457-0.36654 0.25419-0.87481 0.34222
   5  -2 -11   23.55  142.54   1-0.31030 0.88688-0.36596 0.24939-0.87737 0.38889
   5  -2 -10 1724.35  288.44   1-0.29904 0.86497-0.36731 0.24730-0.88071 0.43664
   5  -2  -9   78.31  115.20   1-0.28383 0.83911-0.36904 0.24560-0.88500 0.48535
   5  -2  -8  349.57  143.29   1-0.26417 0.80880-0.37113 0.24425-0.89020 0.53495
   5  -2  -7 2333.77  283.16   1-0.23947 0.77346-0.37352 0.24320-0.89617 0.58532
   5  -2  -6   18.82  112.65   1-0.20910 0.73244-0.37612 0.24235-0.90266 0.63622
   5  -2  -510969.70  532.78   1-0.17237 0.68506-0.37875 0.24155-0.90930 0.68727
   5  -2  -4 1478.02  209.98   1-0.12910 0.63110-0.38052 0.23936-0.91571 0.73784
   5  -2  -3 1091.83  211.73   1-0.07734 0.56876-0.38246 0.23796-0.92072 0.78732
  -5   2   210403.75  341.20   1-0.08039-0.40070 0.89108-0.74334-0.44665 0.53560
   5  -2  -211878.70  521.20   1-0.01729 0.49814-0.38341 0.23557-0.92341 0.83448
  -5   2   111035.64  603.55   1 0.00707-0.47785 0.93871-0.78758-0.34462 0.38905
   5  -2  -112932.57  691.39   1 0.05128 0.41900-0.38272 0.23143-0.92243 0.87799
  -5   2   0 3167.15  485.49   1 0.06649-0.52662 0.95996-0.80537-0.27210 0.27210
   5  -2   0 3564.35  286.72   1 0.12805 0.33160-0.37987 0.22526-0.91613 0.91613
  -5   2  -1 1305.15  232.90   1 0.10793-0.55741 0.96960-0.81155-0.21956 0.17513
   5  -2   1 1341.89  173.54   1 0.21292 0.23637-0.37281 0.21492-0.90314 0.94759
  -5   2  -2 1708.73  343.45   1 0.13608-0.57537 0.97396-0.81264-0.18132 0.09246
   5  -2   2 1376.88  151.32   1 0.30287 0.13571-0.36337 0.20202-0.88103 0.96993
  -5   2  -3  817.08  167.35   1 0.15636-0.58500 0.97554-0.81075-0.15445 0.02117
   5  -2   3  870.83  161.24   1 0.39629 0.03122-0.34926 0.18460-0.84909 0.98231
  -5   2  -449106.21 1244.11   1 0.17009-0.58809 0.97599-0.80771-0.13602-0.04167
   5  -2   453982.08 1267.65   1-0.16997 0.58703-0.97613 0.80843 0.13514 0.04269
  -5   2  -5  801.15  236.43   1 0.17881-0.58617 0.97600-0.80424-0.12422-0.09790
   5  -2   5  840.02  254.75   1-0.17826 0.58473-0.97618 0.80520 0.12359 0.09870
   5  -2   5  923.87  143.34   1 0.58063-0.17374-0.30813 0.13553-0.75359 0.97541
  -5   2  -635865.26 1206.49   1 0.18359-0.58030 0.97592-0.80068-0.11772-0.14882
   5  -2   638830.11 1176.01   1-0.18267 0.57854-0.97613 0.80186 0.11741 0.14934
  -5   2  -7 1389.32  418.30   1 0.18519-0.57125 0.97588-0.79716-0.11554-0.19543
   5  -2   7 1779.31  267.47   1-0.18398 0.56925-0.97610 0.79854 0.11558 0.19563
  -5   2  -8  370.69  120.81   1 0.18417-0.55960 0.97591-0.79370-0.11693-0.23848
   5  -2   8  367.11  132.80   1-0.18273 0.55741-0.97613 0.79528 0.11733 0.23835
  -5   2  -937599.50 1471.18   1 0.18097-0.54575 0.97597-0.79029-0.12129-0.27854
   5  -2   941547.20 1365.87   1-0.17936 0.54344-0.97618 0.79204 0.12205 0.27809
  -5   2 -10 1742.09  478.47   1 0.17590-0.53003 0.97602-0.78686-0.12817-0.31608
   5  -2  10 2189.87  601.52   1-0.17418 0.52766-0.97618 0.78876 0.12929 0.31531
  -5   2 -11 5415.88  736.92   1 0.16920-0.51269 0.97598-0.78333-0.13722-0.35146
   5  -2  11 6133.79  475.33   1-0.16742 0.51031-0.97608 0.78537 0.13868 0.35039
  -5   2 -12  111.81   72.40   1 0.16108-0.49393 0.97575-0.77963-0.14813-0.38497
   5  -2  12  189.29  150.73   1-0.15929 0.49158-0.97578 0.78178 0.14991 0.38361
  -5   2 -13 2502.52  438.81   1 0.15168-0.47388 0.97527-0.77566-0.16068-0.41685
  -5   2 -14  -19.45  109.35   1 0.14112-0.45268 0.97445-0.77136-0.17467-0.44729
  -5   2 -15  871.77  233.05   1 0.12950-0.43041 0.97321-0.76664-0.18995-0.47644
  -5   2 -16  758.12  208.23   1 0.11689-0.40715 0.97146-0.76141-0.20637-0.50445
  -5   2 -17    2.24   81.37   1 0.10441-0.38343 0.96895-0.75549-0.22408-0.53123
  -5   2 -18  895.10  256.71   1 0.08999-0.35835 0.96596-0.74903-0.24250-0.55724
  -5   2 -19   71.09   95.44   1 0.07472-0.33243 0.96222-0.74183-0.26179-0.58238
   5  -1 -15 -199.75  152.13   1-0.29866 0.91493-0.36735 0.34174-0.88082 0.21472
   5  -1 -14  106.70  144.62   1-0.29909 0.90470-0.36730 0.33825-0.88069 0.25900
   5  -1 -13  -35.79  117.83   1-0.29679 0.89177-0.36757 0.33508-0.88136 0.30407
   5  -1 -12  704.34  229.82   1-0.29152 0.87585-0.36818 0.33225-0.88286 0.34998
   5  -1 -11 1466.63  293.76   1-0.28295 0.85663-0.36914 0.32977-0.88525 0.39678
   5  -1 -10  708.52  185.93   1-0.27069 0.83372-0.37046 0.32765-0.88852 0.44446
   5  -1  -9 2783.70  298.21   1-0.25430 0.80669-0.37212 0.32587-0.89266 0.49300
   5  -1  -8 2259.10  298.97   1-0.23328 0.77501-0.37408 0.32440-0.89757 0.54232
   5  -1  -7 1850.33  257.20   1-0.20703 0.73812-0.37628 0.32315-0.90307 0.59222
   5  -1  -6  -35.01  104.97   1-0.17495 0.69539-0.37858 0.32201-0.90888 0.64244
   5  -1  -5 3374.95  291.29   1-0.13699 0.64688-0.38013 0.31957-0.91472 0.69239
   5  -1  -4   44.39  101.48   1-0.09105 0.59037-0.38205 0.31815-0.91964 0.74177
  -5   1   3 5774.85  209.22   1-0.39953-0.09037 0.52888-0.46188-0.74876 0.88232
   5  -1  -3 7159.63  394.52   1-0.03742 0.52616-0.38325 0.31600-0.92288 0.78948
  -5   1   2 1620.39  107.50   1-0.26412-0.21485 0.72522-0.65458-0.63583 0.72481
   5  -1  -2 1686.70  206.35   1 0.02433 0.45387-0.38318 0.31253-0.92335 0.83445
  -5   1   1 8544.32  425.44   1-0.16223-0.30619 0.82936-0.75558-0.53463 0.57908
   5  -1  -1 9312.79  533.30   1 0.09398 0.37358-0.38142 0.30744-0.91961 0.87516
  -5   1   0 2546.88  185.96   1-0.08521-0.37224 0.88793-0.81063-0.45199 0.45199
   5  -1   0 2679.75  245.66   1 0.17117 0.28575-0.37726 0.29995-0.91014 0.91014
  -5   1  -1 1181.31  137.88   1-0.02784-0.41895 0.92170-0.84097-0.38688 0.34240
   5  -1   1 1250.47  160.00   1 0.25507 0.19139-0.36881 0.28814-0.89381 0.93826
  -5   1  -214049.03  550.85   1 0.01456-0.45114 0.94187-0.85764-0.33566 0.24679
   5  -1   212139.05  379.93   1 0.34310 0.09267-0.35800 0.27388-0.86839 0.95728
  -5   1  -320850.67  803.09   1 0.04643-0.47236 0.95376-0.86607-0.29694 0.16365
   5  -1   319111.92  589.30   1 0.43318-0.00848-0.34273 0.25531-0.83359 0.96682
  -5   1  -445936.13 1264.28   1 0.06988-0.48515 0.96091-0.86976-0.26786 0.09014
   5  -1   440367.35 1018.31   1 0.52176-0.10697-0.32317 0.23138-0.78950 0.96696
  -5   1  -5 4539.99  426.65   1 0.08675-0.49136 0.96522-0.87060-0.24662 0.02447
  -5   1  -6 3463.79  769.86   1 0.09839-0.49235 0.96777-0.86969-0.23180-0.03477
  -5   1  -713438.26  553.38   1 0.10582-0.48913 0.96922-0.86768-0.22228-0.08873
  -5   1  -8 4800.06  775.22   1 0.10901-0.48192 0.97016-0.86513-0.21655-0.13885
  -5   1  -9  865.24  203.58   1 0.11008-0.47235 0.97035-0.86184-0.21517-0.18466
  -5   1 -10 2100.72  416.71   1 0.10873-0.46036 0.97011-0.85812-0.21691-0.22734
  -5   1 -11 2062.81  487.06   1 0.10529-0.44627 0.96949-0.85402-0.22134-0.26735
  -5   1 -12 6688.95  966.51   1 0.10090-0.43094 0.96827-0.84942-0.22859-0.30457
  -5   1 -13 6155.08  927.90   1 0.09407-0.41345 0.96686-0.84454-0.23732-0.34027
  -5   1 -14  -10.93   72.97   1 0.08581-0.39454 0.96500-0.83921-0.24781-0.37422
  -5   1 -15  136.42   95.71   1 0.07627-0.37434 0.96263-0.83338-0.25985-0.40660
  -5   1 -16  148.43   93.63   1 0.06554-0.35296 0.95969-0.82699-0.27328-0.43760
  -5   1 -17  459.34  215.95   1 0.05372-0.33049 0.95613-0.81996-0.28795-0.46736
  -5   1 -18  900.53  276.81   1 0.04089-0.30700 0.95187-0.81223-0.30375-0.49599
  -5   1 -19  922.67  291.72   1 0.02708-0.28254 0.94683-0.80374-0.32057-0.52361
   5   0 -15  227.83  189.96   1-0.26481 0.87818-0.37107 0.42265-0.89004 0.22394
   5   0 -14   80.55  137.02   1-0.26456 0.86728-0.37109 0.41924-0.89010 0.26841
   5   0 -13  202.07  136.30   1-0.26144 0.85351-0.37141 0.41611-0.89089 0.31361
   5   0 -12  661.22  216.07   1-0.25516 0.83658-0.37203 0.41330-0.89245 0.35957
   5   0 -11  796.66  239.77   1-0.24538 0.81617-0.37297 0.41080-0.89480 0.40632
   5   0 -10 2247.35  315.04   1-0.23173 0.79186-0.37422 0.40861-0.89791 0.45385
   5   0  -9  147.20  176.61   1-0.21373 0.76322-0.37575 0.40669-0.90173 0.50207
   5   0  -8 2707.33  314.21   1-0.19089 0.72973-0.37749 0.40500-0.90612 0.55086
   5   0  -751443.34 2647.58   1-0.16263 0.69083-0.37935 0.40342-0.91084 0.59999
   5   0  -613523.01  638.97   1-0.12908 0.64688-0.38052 0.40056-0.91571 0.64891
   5   0  -533858.64 1173.04   1-0.08803 0.59524-0.38214 0.39885-0.91989 0.69756
   5   0  -414381.69  590.00   1-0.03982 0.53647-0.38321 0.39658-0.92279 0.74492
  -5   0   3 2853.09  132.78   1-0.48922 0.00233 0.34276-0.35324-0.80197 0.93552
   5   0  -3 3522.70  269.55   1 0.01590 0.47016-0.38334 0.39336-0.92346 0.79006
  -5   0   213115.20  272.41   1-0.39367-0.08296 0.53901-0.54599-0.74463 0.83367
  -5   0   1 2626.33  179.40   1-0.30421-0.16151 0.67523-0.67868-0.67194 0.71644
   5   0  -1 2732.07  253.88   1 0.14993 0.31489-0.37864 0.38197-0.91331 0.86886
  -5   0   0 1432.20  122.21   1-0.22758-0.22758 0.76578-0.76578-0.60147 0.60147
   5   0   0 1414.95  162.31   1 0.22716 0.22716-0.37154 0.37154-0.90019 0.90019
  -5   0  -1 9565.44  492.23   1-0.16461-0.28005 0.82730-0.82393-0.53709 0.49264
   5   0   1 8694.22  498.46   1 0.30931 0.13432-0.36256 0.35910-0.87913 0.92357
  -5   0  -229001.45  736.67   1-0.11367-0.32029 0.86807-0.86134-0.48323 0.39434
   5   0   224936.21  719.42   1 0.39446 0.03815-0.34957 0.34279-0.84981 0.93863
  -5   0  -3 6890.18  395.01   1-0.07278-0.35036 0.89594-0.88565-0.43815 0.30472
   5   0   3 5733.28  359.65   1 0.48025-0.05837-0.33335 0.32318-0.81131 0.94453
  -5   0  -410671.59  561.31   1-0.04099-0.37149 0.91468-0.90096-0.40208 0.22416
   5   0   4 8044.18  453.60   1 0.56284-0.15072-0.31292 0.29830-0.76503 0.94249
  -5   0  -513124.83  384.36   1-0.01647-0.38536 0.92744-0.91029-0.37360 0.15121
  -5   0  -6 1499.76  347.68   1 0.00155-0.39327 0.93630-0.91552-0.35119 0.08461
  -5   0  -7 5194.18  666.59   1 0.01512-0.39618 0.94209-0.91785-0.33499 0.02397
  -5   0  -8  339.85   89.18   1 0.02453-0.39494 0.94585-0.91815-0.32364-0.03179
  -5   0  -9  354.13  117.54   1 0.03045-0.39020 0.94811-0.91694-0.31648-0.08339
  -5   0 -1019251.24  801.72   1 0.03339-0.38249 0.94919-0.91456-0.31290-0.13140
  -5   0 -11 1262.61  468.92   1 0.03378-0.37222 0.94933-0.91124-0.31243-0.17630
  -5   0 -12  104.66   88.83   1 0.03194-0.35974 0.94866-0.90710-0.31466-0.21850
  -5   0 -13 7315.29  683.19   1 0.02817-0.34530 0.94725-0.90222-0.31925-0.25834
  -5   0 -14  -20.80   60.73   1 0.02266-0.32915 0.94512-0.89664-0.32591-0.29612
  -5   0 -15 1725.98  387.92   1 0.01561-0.31145 0.94230-0.89035-0.33439-0.33206
  -5   0 -16 3186.65  563.73   1 0.00717-0.29234 0.93875-0.88334-0.34451-0.36638
  -5   0 -17  158.64   86.75   1-0.00241-0.27153 0.93409-0.87577-0.35702-0.39910
  -5   0 -18  132.32  134.91   1-0.01335-0.24993 0.92895-0.86721-0.36994-0.43066
  -5   0 -19  160.16  147.42   1-0.02540-0.22722 0.92296-0.85779-0.38404-0.46104
   5   1 -15  -37.50  125.45   1-0.22092 0.83139-0.37515 0.50393-0.90025 0.23415
   5   1 -14 -105.08  122.31   1-0.21972 0.81955-0.37525 0.50059-0.90050 0.27880
   5   1 -13  965.70  243.14   1-0.21545 0.80463-0.37561 0.49751-0.90138 0.32409
   5   1 -12 1757.72  298.76   1-0.20782 0.78635-0.37622 0.49468-0.90292 0.37004
   5   1 -11   99.94  103.42   1-0.19647 0.76436-0.37708 0.49211-0.90509 0.41662
   5   1 -10  392.93  175.83   1-0.18101 0.73825-0.37818 0.48976-0.90786 0.46379
   5   1  -9 1342.22  232.34   1-0.16099 0.70758-0.37945 0.48760-0.91109 0.51143
   5   1  -8 1896.52  245.20   1-0.13688 0.67314-0.38014 0.48413-0.91474 0.55900
   5   1  -711908.74  765.89   1-0.10603 0.63172-0.38151 0.48216-0.91825 0.60699
   5   1  -619234.12  778.01   1-0.06905 0.58416-0.38267 0.47998-0.92129 0.65449
  -5  -1   5  127.75   50.40   1-0.61020 0.10473-0.20249 0.10816-0.76592 0.98860
   5   1  -5  407.81  132.48   1-0.02543 0.52997-0.38336 0.47733-0.92324 0.70091
  -5  -1   4 2506.32  136.60   1-0.58277 0.08787 0.01740-0.10843-0.81244 0.99021
   5   1  -4 3140.96  256.97   1 0.02533 0.46869-0.38316 0.47380-0.92333 0.74554
  -5  -1   3 4866.97  219.81   1-0.53393 0.04977 0.21883-0.30674-0.81671 0.95048
   5   1  -3 6004.33  338.85   1 0.08301 0.40037-0.38182 0.46912-0.92049 0.78715
  -5  -1   2   71.37   46.14   1-0.47069-0.00285 0.38630-0.47074-0.79323 0.88226
   5   1  -2  203.32  151.10   1 0.14767 0.32507-0.37878 0.46275-0.91362 0.82473
  -5  -1   1   33.73   48.61   1-0.40413-0.05924 0.52079-0.60175-0.75196 0.79648
   5   1  -1   94.87  116.05   1 0.21852 0.24368-0.37232 0.45299-0.90201 0.85756
  -5  -1   0  292.98   78.65   1-0.34002-0.11267 0.62582-0.70326-0.70194 0.70194
   5   1   0  296.87   97.98   1 0.29467 0.15684-0.36437 0.44158-0.88340 0.88340
  -5  -1  -123618.36  633.42   1-0.28186-0.16021 0.70395-0.77804-0.65192 0.60743
   5   1   121731.13  656.26   1 0.37430 0.06624-0.35284 0.42670-0.85755 0.90196
  -5  -1  -2  282.10   97.24   1-0.23079-0.20058 0.76239-0.83303-0.60455 0.51558
   5   1   2  261.21  118.59   1 0.45549-0.02568-0.33843 0.40890-0.82340 0.91221
  -5  -1  -337329.00  920.97   1-0.18774-0.23315 0.80646-0.87351-0.56067 0.42734
   5   1   331707.00  852.25   1 0.53460-0.11458-0.32008 0.38628-0.78214 0.91523
  -5  -1  -4 1096.75  156.62   1-0.15171-0.25848 0.83828-0.90195-0.52370 0.34591
  -5  -1  -539777.38  999.96   1-0.12224-0.27726 0.86170-0.92200-0.49246 0.27023
  -5  -1  -6 4314.31  328.35   1-0.09828-0.29056 0.87909-0.93581-0.46640 0.19953
  -5  -1  -7 6722.11  424.12   1-0.07963-0.29855 0.89158-0.94487-0.44580 0.13445
  -5  -1  -8 8637.96  440.69   1-0.06540-0.30213 0.90052-0.95038-0.42985 0.07403
  -5  -1  -9 3310.07  374.97   1-0.05499-0.30188 0.90674-0.95317-0.41807 0.01777
  -5  -1 -1069903.70 1037.43   1-0.04790-0.29832 0.91083-0.95383-0.40999-0.03479
  -5  -1 -11  626.72  191.13   1-0.04370-0.29185 0.91318-0.95275-0.40518-0.08407
  -5  -1 -12 8835.36  609.05   1-0.04204-0.28285 0.91410-0.95024-0.40328-0.13045
  -5  -1 -13    3.05  110.19   1-0.04262-0.27162 0.91378-0.94649-0.40395-0.17426
  -5  -1 -14  843.04  176.66   1-0.04520-0.25838 0.91235-0.94163-0.40690-0.21579
  -5  -1 -15 2452.52  314.85   1-0.04956-0.24337 0.90988-0.93573-0.41189-0.25528
  -5  -1 -16 1483.80  258.40   1-0.05553-0.22674 0.90642-0.92884-0.41869-0.29296
  -5  -1 -17  913.57  223.32   1-0.06297-0.20864 0.90199-0.92098-0.42712-0.32901
  -5  -1 -18  667.93  260.52   1-0.07177-0.18919 0.89658-0.91214-0.43701-0.36359
  -5  -1 -19 2018.95  412.84   1-0.08182-0.16848 0.89016-0.90228-0.44823-0.39684
  -5  -1 -20  323.59  179.88   1-0.09306-0.14658 0.88268-0.89137-0.46066-0.42889
   5   2 -14   48.95  124.09   1-0.16325 0.76019-0.37931 0.58185-0.91074 0.28905
   5   2 -13 1585.35  320.77   1-0.15753 0.74381-0.37965 0.57875-0.91161 0.33433
   5   2 -12  816.48  230.37   1-0.14970 0.72559-0.37945 0.57407-0.91301 0.37941
   5   2 -11  357.77  176.03   1-0.13628 0.70160-0.38017 0.57144-0.91481 0.42568
   5   2 -10 3029.78  328.50   1-0.11851 0.67324-0.38100 0.56894-0.91694 0.47227
   5   2  -9  141.67  105.33   1-0.09593 0.64009-0.38188 0.56648-0.91921 0.51901
   5   2  -8  -35.64   82.91   1-0.06810 0.60168-0.38270 0.56395-0.92135 0.56562
   5   2  -7 9537.86  620.66   1-0.03453 0.55755-0.38328 0.56119-0.92298 0.61171
  -5  -2   6   49.37   69.90   1-0.61147 0.09821-0.34219 0.16714-0.71344 0.98102
   5   2  -6   58.11  126.56   1 0.00517 0.50726-0.38341 0.55798-0.92356 0.65675
  -5  -2   5   60.79   54.04   1-0.60903 0.10637-0.18368 0.01197-0.77158 0.99425
   5   2  -5   -1.58   84.19   1 0.05157 0.45036-0.38271 0.55398-0.92242 0.70018
  -5  -2   4  184.33   71.41   1-0.59028 0.09825-0.02389-0.14453-0.80684 0.98460
   5   2  -4  235.70  120.25   1 0.10431 0.38698-0.38100 0.54894-0.91867 0.74088
  -5  -2   3  566.31  100.98   1-0.55981 0.07830 0.13031-0.29564-0.81830 0.95208
   5   2  -3  600.42  155.45   1 0.16357 0.31708-0.37777 0.54239-0.91133 0.77799
  -5  -2   216373.56  550.02   1-0.51760 0.04671 0.26844-0.43034-0.81241 0.90145
   5   2  -217548.44  651.72   1 0.22843 0.24164-0.37142 0.53276-0.89992 0.81102
  -5  -2   1  425.01   93.84   1-0.46984 0.00963 0.38823-0.54663-0.79279 0.83731
   5   2  -1  562.30  128.92   1 0.29867 0.16070-0.36388 0.52177-0.88225 0.83781
  -5  -2   024918.02  682.04   1-0.42063-0.02946 0.49073-0.64567-0.76304 0.76304
   5   2   022844.50  685.81   1 0.37249 0.07597-0.35312 0.50762-0.85822 0.85822
  -5  -2  -1 3043.45  237.41   1-0.37283-0.06683 0.57581-0.72724-0.72762 0.68311
   5   2   1 2468.41  239.80   1 0.44838-0.01065-0.33983 0.49094-0.82672 0.87112
  -5  -2  -218931.78  576.55   1-0.32766-0.10131 0.64345-0.79142-0.69181 0.60280
   5   2   215604.73  522.90   1 0.52292-0.09500-0.32289 0.46992-0.78885 0.87758
   5   2   3 1150.69  149.22   1 0.59594-0.17859-0.30384 0.44721-0.74332 0.87641
  -5  -2  -4 5573.24  353.94   1-0.25122-0.15634 0.74002-0.88129-0.62389 0.44594
  -5  -2  -539618.00 1007.90   1-0.22019-0.17667 0.77348-0.91130-0.59433 0.37189
  -5  -2  -6 1521.50  189.41   1-0.19450-0.19192 0.80009-0.93417-0.56746 0.30078
  -5  -2  -728642.74  935.95   1-0.17290-0.20283 0.82000-0.95072-0.54560 0.23448
  -5  -2  -8 3686.22  293.67   1-0.15540-0.20963 0.83519-0.96253-0.52754 0.17198
  -5  -2  -9  221.60   97.39   1-0.14161-0.21272 0.84657-0.97054-0.51309 0.11308
  -5  -2 -1012155.68  556.40   1-0.13115-0.21248 0.85486-0.97546-0.50200 0.05754
  -5  -2 -11 7767.55  452.10   1-0.12368-0.20925 0.86060-0.97784-0.49401 0.00511
  -5  -2 -12 4420.86  388.34   1-0.11888-0.20336 0.86422-0.97809-0.48885-0.04449
  -5  -2 -13  856.95  180.70   1-0.11648-0.19506 0.86601-0.97651-0.48626-0.09152
  -5  -2 -14  166.44  166.67   1-0.11623-0.18461 0.86619-0.97332-0.48600-0.13623
  -5  -2 -15   59.68  112.48   1-0.11794-0.17221 0.86492-0.96868-0.48784-0.17884
  -5  -2 -16 1173.42  240.40   1-0.12141-0.15803 0.86232-0.96271-0.49158-0.21955
  -5  -2 -17  905.64  241.80   1-0.12651-0.14224 0.85845-0.95547-0.49704-0.25853
  -5  -2 -18   45.62  138.51   1-0.13309-0.12496 0.85334-0.94699-0.50407-0.29594
  -5  -2 -19   68.26  126.64   1-0.14107-0.10629 0.84700-0.93728-0.51252-0.33194
   5   3 -14   17.77  113.72   1-0.09537 0.68973-0.38190 0.66046-0.91926 0.29672
   5   3 -13   47.42  153.87   1-0.08777 0.67156-0.38215 0.65737-0.91991 0.34184
   5   3 -12  369.05  197.75   1-0.07631 0.64952-0.38249 0.65437-0.92080 0.38719
   5   3 -11  204.20  123.38   1-0.06063 0.62326-0.38286 0.65140-0.92181 0.43267
   5   3 -10  166.99  156.18   1-0.04037 0.59243-0.38321 0.64841-0.92277 0.47810
   5   3  -9   88.42  146.19   1-0.01513 0.55662-0.38342 0.64527-0.92344 0.52324
  -5  -3   8  364.77  116.87   1-0.58556 0.05366-0.54585 0.28711-0.59929 0.95639
   5   3  -8  185.15  141.75   1 0.01546 0.51544-0.38334 0.64186-0.92347 0.56773
  -5  -3   7 2885.71  196.12   1-0.60409 0.08272-0.43483 0.17942-0.66782 0.98028
   5   3  -7 3389.46  280.82   1 0.05211 0.46836-0.38270 0.63794-0.92239 0.61126
  -5  -3   6  491.08  114.76   1-0.61233 0.10184-0.31468 0.06228-0.72526 0.99284
   5   3  -6  316.48  110.06   1 0.09435 0.41548-0.38140 0.63332-0.91957 0.65289
  -5  -3   5 5776.47  265.52   1-0.60948 0.10964-0.19049-0.05858-0.76957 0.99224
   5   3  -5 5893.74  355.14   1 0.14269 0.35650-0.37907 0.62765-0.91429 0.69206
  -5  -3   4 7092.21  343.91   1-0.59669 0.10753-0.06493-0.18090-0.79983 0.97760
   5   3  -4 7881.68  433.84   1 0.19653 0.29210-0.37416 0.61963-0.90629 0.72850
  -5  -3   3 5589.85  294.00   1-0.57488 0.09630 0.05567-0.29810-0.81633 0.94966
   5   3  -3 5662.11  345.66   1 0.25625 0.22169-0.36869 0.61070-0.89353 0.76019
  -5  -3   2 3030.46  210.42   1-0.54798 0.07976 0.17295-0.41219-0.81841 0.90759
   5   3  -2 3166.67  233.17   1 0.32073 0.14651-0.36107 0.59963-0.87564 0.78674
  -5  -3   1 1504.01  162.01   1-0.51409 0.05655 0.27822-0.51408-0.81135 0.85587
   5   3  -1 1563.69  180.54   1 0.38861 0.06777-0.35054 0.58567-0.85211 0.80770
  -5  -3   0 1256.73  150.59   1-0.47710 0.03024 0.37164-0.60401-0.79640 0.79640
   5   3   0 1442.57  173.48   1 0.45873-0.01308-0.33778 0.56953-0.82186 0.82186
  -5  -3  -131630.39  847.01   1-0.43961 0.00277 0.45404-0.68295-0.77497 0.73045
   5   3   127751.70  787.69   1 0.52792-0.09210-0.32170 0.54955-0.78600 0.83036
  -5  -3  -226275.03  741.87   1-0.40232-0.02379 0.52398-0.74940-0.75071 0.66168
   5   3   222317.17  687.59   1 0.59618-0.17094-0.30377 0.52796-0.74315 0.83188
  -5  -3  -3 6495.25  403.70   1-0.36782-0.04812 0.58377-0.80573-0.72381 0.59031
  -5  -3  -414240.28  511.84   1-0.33521-0.07006 0.63276-0.85127-0.69802 0.52002
  -5  -3  -5 5300.64  309.79   1-0.30633-0.08814 0.67280-0.88817-0.67341 0.45097
  -5  -3  -6 4465.31  298.23   1-0.28040-0.10337 0.70574-0.91766-0.65061 0.38368
  -5  -3  -737045.67 1173.96   1-0.25795-0.11511 0.73236-0.94082-0.63015 0.31873
  -5  -3  -8 4034.01  308.80   1-0.23892-0.12344 0.75365-0.95865-0.61231 0.25640
  -5  -3  -9  225.54   96.74   1-0.22314-0.12852 0.77043-0.97198-0.59719 0.19679
  -5  -3 -1046723.07 1551.63   1-0.21111-0.13015 0.78388-0.98163-0.58391 0.13946
  -5  -3 -11 3273.55  351.33   1-0.20131-0.12925 0.79354-0.98793-0.57424 0.08534
  -5  -3 -12 2529.20  242.90   1-0.19411-0.12575 0.80047-0.99148-0.56706 0.03371
  -5  -3 -13  255.92  107.62   1-0.18929-0.11987 0.80501-0.99266-0.56223-0.01555
  -5  -3 -14 3284.39  366.51   1-0.18666-0.11181 0.80747-0.99175-0.55958-0.06265
  -5  -3 -15 1505.64  230.01   1-0.18604-0.10173 0.80805-0.98896-0.55896-0.10772
  -5  -3 -16 5245.07  376.43   1-0.18726-0.08981 0.80691-0.98445-0.56019-0.15093
  -5  -3 -17  -92.68  125.53   1-0.19019-0.07619 0.80417-0.97834-0.56313-0.19243
  -5  -3 -18   99.18  184.14   1-0.19470-0.06098 0.79991-0.97071-0.56765-0.23236
  -5  -3 -19  -16.45  124.57   1-0.20067-0.04431 0.79416-0.96159-0.57361-0.27085
   5   4 -12   48.59  105.51   1 0.01250 0.55802-0.38337 0.73251-0.92350 0.38990
   5   4 -11  283.62  154.11   1 0.03115 0.52916-0.38309 0.72897-0.92318 0.43426
   5   4 -10 2687.66  300.49   1 0.05395 0.49572-0.38266 0.72520-0.92231 0.47784
  -5  -4   9 1136.77  175.48   1-0.57325 0.03293-0.59333 0.25458-0.56509 0.96649
   5   4  -9  969.41  177.20   1 0.08181 0.45722-0.38186 0.72108-0.92058 0.52056
  -5  -4   8   32.07   74.30   1-0.59376 0.06455-0.50502 0.16890-0.62641 0.98351
  -5  -4   7 3305.07  252.35   1-0.60686 0.08859-0.40994 0.07679-0.68092 0.99310
   5   4  -7 4218.79  299.72   1 0.15370 0.36405-0.37841 0.71096-0.91278 0.60165
  -5  -4   6  560.33  134.20   1-0.61240 0.10468-0.31110-0.01864-0.72675 0.99433
   5   4  -6  401.24  138.45   1 0.19747 0.30972-0.37409 0.70368-0.90612 0.63944
  -5  -4   5 4062.18  317.84   1-0.61055 0.11352-0.20900-0.11744-0.76389 0.98656
   5   4  -5 4102.23  347.76   1 0.24697 0.24953-0.36964 0.69577-0.89575 0.67351
  -5  -4   421251.27 1144.42   1-0.60190 0.11546-0.10693-0.21612-0.79137 0.96951
   5   4  -419621.89 1081.86   1 0.30150 0.18431-0.36354 0.68622-0.88143 0.70365
  -5  -4   329624.11  996.04   1-0.58710 0.11139-0.00568-0.31414-0.80949 0.94281
   5   4  -326509.92  931.96   1 0.36031 0.11480-0.35548 0.67471-0.86243 0.72909
  -5  -4   2 2514.02  212.81   1-0.56910 0.10353 0.09348-0.41015-0.81693 0.90612
   5   4  -2 2272.86  225.07   1 0.42212 0.04219-0.34476 0.66053-0.83842 0.74960
  -5  -4   1 8493.44  403.83   1-0.54460 0.08967 0.18443-0.49760-0.81816 0.86275
   5   4  -1 6417.84  342.54   1 0.48611-0.03253-0.33209 0.64448-0.80833 0.76392
  -5  -4   0 4180.74  278.71   1-0.51753 0.07333 0.26864-0.57847-0.81239 0.81239
   5   4   0 3267.84  235.30   1 0.54933-0.10560-0.31641 0.62508-0.77338 0.77338
  -5  -4  -1 1849.78  183.62   1-0.48847 0.05495 0.34461-0.65095-0.80164 0.75712
  -5  -4  -2 3606.91  249.31   1-0.45944 0.03586 0.41295-0.71584-0.78636 0.69733
  -5  -4  -3    2.71   84.71   1-0.43030 0.01745 0.47235-0.77175-0.76923 0.63568
  -5  -4  -4 9806.60  470.89   1-0.40239 0.00027 0.52386-0.81976-0.75076 0.57269
  -5  -4  -5  700.12  166.36   1-0.37743-0.01480 0.56840-0.86089-0.73107 0.50856
  -5  -4  -638644.42 1204.23   1-0.35365-0.02790 0.60564-0.89468-0.71283 0.44582
  -5  -4  -7 7924.35  426.23   1-0.33233-0.03854 0.63687-0.92246-0.69566 0.38415
  -5  -4  -8 5154.58  321.48   1-0.31359-0.04660 0.66277-0.94491-0.67998 0.32397
  -5  -4  -9 1110.60  182.06   1-0.29808-0.05119 0.68355-0.96264-0.66625 0.26586
  -5  -4 -10 1216.18  230.86   1-0.28450-0.05406 0.70069-0.97633-0.65428 0.20940
  -5  -4 -11 3069.45  382.19   1-0.27339-0.05447 0.71423-0.98642-0.64429 0.15492
  -5  -4 -12 8947.69  452.53   1-0.26463-0.05252 0.72461-0.99334-0.63631 0.10245
  -5  -4 -13  462.32  219.62   1-0.25810-0.04836 0.73220-0.99747-0.63028 0.05194
  -5  -4 -14  297.71  120.73   1-0.25365-0.04211 0.73728-0.99910-0.62615 0.00332
  -5  -4 -15 2771.00  308.35   1-0.25115-0.03391 0.74011-0.99847-0.62382-0.04349
  -5  -4 -16  141.21  134.32   1-0.25047-0.02388 0.74086-0.99577-0.62319-0.08861
  -5  -4 -17 1617.42  359.25   1-0.25151-0.01214 0.73970-0.99115-0.62416-0.13213
  -5  -4 -18  -33.14  129.54   1-0.25415 0.00119 0.73671-0.98471-0.62662-0.17416
  -5  -4 -19   68.26  139.50   1-0.25829 0.01603 0.73198-0.97652-0.63046-0.21480
   5   5 -10 1389.61  260.28   1 0.16471 0.38223-0.37770 0.79756-0.91115 0.46668
  -5  -5   9   98.37  147.52   1-0.58132 0.04426-0.56412 0.14731-0.58635 0.98809
   5   5  -9  272.39  146.33   1 0.19461 0.34184-0.37432 0.79150-0.90664 0.50662
  -5  -5   8   33.66   81.75   1-0.59687 0.07034-0.48688 0.07340-0.63771 0.99481
   5   5  -8  202.98  152.79   1 0.22964 0.29611-0.37131 0.78503-0.89965 0.54408
  -5  -5   7  170.46   92.83   1-0.60734 0.09183-0.40478-0.00572-0.68357 0.99575
   5   5  -7   55.10   84.50   1 0.26972 0.24534-0.36725 0.77751-0.89015 0.57902
  -5  -5   6  131.47  147.42   1-0.61220 0.10723-0.32042-0.08668-0.72286 0.99044
   5   5  -6   80.74  115.92   1 0.31464 0.18972-0.36187 0.76868-0.87751 0.61084
  -5  -5   5 2121.31  224.01   1-0.61163 0.11742-0.23391-0.16991-0.75576 0.97843
   5   5  -5 1962.91  197.84   1 0.36349 0.13023-0.35451 0.75770-0.86150 0.63947
  -5  -5   4 3412.91  311.91   1-0.60614 0.12251-0.14751-0.25293-0.78155 0.95969
   5   5  -4 2837.68  276.39   1 0.41661 0.06636-0.34575 0.74555-0.84076 0.66313
  -5  -5   3 1468.72  199.09   1-0.59618 0.12334-0.06142-0.33581-0.80049 0.93381
   5   5  -3 1448.40  202.17   1 0.47251-0.00026-0.33497 0.73138-0.81518 0.68196
  -5  -5   2 8043.69  537.26   1-0.58199 0.11973 0.02141-0.41525-0.81290 0.90179
   5   5  -2 6785.59  475.46   1 0.52942-0.06722-0.32134 0.71448-0.78514 0.69641
  -5  -5   1 3285.83  265.24   1-0.56672 0.11445 0.10322-0.49380-0.81741 0.86200
   5   5  -1 2403.50  233.26   1 0.58662-0.13499-0.30647 0.69597-0.74963 0.70526
  -5  -5   0 1212.37  189.40   1-0.54650 0.10485 0.17803-0.56512-0.81831 0.81831
  -5  -5  -1  -26.44   93.58   1-0.52491 0.09406 0.24742-0.63121-0.81439 0.76988
  -5  -5  -2  185.85  104.59   1-0.50191 0.08174 0.31081-0.69112-0.80713 0.71810
  -5  -5  -3 3191.06  257.00   1-0.47862 0.06913 0.36809-0.74490-0.79713 0.66358
  -5  -5  -414770.08  629.16   1-0.45632 0.05674 0.41961-0.79298-0.78465 0.60658
  -5  -5  -5  860.60  184.20   1-0.43427 0.04541 0.46462-0.83450-0.77170 0.54911
  -5  -5  -616316.59  680.47   1-0.41351 0.03537 0.50391-0.87030-0.75833 0.49123
  -5  -5  -711526.15  610.76   1-0.39435 0.02695 0.53784-0.90075-0.74511 0.43349
  -5  -5  -817015.43  985.63   1-0.37834 0.02049 0.56692-0.92649-0.73174 0.37573
  -5  -5  -9  342.50  131.96   1-0.36302 0.01585 0.59128-0.94741-0.72013 0.31962
  -5  -5 -10 2375.16  277.57   1-0.34970 0.01321 0.61156-0.96424-0.70971 0.26469
  -5  -5 -11  333.82  120.47   1-0.33841 0.01260 0.62815-0.97737-0.70063 0.21112
  -5  -5 -12 1769.53  279.29   1-0.32912 0.01398 0.64141-0.98717-0.69301 0.15900
  -5  -5 -13 6518.27  565.36   1-0.32177 0.01731 0.65164-0.99395-0.68689 0.10837
  -5  -5 -14  415.79  173.69   1-0.31629 0.02252 0.65912-0.99798-0.68228 0.05926
  -5  -5 -15  782.83  245.90   1-0.31262 0.02952 0.66408-0.99949-0.67916 0.01164
  -5  -5 -16 4891.24  749.56   1-0.31065 0.03823 0.66671-0.99867-0.67748-0.03453
  -5  -5 -17   64.61  137.88   1-0.31032 0.04858 0.66715-0.99566-0.67719-0.07932
  -5  -5 -18   81.27  130.06   1-0.31154 0.06047 0.66553-0.99058-0.67823-0.12278
  -5  -6   9   78.64  116.06   1-0.58430 0.04993-0.55147 0.05729-0.59536 0.99710
  -5  -6   8   -6.99   83.72   1-0.59751 0.07368-0.48289-0.00795-0.64014 0.99725
  -5  -6   7  855.22  185.95   1-0.60677 0.09402-0.41092-0.07692-0.68041 0.99259
   5   6  -7  916.32  167.63   1 0.39936 0.11302-0.34875 0.83596-0.84786 0.53701
  -5  -6   6 2242.73  271.14   1-0.61165 0.10945-0.33755-0.14690-0.71549 0.98307
   5   6  -6 2114.32  233.95   1 0.44326 0.05838-0.34082 0.82464-0.82906 0.56262
  -5  -6   5   59.78  100.64   1-0.61236 0.12096-0.26272-0.21848-0.74564 0.96831
   5   6  -5   81.71  107.94   1 0.49025 0.00065-0.33120 0.81163-0.80619 0.58416
  -5  -6   4 6221.22  379.08   1-0.60932 0.12851-0.18805-0.28975-0.77029 0.94843
   5   6  -4 4756.02  300.03   1 0.53954-0.05887-0.31886 0.79648-0.77923 0.60178
  -5  -6   3 6503.90  380.87   1-0.60272 0.13249-0.11407-0.36035-0.78975 0.92335
   5   6  -3 5354.08  311.72   1 0.58933-0.11923-0.30571 0.77968-0.74780 0.61471
  -5  -6   2 1613.72  238.62   1-0.59313 0.13374-0.04134-0.42988-0.80403 0.89292
  -5  -6   1 2323.17  236.41   1-0.58060 0.13179 0.02839-0.49622-0.81368 0.85813
  -5  -6   0 2274.14  245.24   1-0.56818 0.12920 0.09727-0.56178-0.81713 0.81713
  -5  -6  -1 2821.57  320.04   1-0.55167 0.12332 0.16010-0.62111-0.81854 0.77395
  -5  -6  -220877.49 1190.78   1-0.53400 0.11628 0.21862-0.67613-0.81672 0.72753
  -5  -6  -348035.10 2481.78   1-0.51627 0.10945 0.27215-0.72642-0.81202 0.67847
  -5  -6  -4 4577.94  398.32   1-0.49789 0.10174 0.32115-0.77193-0.80558 0.62750
  -5  -6  -5 4220.75  412.16   1-0.47980 0.09433 0.36533-0.81262-0.79769 0.57510
  -5  -6  -616779.42  983.69   1-0.46309 0.08749 0.40505-0.84891-0.78833 0.52123
  -5  -6  -7  -14.78  114.44   1-0.44664 0.08178 0.43981-0.88019-0.77914 0.46752
  -5  -6  -813904.18  548.10   1-0.43141 0.07727 0.47020-0.90708-0.76992 0.41378
  -5  -6  -9 5544.86  387.82   1-0.41756 0.07414 0.49646-0.92985-0.76102 0.36037
  -5  -6 -10 4338.93  354.09   1-0.40521 0.07252 0.51886-0.94876-0.75271 0.30753
  -5  -6 -11 3265.33  384.83   1-0.39445 0.07249 0.53767-0.96408-0.74519 0.25549
  -5  -6 -12 5058.12  388.10   1-0.38680 0.07403 0.55296-0.97617-0.73797 0.20395
  -5  -6 -13  683.18  176.93   1-0.37934 0.07724 0.56529-0.98505-0.73248 0.15397
  -5  -6 -14   87.49  157.21   1-0.37348 0.08206 0.57476-0.99107-0.72811 0.10509
  -5  -6 -15 1585.48  324.42   1-0.36921 0.08847 0.58157-0.99442-0.72488 0.05736
  -5  -6 -16    9.57  146.00   1-0.36647 0.09641 0.58588-0.99528-0.72279 0.01077
  -5  -6 -17 3294.26  575.24   1-0.36523 0.10585 0.58783-0.99377-0.72184-0.03467
  -5  -7   9    8.79   94.78   1-0.58470 0.05302-0.54969-0.02185-0.59661 0.99835
  -5  -7   8  406.16  163.39   1-0.59663 0.07549-0.48832-0.07990-0.63683 0.99393
  -5  -7   7    2.10   91.69   1-0.60539 0.09541-0.42450-0.14069-0.67326 0.98544
  -5  -7   6    4.76  115.05   1-0.61061 0.11118-0.35980-0.20201-0.70547 0.97305
  -5  -7   5 1901.31  288.94   1-0.61262 0.12373-0.29430-0.26411-0.73353 0.95652
  -5  -7   4  145.32  128.22   1-0.61144 0.13344-0.22858-0.32660-0.75755 0.93569
  -5  -7   3  950.43  200.62   1-0.60753 0.14011-0.16360-0.38819-0.77726 0.91086
  -5  -7   2  107.60  137.12   1-0.60129 0.14476-0.09955-0.44908-0.79280 0.88168
  -5  -7   1 4021.08  387.47   1-0.59256 0.14661-0.03772-0.50750-0.80464 0.84908
  -5  -7   0 5552.32  403.73   1-0.58192 0.14656 0.02176-0.56358-0.81294 0.81294
  -5  -7  -125560.41  757.79   1-0.57214 0.14645 0.08060-0.61903-0.81618 0.77158
  -5  -7  -2 1702.60  245.41   1-0.55881 0.14374 0.13410-0.66903-0.81838 0.72919
  -5  -7  -3  227.79  191.65   1-0.54471 0.14028 0.18404-0.71548-0.81817 0.68439
  -5  -7  -414603.91  587.22   1-0.53083 0.13735 0.22973-0.75796-0.81574 0.63767
  -5  -7  -5  218.66  126.64   1-0.51635 0.13355 0.27193-0.79667-0.81205 0.58946
  -5  -7  -6  562.99  171.07   1-0.50214 0.13001 0.31023-0.83148-0.80722 0.54011
  -5  -7  -7 2456.54  344.73   1-0.48845 0.12701 0.34465-0.86241-0.80163 0.49001
  -5  -7  -8  593.20  196.71   1-0.47553 0.12477 0.37527-0.88953-0.79563 0.43949
  -5  -7  -9 1253.15  263.05   1-0.46432 0.12345 0.40235-0.91321-0.78899 0.38833
  -5  -7 -10   52.77  132.46   1-0.45344 0.12329 0.42571-0.93308-0.78304 0.33786
  -5  -7 -11 2852.61  318.66   1-0.44375 0.12433 0.44572-0.94960-0.77744 0.28774
  -5  -7 -12   93.41  121.51   1-0.43532 0.12663 0.46254-0.96293-0.77235 0.23814
  -5  -7 -13 1952.04  374.58   1-0.42822 0.13025 0.47636-0.97326-0.76792 0.18919
  -5  -7 -14  388.49  203.36   1-0.42245 0.13521 0.48732-0.98073-0.76422 0.14098
  -5  -7 -15  270.22  222.90   1-0.41803 0.14152 0.49558-0.98550-0.76134 0.09357
  -5  -7 -16 1172.75  330.89   1-0.41495 0.14917 0.50126-0.98769-0.75930 0.04702
  -5  -8   8  794.74  237.98   1-0.59459 0.07614-0.50035-0.14523-0.62936 0.98646
  -5  -8   7 1449.92  329.74   1-0.60304 0.09512-0.44361-0.19864-0.66297 0.97544
  -5  -8   6 2451.83  448.20   1-0.60893 0.11226-0.38558-0.25358-0.69319 0.96077
  -5  -8   5 1032.55  259.14   1-0.61200 0.12587-0.32738-0.30839-0.71990 0.94289
  -5  -8   4  -10.42  131.74   1-0.61245 0.13726-0.26909-0.36347-0.74329 0.92143
  -5  -8   3 2560.00  351.11   1-0.61067 0.14607-0.21141-0.41775-0.76313 0.89673
  -5  -8   2    2.89  133.45   1-0.60678 0.15276-0.15467-0.47111-0.77967 0.86874
  -5  -8   1 1915.66  317.86   1-0.60126 0.15818-0.09928-0.52335-0.79286 0.83730
  -5  -8   0  229.51  194.90   1-0.59384 0.16135-0.04588-0.57334-0.80326 0.80326
  -5  -8  -1  -48.38  139.78   1-0.58508 0.16316 0.00533-0.62115-0.81095 0.76651
  -5  -8  -2  119.03  145.68   1-0.57524 0.16390 0.05403-0.66644-0.81619 0.72730
  -5  -8  -314245.89  974.53   1-0.56701 0.16523 0.10206-0.71092-0.81736 0.68358
  -5  -8  -4   70.64  144.03   1-0.55586 0.16472 0.14502-0.75038-0.81852 0.64015
  -5  -8  -5 1004.65  247.73   1-0.54448 0.16397 0.18481-0.78667-0.81815 0.59519
  -5  -8  -6 2769.79  297.52   1-0.53312 0.16324 0.22135-0.81972-0.81656 0.54900
  -5  -8  -7  -21.83  122.44   1-0.52271 0.16393 0.25384-0.84906-0.81383 0.50221
  -5  -8  -8 3616.28  391.10   1-0.51207 0.16398 0.28376-0.87548-0.81071 0.45456
  -5  -8  -913867.47  667.49   1-0.50205 0.16464 0.31044-0.89867-0.80719 0.40653
  -5  -8 -10 2130.62  331.47   1-0.49279 0.16606 0.33397-0.91871-0.80350 0.35832
  -5  -8 -11  203.42  148.39   1-0.48441 0.16835 0.35441-0.93566-0.79983 0.31013
  -5  -8 -12 2466.87  431.42   1-0.47699 0.17161 0.37189-0.94964-0.79634 0.26213
  -5  -8 -13 -187.95  146.16   1-0.47061 0.17591 0.38649-0.96076-0.79318 0.21445
  -5  -8 -14  299.95  206.09   1-0.46617 0.18147 0.39828-0.96915-0.78996 0.16672
  -5  -8 -15 1526.60  380.35   1-0.46200 0.18802 0.40742-0.97480-0.78775 0.11999
  -5  -9   6  -76.90  135.41   1-0.60648 0.11257-0.41390-0.30261-0.67886 0.94644
  -5  -9   5  141.37  133.27   1-0.61050 0.12714-0.36173-0.35138-0.70457 0.92755
  -5  -9   4  130.65  116.97   1-0.61243 0.13961-0.30959-0.40013-0.72737 0.90575
  -5  -9   3   17.83  139.40   1-0.61228 0.15049-0.25796-0.44859-0.74737 0.88097
  -5  -9   2   83.46  147.01   1-0.61045 0.15925-0.20710-0.49605-0.76449 0.85356
  -5  -9   1  683.44  221.44   1-0.60701 0.16640-0.15738-0.54238-0.77895 0.82348
  -5  -9   0   33.59  130.81   1-0.60244 0.17281-0.10925-0.58737-0.79064 0.79064
  -5  -9  -1 1219.35  306.84   1-0.59639 0.17735-0.06287-0.63035-0.80022 0.75577
  -5  -9  -2  412.90  198.59   1-0.58936 0.18089-0.01851-0.67130-0.80765 0.71876
  -5  -9  -3  546.31  209.02   1-0.58156 0.18367 0.02358-0.70999-0.81315 0.67983
  -5  -9  -4   90.88  128.77   1-0.57563 0.18715 0.06525-0.74803-0.81509 0.63672
  -5  -9  -5   27.19  128.03   1-0.56694 0.18909 0.10233-0.78161-0.81737 0.59441
  -5  -9  -6  300.75  165.74   1-0.55812 0.19089 0.13668-0.81246-0.81842 0.55086
  -5  -9  -7  328.84  185.64   1-0.54935 0.19275 0.16823-0.84051-0.81847 0.50633
  -5  -9  -8 2839.65  507.55   1-0.54081 0.19485 0.19694-0.86573-0.81776 0.46101
  -5  -9  -9  924.59  257.13   1-0.53266 0.19732 0.22280-0.88809-0.81647 0.41514
  -5  -9 -10  915.39  258.97   1-0.52576 0.20169 0.24490-0.90710-0.81460 0.36942
  -5  -9 -11  348.01  177.98   1-0.51877 0.20538 0.26511-0.92382-0.81276 0.32306
  -5  -9 -12   89.95  153.91   1-0.51251 0.20979 0.28257-0.93779-0.81085 0.27663
  -5  -9 -13  125.70  215.71   1-0.50703 0.21500 0.29735-0.94907-0.80900 0.23027
  -5 -10   3 4850.69  763.78   1-0.61253 0.15301-0.30343-0.48026-0.72988 0.86367
  -5 -10   2  116.15  202.19   1-0.61228 0.16389-0.25770-0.52283-0.74746 0.83653
  -5 -10   1  225.36  194.58   1-0.61074 0.17294-0.21281-0.56433-0.76269 0.80722
  -5 -10   0 2708.32  577.15   1-0.60797 0.18075-0.16913-0.60461-0.77573 0.77573
  -5 -10  -1  269.23  215.42   1-0.60412 0.18749-0.12692-0.64343-0.78671 0.74218
  -5 -10  -2   63.95  146.49   1-0.59968 0.19408-0.08678-0.68044-0.79551 0.70663
  -5 -10  -3 3628.67  603.24   1-0.59421 0.19919-0.04824-0.71557-0.80285 0.66953
  -5 -10  -4  863.71  255.06   1-0.58818 0.20374-0.01175-0.74865-0.80863 0.63087
  -5 -10  -5   24.55  137.28   1-0.58177 0.20791 0.02254-0.77954-0.81303 0.59082
  -5 -10  -6 8093.49 1180.50   1-0.57513 0.21185 0.05453-0.80812-0.81623 0.54958
  -5 -10  -7  222.19  248.86   1-0.57086 0.21692 0.08608-0.83579-0.81652 0.50437
  -5 -10  -8   10.34  136.00   1-0.56423 0.22092 0.11320-0.85941-0.81781 0.46107
  -5 -10  -9 5655.66  875.01   1-0.55781 0.22514 0.13781-0.88052-0.81844 0.41710
  -5 -10 -10   44.15  162.53   1-0.55173 0.22968 0.15988-0.89910-0.81854 0.37262
   6  -9   2  197.38  124.03   1-0.38915 0.93730-0.89967 0.19800-0.19782 0.28678
   6  -9   3  364.61  198.77   1-0.38674 0.92428-0.90161 0.19663-0.19371 0.32715
   6  -9   4  970.37  281.04   1-0.38301 0.90995-0.90453 0.19625-0.18740 0.36533
   6  -9   5   14.59  127.32   1-0.37813 0.89445-0.90824 0.19666-0.17916 0.40158
   6  -9   6  380.51  207.07   1-0.37218 0.87790-0.91260 0.19772-0.16921 0.43611
   6  -8  -6 4367.35  691.22   1-0.09632 0.72640-0.38187-0.21618-0.91918 0.65237
   6  -8  -5   55.52  114.10   1-0.06093 0.68044-0.38286-0.21853-0.92179 0.69945
   6  -8  -4  122.60  151.23   1-0.01975 0.62867-0.38340-0.22133-0.92337 0.74550
   6  -8  -3  270.69  182.84   1 0.02848 0.57031-0.38312-0.22534-0.92325 0.78991
   6  -8  -2  170.99  134.08   1 0.08267 0.50547-0.38183-0.22996-0.92052 0.83163
   6  -8  -1    3.73   79.77   1 0.14403 0.43348-0.37899-0.23614-0.91412 0.86967
   6  -8   1   49.80  140.93   1-0.37581 0.93181-0.90996 0.28882-0.17528 0.21976
   6  -8   2  -80.21  104.25   1-0.37582 0.92122-0.90995 0.28551-0.17529 0.26426
   6  -8   3 1331.73  302.07   1-0.37410 0.90889-0.91121 0.28346-0.17242 0.30587
   6  -8   4   53.77  124.77   1-0.37090 0.89508-0.91351 0.28246-0.16708 0.34501
   6  -8   5  712.63  201.86   1-0.36640 0.87997-0.91666 0.28231-0.15960 0.38202
   6  -8   6 3173.97  550.64   1-0.36074 0.86370-0.92047 0.28283-0.15025 0.41715
   6  -8   7   60.08  128.70   1-0.35403 0.84638-0.92480 0.28385-0.13923 0.45061
   6  -8   8  639.43  240.30   1-0.34635 0.82809-0.92950 0.28525-0.12672 0.48259
   6  -8   9 3332.11  579.36   1-0.33776 0.80889-0.93443 0.28688-0.11286 0.51321
   6  -8  10  405.60  240.23   1-0.32832 0.78884-0.93949 0.28863-0.09777 0.54259
   6  -7  -8  554.87  228.21   1-0.17169 0.82153-0.37879-0.13407-0.90941 0.55416
   6  -7  -7  364.71  160.78   1-0.14859 0.78656-0.37952-0.13793-0.91317 0.60190
   6  -7  -6  793.97  248.72   1-0.11953 0.74693-0.38096-0.13983-0.91683 0.65002
   6  -7  -5 3502.93  564.99   1-0.08528 0.70210-0.38223-0.14190-0.92012 0.69778
   6  -7  -4 2924.40  493.16   1-0.04534 0.65159-0.38314-0.14433-0.92257 0.74470
   6  -7  -3  707.40  214.15   1 0.00077 0.59490-0.38342-0.14738-0.92356 0.79016
   6  -7  -2   20.53   98.15   1 0.05404 0.53138-0.38265-0.15183-0.92230 0.83341
   6  -7  -1  779.00  217.15   1 0.11365 0.46113-0.38058-0.15724-0.91773 0.87328
   6  -7   0  260.38  148.12   1-0.34873 0.91258-0.92807 0.38746-0.13059 0.13059
   6  -7   0  110.71  102.12   1 0.18035 0.38378-0.37661-0.16454-0.90864 0.90864
   6  -7   1  164.24  191.69   1-0.35300 0.90625-0.92545 0.38154-0.13755 0.18203
   6  -7   1  291.60  173.91   1 0.25560 0.29867-0.36876-0.17519-0.89369 0.93813
   6  -7   2   61.76  100.15   1-0.35467 0.89731-0.92440 0.37718-0.14028 0.22925
   6  -7   2  359.64  188.97   1 0.33551 0.20807-0.35907-0.18833-0.87091 0.95981
   6  -7   3  406.02  172.83   1-0.35423 0.88626-0.92468 0.37416-0.13956 0.27301
   6  -7   3  670.97  165.18   1 0.42084 0.11158-0.34499-0.20591-0.83896 0.97218
   6  -7   4 1498.07  258.75   1-0.35202 0.87344-0.92606 0.37224-0.13595 0.31388
   6  -7   4 1124.93  188.81   1 0.50922 0.01246-0.32696-0.22733-0.79610 0.97373
   6  -7   5 1338.86  250.19   1-0.34830 0.85911-0.92833 0.37122-0.12989 0.35230
   6  -7   6  106.82  139.15   1-0.34325 0.84345-0.93132 0.37090-0.12171 0.38860
   6  -7   7  237.00  200.40   1-0.33702 0.82661-0.93485 0.37113-0.11167 0.42305
   6  -7   8  305.33  162.06   1-0.32971 0.80870-0.93876 0.37174-0.09999 0.45585
   6  -7   9  223.94  200.56   1-0.32143 0.78980-0.94294 0.37261-0.08684 0.48719
   6  -7  10   53.41  146.33   1-0.31223 0.77000-0.94724 0.37362-0.07238 0.51720
   6  -7  11  334.22  167.59   1-0.30201 0.74874-0.95157 0.37462-0.05733 0.54684
   6  -7  12  349.10  159.74   1-0.29111 0.72724-0.95582 0.37555-0.04051 0.57452
   6  -6 -10  143.84  194.02   1-0.21992 0.88816-0.37524-0.05355-0.90045 0.45639
   6  -6  -9  200.66  198.72   1-0.20434 0.86193-0.37649-0.05573-0.90360 0.50394
   6  -6  -8  207.76  236.32   1-0.18494 0.83188-0.37791-0.05775-0.90718 0.55192
   6  -6  -7 1905.82  408.59   1-0.16132 0.79762-0.37943-0.05967-0.91104 0.60020
   6  -6  -6  310.44  196.70   1-0.13402 0.75874-0.38028-0.06324-0.91510 0.64830
   6  -6  -5 1413.65  285.45   1-0.10048 0.71462-0.38172-0.06514-0.91879 0.69646
   6  -6  -4  443.89  186.46   1-0.06130 0.66488-0.38285-0.06736-0.92177 0.74390
   6  -6  -3 1313.84  221.89   1-0.01603 0.60903-0.38341-0.07013-0.92343 0.79003
   6  -6  -2  670.04  150.74   1 0.03615 0.54654-0.38301-0.07417-0.92303 0.83414
   6  -6  -1  371.09  129.39   1-0.29863 0.86995-0.95294 0.49307-0.05209 0.00759
   6  -6  -1  522.44  162.85   1 0.09463 0.47741-0.38139-0.07912-0.91955 0.87510
   6  -6   0 4671.24  400.77   1-0.31115 0.87187-0.94765 0.48446-0.07159 0.07159
   6  -6   0 4210.96  377.69   1 0.16000 0.40140-0.37801-0.08583-0.91186 0.91186
   6  -6   1  324.00  199.08   1-0.31888 0.86936-0.94416 0.47748-0.08281 0.12730
   6  -6   1  302.34  163.70   1 0.23351 0.31794-0.37095-0.09578-0.89881 0.94325
   6  -6   2  133.55  151.58   1-0.32337 0.86325-0.94198 0.47200-0.08992 0.17888
   6  -6   2   85.61   96.09   1 0.31150 0.22925-0.36228-0.10791-0.87847 0.96736
   6  -6   3 4370.39  386.13   1-0.32512 0.85439-0.94111 0.46783-0.09269 0.22614
   6  -6   3 3067.72  314.93   1 0.39449 0.13511-0.34956-0.12408-0.84980 0.98302
   6  -6   4  110.27  112.51   1-0.32464 0.84330-0.94135 0.46477-0.09192 0.26985
   6  -6   4  223.28  125.28   1 0.48040 0.03846-0.33332-0.14372-0.81124 0.98886
   6  -6   5 2759.59  339.67   1-0.32229 0.83035-0.94251 0.46263-0.08821 0.31062
   6  -6   5 1765.80  235.59   1 0.56782-0.05935-0.31160-0.16966-0.76189 0.98371
   6  -6   6  796.40  166.49   1-0.31836 0.81580-0.94441 0.46122-0.08200 0.34889
   6  -6   7  811.84  227.58   1-0.31304 0.79987-0.94688 0.46039-0.07363 0.38501
   6  -6   8 1863.61  264.10   1-0.30637 0.78225-0.94974 0.45996-0.06411 0.42012
   6  -6   9 -109.25  116.54   1-0.29868 0.76396-0.95292 0.45981-0.05218 0.45268
  -6   6 -10  -23.41  116.80   1 0.29380-0.74725 0.95513-0.45757 0.03737-0.48191
   6  -6  10   -3.54  109.66   1-0.28998 0.74466-0.95624 0.45981-0.03877 0.48378
  -6   6 -11 2716.07  765.15   1 0.28417-0.72697 0.95849-0.45751 0.02304-0.51204
   6  -6  11 3584.22  593.17   1-0.28035 0.72442-0.95959 0.45984-0.02406 0.51356
  -6   6 -12 1847.31  450.11   1 0.27364-0.70579 0.96180-0.45739 0.00751-0.54097
   6  -6  12 2297.02  453.66   1-0.26984 0.70331-0.96286 0.45979-0.00815 0.54216
  -6   6 -13  735.79  238.99   1 0.26226-0.68374 0.96495-0.45712-0.00911-0.56879
   6  -6  13  830.59  251.54   1-0.25851 0.68137-0.96596 0.45956 0.00883 0.56967
  -6   6 -14  209.54  164.16   1 0.25005-0.66088 0.96786-0.45661-0.02676-0.59559
   6  -6  14  192.20  211.13   1-0.24639 0.65864-0.96879 0.45907 0.02683 0.59617
   6  -5 -11   59.97  142.32   1-0.23645 0.91244-0.37380 0.02564-0.89686 0.40838
   6  -5 -10  205.54  203.23   1-0.22464 0.88998-0.37484 0.02324-0.89946 0.45539
   6  -5  -9  415.42  185.41   1-0.20935 0.86405-0.37610 0.02106-0.90261 0.50295
   6  -5  -8  211.73  130.03   1-0.19024 0.83429-0.37753 0.01906-0.90624 0.55098
   6  -5  -7  222.61  170.75   1-0.16691 0.80031-0.37909 0.01718-0.91018 0.59933
   6  -5  -6  -10.51  114.99   1-0.13984 0.76189-0.37998 0.01372-0.91435 0.64755
   6  -5  -5  104.59  175.56   1-0.10659 0.71807-0.38149 0.01188-0.91820 0.69586
   6  -5  -4  802.59  223.51   1-0.06775 0.66865-0.38270 0.00975-0.92138 0.74351
   6  -5  -3  719.80  169.26   1-0.02286 0.61318-0.38338 0.00709-0.92330 0.78990
   6  -5  -2  167.00  136.20   1 0.02874 0.55121-0.38312 0.00324-0.92324 0.83435
  -6   5   1  317.59  107.92   1 0.23515-0.80349 0.97076-0.58807-0.04808 0.09253
   6  -5  -1  546.43  124.32   1-0.23519 0.80385-0.97098 0.58831 0.04328-0.08778
   6  -5  -1  626.78  166.57   1 0.08660 0.48271-0.38169-0.00151-0.92022 0.87577
  -6   5   0  594.92  117.95   1 0.25655-0.81425 0.96637-0.58025-0.01738 0.01738
   6  -5   0  623.45  145.39   1-0.25604 0.81410-0.96658 0.58058 0.01252-0.01252
   6  -5   0  666.28  152.16   1 0.15113 0.40754-0.37857-0.00797-0.91314 0.91314
  -6   5  -1 2508.34  577.60   1 0.27109-0.81813 0.96254-0.57300 0.00377-0.04822
   6  -5   1 3532.06  245.04   1-0.27004 0.81749-0.96281 0.57349-0.00845 0.05295
   6  -5   1 3209.41  288.67   1 0.22334 0.32528-0.37189-0.01763-0.90100 0.94545
  -6   5  -2 1127.16  301.88   1 0.28060-0.81699 0.95965-0.56669 0.01776-0.10667
   6  -5   2 1328.76  195.88   1-0.27908 0.81593-0.96001 0.56736-0.02212 0.11112
   6  -5   2  989.69  160.17   1 0.29986 0.23807-0.36374-0.02923-0.88191 0.97080
  -6   5  -3  116.21   65.64   1 0.28628-0.81201 0.95778-0.56140 0.02617-0.15954
   6  -5   3  251.69  172.98   1-0.28434 0.81059-0.95824 0.56228-0.03014 0.16364
   6  -5   3  165.91  112.62   1 0.38090 0.14588-0.35179-0.04461-0.85507 0.98829
  -6   5  -4 1116.17  220.69   1 0.28893-0.80401 0.95687-0.55706 0.03011-0.20793
   6  -5   4 1403.42  201.96   1-0.28664 0.80228-0.95744 0.55815-0.03365 0.21166
   6  -5   4 1225.32  198.53   1 0.46460 0.05144-0.33660-0.06319-0.81904 0.99667
  -6   5  -5 1303.14  276.40   1 0.28912-0.79354 0.95681-0.55358 0.03038-0.25265
   6  -5   5 1367.03  197.83   1-0.28653 0.79157-0.95748 0.55487-0.03348 0.25599
   6  -5   5 1059.38  166.72   1 0.54933-0.04354-0.31641-0.08769-0.77337 0.99519
  -6   5  -6 2162.21  422.47   1 0.28724-0.78101 0.95745-0.55080 0.02759-0.29432
   6  -5   6 2459.37  266.51   1-0.28442 0.77885-0.95822 0.55228-0.03026 0.29726
  -6   5  -7 9149.18 1311.32   1 0.28361-0.76673 0.95868-0.54860 0.02221-0.33339
   6  -5   712288.98  849.29   1-0.28060 0.76443-0.95951 0.55025-0.02444 0.33595
  -6   5  -8   46.95   76.22   1 0.27846-0.75092 0.96033-0.54684 0.01460-0.37023
   6  -5   8   58.47  119.11   1-0.27531 0.74853-0.96121 0.54863-0.01641 0.37241
  -6   5  -9  666.62  188.32   1 0.27196-0.73377 0.96229-0.54537 0.00505-0.40514
   6  -5   9  797.56  207.83   1-0.26871 0.73133-0.96319 0.54729-0.00645 0.40696
  -6   5 -10  165.19   71.75   1 0.26426-0.71541 0.96443-0.54409-0.00620-0.43834
   6  -5  10  159.06  125.03   1-0.26095 0.71297-0.96533 0.54610 0.00519 0.43981
  -6   5 -11 4598.82 1049.40   1 0.25546-0.69596 0.96663-0.54287-0.01897-0.47002
   6  -5  11 5545.01  422.38   1-0.25213 0.69354-0.96751 0.54496 0.01833 0.47117
  -6   5 -12   41.44  125.51   1 0.24565-0.67549 0.96879-0.54161-0.03309-0.50035
   6  -5  12   43.85  168.27   1-0.24233 0.67314-0.96963 0.54376 0.03280 0.50120
  -6   5 -13  180.16   80.44   1 0.23490-0.65409 0.97081-0.54020-0.04843-0.52947
   6  -5  13  145.69  202.12   1-0.23162 0.65183-0.97159 0.54239 0.04848 0.53002
  -6   5 -14    7.04  111.80   1 0.22326-0.63180 0.97259-0.53856-0.06489-0.55746
   6  -5  14  110.00  145.18   1-0.22006 0.62966-0.97329 0.54077 0.06526 0.55774
  -6   5 -15  718.55  244.73   1 0.20951-0.60905 0.97435-0.53625-0.08203-0.58436
   6  -5  15 1080.62  304.62   1-0.20726 0.60657-0.97479 0.53910 0.08259 0.58432
   6  -4 -12   93.16  143.96   1-0.24214 0.92589-0.37328 0.10576-0.89555 0.36267
   6  -4 -11 1462.74  333.61   1-0.23357 0.90667-0.37406 0.10310-0.89750 0.40903
   6  -4 -10    0.06  118.59   1-0.22181 0.88426-0.37508 0.10068-0.90006 0.45599
   6  -4  -9 2627.96  471.75   1-0.20655 0.85835-0.37632 0.09848-0.90317 0.50351
   6  -4  -8  297.20  156.92   1-0.18742 0.82858-0.37773 0.09646-0.90674 0.55149
   6  -4  -7  366.49  156.38   1-0.16404 0.79455-0.37927 0.09455-0.91062 0.59978
   6  -4  -6  991.76  255.01   1-0.13684 0.75621-0.38014 0.09113-0.91474 0.64794
   6  -4  -5  -17.53  111.13   1-0.10350 0.71230-0.38161 0.08926-0.91850 0.69617
   6  -4  -4  139.78  115.07   1-0.06458 0.66280-0.38278 0.08709-0.92157 0.74371
   6  -4  -310319.69  462.09   1-0.01966 0.60731-0.38340 0.08437-0.92337 0.78997
   6  -4  -2  236.25  135.38   1 0.03179 0.54544-0.38308 0.08051-0.92316 0.83427
  -6   4   1  463.86  124.97   1 0.14339-0.71074 0.97466-0.66943-0.17167 0.21610
   6  -4  -1  684.77  171.00   1 0.08942 0.47716-0.38159 0.07569-0.91999 0.87554
  -6   4   0 4047.40  514.54   1 0.17729-0.73399 0.97602-0.66731-0.12629 0.12629
   6  -4   0 4869.06  336.49   1-0.17931 0.73491-0.97618 0.66707 0.12212-0.12212
   6  -4   0 5275.47  417.55   1 0.15349 0.40246-0.37842 0.06919-0.91281 0.91281
  -6   4  -1 1315.78  320.55   1 0.20102-0.74708 0.97508-0.66289-0.09380 0.04937
   6  -4   1 1678.85  172.08   1-0.20243 0.74743-0.97519 0.66280 0.08948-0.04502
   6  -4   1 1747.40  231.45   1 0.22468 0.32112-0.37177 0.05946-0.90072 0.94516
  -6   4  -2  372.81  117.39   1 0.21924-0.75333 0.97311-0.65737-0.07053-0.01837
   6  -4   2  540.27  150.22   1-0.21847 0.75266-0.97350 0.65805 0.06756 0.02143
   6  -4   2  573.29  173.70   1 0.29996 0.23514-0.36373 0.04796-0.88188 0.97077
  -6   4  -3 9392.28  986.56   1 0.23036-0.75380 0.97155-0.65239-0.05486-0.07849
   6  -4   310235.71  627.41   1-0.22918 0.75277-0.97198 0.65322 0.05204 0.08145
   6  -4   3 9282.40  602.76   1 0.37924 0.14473-0.35206 0.03290-0.85570 0.98892
  -6   4  -4 2598.88  588.89   1 0.23735-0.75013 0.97038-0.64779-0.04495-0.13286
   6  -4   4 2632.05  242.50   1-0.23580 0.74878-0.97087 0.64878 0.04238 0.13561
   6  -4   4 1868.73  205.75   1 0.46078 0.05244-0.33737 0.01482-0.82088 0.99851
  -6   4  -5  451.85  106.17   1 0.24105-0.74317 0.96970-0.64369-0.03967-0.18259
   6  -4   5  600.10  199.65   1-0.23919 0.74157-0.97024 0.64483 0.03742 0.18508
   6  -4   5  315.32  114.43   1 0.54271-0.03959-0.31807-0.00886-0.77735 0.99917
  -6   4  -610369.62 1202.35   1 0.24206-0.73354 0.96950-0.64007-0.03822-0.22850
   6  -4   611056.51  681.31   1-0.23995 0.73172-0.97010 0.64136 0.03630 0.23069
  -6   4  -7 4237.65  466.91   1 0.24085-0.72167 0.96973-0.63688-0.03996-0.27121
   6  -4   7 4675.71  318.60   1-0.23853 0.71969-0.97037 0.63831 0.03839 0.27310
  -6   4  -8  140.49  103.22   1 0.23773-0.70790 0.97031-0.63404-0.04440-0.31122
   6  -4   8  -33.69  120.12   1-0.23525 0.70581-0.97097 0.63559 0.04319 0.31280
  -6   4  -9  245.52   95.06   1 0.23297-0.69248 0.97113-0.63144-0.05117-0.34891
   6  -4   9  398.88  143.46   1-0.23037 0.69033-0.97180 0.63309 0.05031 0.35018
  -6   4 -10 6316.03  917.84   1 0.22676-0.67562 0.97210-0.62898-0.05995-0.38458
   6  -4  10 7254.94  581.38   1-0.22409 0.67344-0.97275 0.63072 0.05944 0.38556
  -6   4 -11  342.91  101.58   1 0.21926-0.65747 0.97311-0.62657-0.07051-0.41848
   6  -4  11  183.27  202.57   1-0.21655 0.65530-0.97373 0.62838 0.07033 0.41917
  -6   4 -12  663.69  201.98   1 0.20936-0.63833 0.97437-0.62389-0.08224-0.45087
   6  -4  12  783.63  220.42   1-0.20741 0.63585-0.97477 0.62622 0.08238 0.45114
  -6   4 -13 1591.61  401.34   1 0.19966-0.61798 0.97518-0.62121-0.09568-0.48185
   6  -4  13 1618.65  262.55   1-0.19770 0.61554-0.97552 0.62368 0.09621 0.48177
  -6   4 -14  129.95  117.00   1 0.18896-0.59663 0.97575-0.61831-0.11039-0.51157
   6  -4  14   93.60  141.68   1-0.18704 0.59429-0.97602 0.62090 0.11128 0.51117
  -6   4 -15  127.84  103.28   1 0.17733-0.57436 0.97602-0.61509-0.12624-0.54015
   6  -4  15  154.70  143.63   1-0.17549 0.57214-0.97619 0.61778 0.12747 0.53944
  -6   4 -16  229.09   90.58   1 0.16481-0.55120 0.97588-0.61147-0.14313-0.56768
   6  -4  16  395.32  188.96   1-0.16309 0.54914-0.97594 0.61424 0.14468 0.56669
  -6   4 -17 1091.61  277.27   1 0.15146-0.52720 0.97526-0.60737-0.16098-0.59426
   6  -3 -13  122.56  147.08   1-0.23755 0.92904-0.37370 0.18681-0.89661 0.31932
   6  -3 -12  -35.83  137.25   1-0.23180 0.91265-0.37421 0.18389-0.89790 0.36502
   6  -3 -11   22.70  129.70   1-0.22309 0.89329-0.37497 0.18121-0.89979 0.41131
   6  -3 -10  -45.27  119.99   1-0.21113 0.87069-0.37595 0.17875-0.90226 0.45819
   6  -3  -9  351.89  210.79   1-0.19561 0.84451-0.37715 0.17650-0.90525 0.50559
   6  -3  -8   19.37  130.72   1-0.17616 0.81442-0.37850 0.17442-0.90868 0.55342
   6  -3  -7 2251.84  352.42   1-0.15241 0.78002-0.37995 0.17243-0.91236 0.60151
   6  -3  -6  103.67  121.57   1-0.12470 0.74140-0.38072 0.16898-0.91623 0.64943
   6  -3  -5   75.70  108.25   1-0.09092 0.69704-0.38205 0.16697-0.91965 0.69732
   6  -3  -4  620.35  187.60   1-0.05155 0.64709-0.38304 0.16461-0.92229 0.74442
   6  -3  -3 2252.63  279.17   1-0.00624 0.59121-0.38343 0.16167-0.92354 0.79014
   6  -3  -2 4699.74  412.41   1 0.04540 0.52909-0.38284 0.15758-0.92269 0.83380
  -6   3   1 3352.36  505.91   1 0.02837-0.59253 0.94732-0.71890-0.31900 0.36343
   6  -3  -1 5100.68  353.81   1 0.10311 0.46074-0.38105 0.15245-0.91878 0.87433
  -6   3   0 1611.06  356.84   1 0.07817-0.63167 0.96312-0.73123-0.25746 0.25746
   6  -3   0 2071.59  257.36   1 0.16694 0.38627-0.37755 0.14562-0.91081 0.91081
  -6   3  -1  460.96  118.05   1 0.11265-0.65620 0.97078-0.73577-0.21186 0.16743
   6  -3   1  373.07  136.57   1 0.23725 0.30572-0.37059 0.13549-0.89798 0.94242
  -6   3  -2 2922.98  313.71   1 0.13846-0.67137 0.97420-0.73571-0.17818 0.08933
   6  -3   2 2825.47  246.70   1 0.31136 0.22092-0.36229 0.12374-0.87851 0.96740
  -6   3  -3 1344.58  252.73   1 0.15700-0.67927 0.97558-0.73360-0.15359 0.02031
   6  -3   3 1006.69  172.31   1 0.38885 0.13230-0.35050 0.10859-0.85202 0.98524
  -6   3  -4 1568.83  379.88   1 0.16999-0.68160 0.97599-0.73053-0.13617-0.04153
   6  -3   4 1970.59  205.26   1-0.17029 0.68083-0.97614 0.73116 0.13471 0.04313
   6  -3   4 1113.35  188.80   1 0.46808 0.04233-0.33589 0.09059-0.81735 0.99498
  -6   3  -5   99.73   66.73   1 0.17860-0.67958 0.97601-0.72707-0.12450-0.09762
   6  -3   5  365.66  128.60   1-0.17851 0.67846-0.97618 0.72792 0.12324 0.09905
   6  -3   5  130.36  116.84   1 0.54692-0.04647-0.31702 0.06725-0.77483 0.99665
  -6   3  -6 3200.25  339.14   1 0.18371-0.67404 0.97592-0.72350-0.11755-0.14899
   6  -3   6 3442.10  300.78   1-0.18328 0.67263-0.97612 0.72457 0.11657 0.15019
  -6   3  -7  480.93  178.01   1 0.18593-0.66562 0.97586-0.71996-0.11452-0.19645
   6  -3   7  345.68  145.78   1-0.18521 0.66397-0.97607 0.72124 0.11385 0.19736
  -6   3  -822157.58 1372.33   1 0.18574-0.65478 0.97586-0.71648-0.11479-0.24062
   6  -3   826617.08 1452.08   1-0.18478 0.65294-0.97609 0.71796 0.11446 0.24122
  -6   3  -9  483.95  122.76   1 0.18349-0.64189 0.97592-0.71306-0.11786-0.28197
   6  -3   9  552.65  259.82   1-0.18234 0.63991-0.97614 0.71472 0.11788 0.28226
  -6   3 -10 1110.12  297.19   1 0.17946-0.62721 0.97600-0.70965-0.12334-0.32091
   6  -3  10 1332.18  244.50   1-0.17818 0.62514-0.97618 0.71148 0.12371 0.32089
  -6   3 -11 3019.83  746.99   1 0.17386-0.61097 0.97602-0.70620-0.13093-0.35775
   6  -3  11 3318.75  371.91   1-0.17249 0.60886-0.97617 0.70818 0.13164 0.35742
  -6   3 -12 4927.85  879.44   1 0.16687-0.59334 0.97593-0.70262-0.14036-0.39275
   6  -3  12 6734.76  565.06   1-0.16546 0.59123-0.97602 0.70475 0.14140 0.39212
  -6   3 -13  247.75  140.81   1 0.15863-0.57445 0.97565-0.69887-0.15141-0.42612
   6  -3  13  -69.07  166.61   1-0.15721 0.57239-0.97567 0.70111 0.15278 0.42521
  -6   3 -14  503.70  138.86   1 0.14924-0.55442 0.97511-0.69484-0.16392-0.45804
  -6   3 -15  220.88  130.75   1 0.13880-0.53333 0.97423-0.69048-0.17774-0.48865
  -6   3 -16  211.23  131.16   1 0.12737-0.51125 0.97294-0.68571-0.19274-0.51808
  -6   3 -17 2127.31  549.00   1 0.11500-0.48824 0.97116-0.68045-0.20881-0.54643
   6  -2 -13  -10.52  133.82   1-0.21969 0.90829-0.37526 0.26557-0.90050 0.32322
   6  -2 -12   31.00  139.75   1-0.21365 0.89160-0.37575 0.26262-0.90175 0.36887
   6  -2 -11  166.92  197.03   1-0.20455 0.87186-0.37647 0.25990-0.90356 0.41508
   6  -2 -10    3.64  145.12   1-0.19214 0.84879-0.37740 0.25739-0.90589 0.46183
   6  -2  -9   75.64  135.97   1-0.17607 0.82208-0.37850 0.25506-0.90869 0.50903
   6  -2  -8  110.10  126.99   1-0.15600 0.79137-0.37974 0.25286-0.91184 0.55658
   6  -2  -7 1248.80  248.92   1-0.13239 0.75698-0.38036 0.24922-0.91531 0.60404
   6  -2  -6  650.17  207.59   1-0.10301 0.71703-0.38163 0.24715-0.91855 0.65175
   6  -2  -4 7517.42  564.40   1-0.02831 0.62118-0.38334 0.24218-0.92317 0.74530
   6  -2  -3 1169.91  218.71   1 0.01767 0.56462-0.38333 0.23882-0.92344 0.79004
   6  -2  -2 5546.91  348.17   1 0.06977 0.50199-0.38224 0.23429-0.92142 0.83252
  -6   2   1 8467.00  346.00   1-0.10580-0.45607 0.87377-0.72284-0.47468 0.51912
   6  -2  -1 9719.35  506.83   1 0.12773 0.43340-0.37989 0.22860-0.91616 0.87172
  -6   2   011692.26  445.70   1-0.04025-0.51056 0.91509-0.76048-0.40121 0.40121
   6  -2   012294.62  558.60   1 0.19141 0.35908-0.37578 0.22116-0.90672 0.90672
  -6   2  -1 1741.85  319.88   1 0.00755-0.54815 0.93892-0.78086-0.34405 0.29962
   6  -2   1 1715.35  209.93   1 0.26078 0.27937-0.36821 0.21033-0.89241 0.93686
  -6   2  -2 2471.89  550.91   1 0.04372-0.57367 0.95284-0.79132-0.30028 0.21142
   6  -2   2 2966.81  272.14   1 0.33360 0.19586-0.35934 0.19800-0.87154 0.96043
  -6   2  -3 8616.94  923.25   1 0.07085-0.59014 0.96118-0.79620-0.26665 0.13336
   6  -2   3 8386.32  433.20   1 0.40908 0.10925-0.34708 0.18241-0.84391 0.97713
  -6   2  -4 1726.07  428.67   1 0.09099-0.59964 0.96619-0.79774-0.24123 0.06351
   6  -2   4 1302.77  167.37   1 0.48566 0.02193-0.33219 0.16414-0.80856 0.98619
  -6   2  -5  982.63  168.49   1 0.10562-0.60361 0.96918-0.79727-0.22253 0.00038
   6  -2   5  789.59  155.64   1 0.56099-0.06322-0.31340 0.14080-0.76619 0.98801
  -6   2  -6 6005.88  703.04   1 0.11485-0.60268 0.97114-0.79590-0.20901-0.05754
  -6   2  -7 3721.98  431.67   1 0.12139-0.59857 0.97213-0.79341-0.20052-0.11045
  -6   2  -8  782.32  143.95   1 0.12490-0.59144 0.97262-0.79042-0.19595-0.15945
  -6   2  -9 1238.03  233.64   1 0.12586-0.58175 0.97275-0.78706-0.19470-0.20513
  -6   2 -10  456.54  113.11   1 0.12463-0.56988 0.97258-0.78342-0.19630-0.24795
  -6   2 -11  125.04   99.21   1 0.12150-0.55610 0.97215-0.77950-0.20038-0.28830
  -6   2 -12 1933.33  480.19   1 0.11669-0.54065 0.97143-0.77530-0.20663-0.32648
  -6   2 -13 3302.12  560.72   1 0.11039-0.52370 0.97040-0.77079-0.21477-0.36277
  -6   2 -14  678.60  194.12   1 0.10377-0.50587 0.96883-0.76575-0.22491-0.39711
  -6   2 -15  251.51  145.13   1 0.09491-0.48636 0.96704-0.76050-0.23625-0.43021
  -6   2 -16 2560.29  641.30   1 0.08492-0.46572 0.96478-0.75478-0.24893-0.46195
  -6   2 -17  196.86  137.86   1 0.07388-0.44402 0.96200-0.74853-0.26285-0.49247
  -6   2 -18  151.50   77.20   1 0.06186-0.42134 0.95862-0.74169-0.27787-0.52187
   6  -1 -13  329.04  224.67   1-0.19367 0.87938-0.37729 0.34480-0.90561 0.32833
   6  -1 -12   47.34  178.38   1-0.18711 0.86216-0.37776 0.34183-0.90679 0.37392
   6  -1 -11 1192.90  314.69   1-0.17739 0.84180-0.37842 0.33905-0.90847 0.42000
   6  -1 -10 6259.02  494.38   1-0.16425 0.81801-0.37925 0.33644-0.91059 0.46652
   6  -1  -9  413.86  208.73   1-0.14838 0.79144-0.37953 0.33233-0.91320 0.51299
   6  -1  -8  245.33  149.34   1-0.12726 0.75975-0.38061 0.33007-0.91593 0.56019
   6  -1  -7  215.93  156.27   1-0.10168 0.72359-0.38168 0.32780-0.91868 0.60741
   6  -1  -6  -25.09  108.11   1-0.07125 0.68259-0.38262 0.32540-0.92115 0.65435
   6  -1  -5 1307.10  244.88   1-0.03563 0.63639-0.38327 0.32271-0.92294 0.70061
   6  -1  -435003.51 1858.71   1 0.00550 0.58468-0.38341 0.31951-0.92356 0.74569
   6  -1  -312980.47  613.28   1 0.05247 0.52720-0.38269 0.31538-0.92238 0.78904
  -6   1   2 5981.31  266.59   1-0.32329-0.24648 0.64953-0.57900-0.68817 0.77717
   6  -1  -2 6817.30  415.65   1 0.10505 0.46399-0.38096 0.31032-0.91859 0.82970
  -6   1   1 8406.66  340.92   1-0.23415-0.32515 0.75880-0.68471-0.60777 0.65226
   6  -1  -1 9128.51  480.34   1 0.16327 0.39512-0.37779 0.30382-0.91137 0.86692
  -6   1   0   99.22   76.08   1-0.16337-0.38543 0.82837-0.75122-0.53581 0.53581
   6  -1   0  -29.55   92.16   1 0.22710 0.32092-0.37155 0.29433-0.90020 0.90020
   6  -1   1  474.83  140.46   1 0.29492 0.24240-0.36434 0.28367-0.88332 0.92777
  -6   1  -2   31.41   66.91   1-0.06183-0.46533 0.90268-0.81852-0.42583 0.33687
   6  -1   2   24.32   80.43   1 0.36602 0.16023-0.35412 0.27010-0.86059 0.94940
  -6   1  -3  572.67  153.43   1-0.02687-0.48964 0.92221-0.83461-0.38574 0.25230
   6  -1   3  319.21  110.78   1 0.43918 0.07633-0.34160 0.25418-0.83091 0.96413
  -6   1  -4 3116.33  336.80   1 0.00032-0.50618 0.93533-0.84430-0.35377 0.17586
   6  -1   4 2490.60  221.75   1 0.51262-0.00784-0.32618 0.23537-0.79424 0.97187
  -6   1  -5 1617.88  370.55   1 0.02067-0.51641 0.94434-0.84973-0.32831 0.10615
   6  -1   5 1457.78  208.27   1 0.58388-0.08878-0.30724 0.21180-0.75145 0.97327
  -6   1  -6 4101.20  721.01   1 0.03637-0.52146 0.95027-0.85220-0.30926 0.04268
  -6   1  -7 4895.37  562.50   1 0.04777-0.52221 0.95420-0.85267-0.29530-0.01571
  -6   1  -810165.56  780.65   1 0.05556-0.51934 0.95671-0.85170-0.28568-0.06976
  -6   1  -9  -30.46  131.84   1 0.06030-0.51342 0.95815-0.84969-0.27981-0.12006
  -6   1 -1012897.80  836.68   1 0.06240-0.50488 0.95878-0.84685-0.27719-0.16711
  -6   1 -11 3805.31  722.89   1 0.06224-0.49406 0.95873-0.84334-0.27739-0.21134
  -6   1 -12 1830.20  411.14   1 0.06009-0.48126 0.95809-0.83924-0.28007-0.25309
  -6   1 -13 1942.54  407.27   1 0.05618-0.46669 0.95690-0.83458-0.28492-0.29267
  -6   1 -14  891.01  202.84   1 0.05070-0.45055 0.95516-0.82938-0.29170-0.33033
  -6   1 -15  152.60   93.67   1 0.04379-0.43299 0.95287-0.82362-0.30019-0.36626
  -6   1 -16 1344.18  378.42   1 0.03558-0.41413 0.94999-0.81728-0.31023-0.40066
  -6   1 -17 1171.97  314.01   1 0.02618-0.39408 0.94649-0.81032-0.32165-0.43367
  -6   1 -18  -17.22  132.91   1 0.01567-0.37291 0.94232-0.80269-0.33433-0.46542
   6   0 -13    5.98  133.33   1-0.15881 0.84162-0.37958 0.42428-0.91142 0.33413
   6   0 -12   41.94  142.26   1-0.15150 0.82366-0.38000 0.42126-0.91249 0.37961
   6   0 -11  147.27  214.43   1-0.14212 0.80366-0.37987 0.41662-0.91405 0.42491
   6   0 -10 4301.78  395.16   1-0.12787 0.77883-0.38058 0.41399-0.91586 0.47119
   6   0  -9 1379.14  255.90   1-0.10976 0.75015-0.38137 0.41143-0.91788 0.51767
   6   0  -8  -19.35  130.43   1-0.08745 0.71726-0.38216 0.40889-0.91994 0.56420
   6   0  -712760.23  585.08   1-0.06061 0.67984-0.38286 0.40625-0.92181 0.61054
   6   0  -6 1169.73  234.23   1-0.02889 0.63755-0.38333 0.40338-0.92315 0.65635
   6   0  -5 2568.45  291.98   1 0.00798 0.59009-0.38340 0.40010-0.92354 0.70121
   6   0  -4 4805.06  413.46   1 0.05041 0.53718-0.38274 0.39606-0.92247 0.74469
   6   0  -318444.49  777.39   1 0.09812 0.47882-0.38125 0.39125-0.91924 0.78590
  -6   0   2 8433.95  347.42   1-0.41621-0.15145 0.49894-0.50592-0.76014 0.84917
   6   0  -2 9408.60  490.12   1 0.15129 0.41502-0.37856 0.38522-0.91312 0.82423
  -6   0   119394.03  651.47   1-0.34015-0.21658 0.62563-0.62908-0.70205 0.74655
   6   0  -121548.30  833.51   1 0.20979 0.34610-0.37308 0.37653-0.90376 0.85932
  -6   0   014368.58  501.23   1-0.27310-0.27310 0.71458-0.71458-0.64403 0.64403
   6   0   014560.51  612.09   1 0.27260 0.27260-0.36693 0.36693-0.88940 0.88940
  -6   0  -1 4749.46  265.69   1-0.21559-0.31991 0.77819-0.77474-0.58985 0.54536
   6   0   1 4576.37  315.24   1 0.33911 0.19539-0.35857 0.35511-0.86972 0.91417
  -6   0  -214681.30  539.06   1-0.16798-0.35705 0.82435-0.81761-0.54056 0.45167
   6   0   213102.28  545.80   1 0.40806 0.11538-0.34725 0.34047-0.84433 0.93314
  -6   0  -3  236.71   89.72   1-0.12835-0.38599 0.85703-0.84692-0.49901 0.36567
   6   0   3  302.06  123.78   1 0.47822 0.03448-0.33378 0.32361-0.81233 0.94556
  -6   0  -423122.22  779.41   1-0.09561-0.40791 0.88093-0.86721-0.46347 0.28555
   6   0   418706.87  704.15   1 0.54712-0.04411-0.31697 0.30235-0.77471 0.95217
  -6   0  -5 3398.28  257.42   1-0.06957-0.42328 0.89795-0.88080-0.43455 0.21216
  -6   0  -613597.25  567.16   1-0.04896-0.43324 0.91022-0.88964-0.41120 0.14433
  -6   0  -718974.48  743.43   1-0.03299-0.43855 0.91901-0.89499-0.39284 0.08149
  -6   0  -8 5446.07  329.72   1-0.02100-0.43989 0.92519-0.89775-0.37890 0.02307
  -6   0  -9  129.70  133.19   1-0.01244-0.43779 0.92939-0.89852-0.36886-0.03143
  -6   0 -1014709.91  873.37   1-0.00685-0.43272 0.93204-0.89774-0.36227-0.08250
  -6   0 -11 2249.09  525.59   1-0.00385-0.42506 0.93343-0.89569-0.35873-0.13053
  -6   0 -12 1628.78  399.36   1-0.00313-0.41513 0.93376-0.89260-0.35787-0.17586
  -6   0 -1313739.92 1657.32   1-0.00442-0.40318 0.93316-0.88857-0.35940-0.21880
  -6   0 -14  216.13  107.75   1-0.00752-0.38942 0.93173-0.88370-0.36306-0.25962
  -6   0 -15  -73.53  137.74   1-0.01224-0.37405 0.92949-0.87804-0.36863-0.29854
  -6   0 -16 3985.65  408.02   1-0.01843-0.35720 0.92647-0.87159-0.37589-0.33575
  -6   0 -17   76.09  131.69   1-0.02597-0.33900 0.92267-0.86436-0.38470-0.37142
  -6   0 -18   21.25  122.85   1-0.03476-0.31955 0.91806-0.85632-0.39489-0.40571
  -6   0 -19 1269.32  354.20   1-0.04472-0.29893 0.91261-0.84744-0.40636-0.43872
   6   1 -13  273.40  198.36   1-0.11568 0.79569-0.38112 0.50182-0.91725 0.33918
   6   1 -12   65.79  137.39   1-0.10730 0.77673-0.38146 0.49882-0.91813 0.38452
   6   1 -11  767.75  227.44   1-0.09550 0.75436-0.38190 0.49591-0.91925 0.43011
   6   1 -10  380.86  171.07   1-0.08003 0.72832-0.38238 0.49305-0.92052 0.47585
   6   1  -9 1519.70  262.05   1-0.06059 0.69830-0.38286 0.49019-0.92181 0.52160
   6   1  -8  125.72  150.14   1-0.03687 0.66401-0.38325 0.48724-0.92290 0.56716
   6   1  -7  819.61  215.08   1-0.00858 0.62514-0.38343 0.48408-0.92352 0.61225
   6   1  -6  851.73  224.27   1 0.02481 0.58132-0.38317 0.48047-0.92334 0.65665
   6   1  -5 6720.21  519.15   1 0.06296 0.53254-0.38243 0.47640-0.92183 0.69959
   6   1  -4 6485.80  492.87   1 0.10630 0.47855-0.38091 0.47154-0.91847 0.74068
  -6  -1   3  330.46   88.25   1-0.53346-0.04168 0.22030-0.30821-0.81662 0.95040
   6   1  -3  122.26   81.63   1 0.15483 0.41939-0.37834 0.46564-0.91262 0.77928
  -6  -1   2  122.28   56.20   1-0.47686-0.08766 0.37220-0.45664-0.79628 0.88532
   6   1  -2  149.08  151.68   1 0.20830 0.35545-0.37320 0.45733-0.90406 0.81516
  -6  -1   1 4531.71  226.31   1-0.41833-0.13607 0.49502-0.57598-0.76154 0.80605
   6   1  -1 4545.38  300.18   1 0.26622 0.28685-0.36763 0.44830-0.89105 0.84660
   6   1   0   83.50  131.00   1 0.32795 0.21442-0.36011 0.43732-0.87336 0.87336
  -6  -1  -1 8464.16  371.99   1-0.30972-0.22330 0.66795-0.74193-0.67668 0.63218
   6   1   1 7870.59  419.99   1 0.39240 0.13896-0.34991 0.42377-0.85063 0.89504
  -6  -1  -2 7445.63  371.07   1-0.26351-0.25889 0.72593-0.79657-0.63527 0.54630
   6   1   2 5975.54  349.35   1 0.45859 0.06203-0.33781 0.40828-0.82192 0.91074
  -6  -1  -3  115.93   97.40   1-0.22308-0.28862 0.77049-0.83767-0.59713 0.46367
   6   1   3   60.71   91.01   1 0.52419-0.01328-0.32259 0.38880-0.78813 0.92122
  -6  -1  -4  140.03  128.08   1-0.18913-0.31213 0.80517-0.86884-0.56207 0.38429
   6   1   4   55.29   92.59   1 0.58907-0.08874-0.30579 0.36834-0.74798 0.92544
  -6  -1  -510342.60  453.55   1-0.16023-0.33033 0.83108-0.89138-0.53256 0.31033
  -6  -1  -6  171.36  107.60   1-0.13632-0.34355 0.85079-0.90773-0.50750 0.24082
  -6  -1  -7  970.53  180.20   1-0.11689-0.35228 0.86570-0.91927-0.48670 0.17558
  -6  -1  -8   16.99   98.18   1-0.10111-0.35745 0.87712-0.92698-0.46949 0.11366
  -6  -1  -9 1424.48  233.48   1-0.08915-0.35874 0.88531-0.93174-0.45635 0.05605
  -6  -1 -10 2784.32  301.20   1-0.08032-0.35691 0.89113-0.93413-0.44657 0.00179
  -6  -1 -11 7855.32  556.20   1-0.07427-0.35231 0.89500-0.93457-0.43982-0.04943
  -6  -1 -12 -119.13  133.09   1-0.07070-0.34523 0.89725-0.93339-0.43581-0.09792
  -6  -1 -13 1185.36  228.63   1-0.06932-0.33594 0.89810-0.93081-0.43427-0.14394
  -6  -1 -14   75.53  119.49   1-0.06994-0.32467 0.89772-0.92700-0.43496-0.18773
  -6  -1 -15 1105.47  275.45   1-0.07234-0.31161 0.89622-0.92207-0.43766-0.22951
  -6  -1 -16 1013.32  272.44   1-0.07638-0.29692 0.89367-0.91608-0.44217-0.26947
  -6  -1 -17  662.50  235.31   1-0.08191-0.28073 0.89010-0.90909-0.44833-0.30779
  -6  -1 -18  292.46  148.92   1-0.08882-0.26316 0.88554-0.90109-0.45599-0.34461
  -6  -1 -19  276.28  226.63   1-0.09701-0.24431 0.87997-0.89210-0.46500-0.38007
   6   2 -13  297.62  190.11   1-0.06056 0.73788-0.38286 0.58082-0.92181 0.34374
   6   2 -12  -30.99  120.79   1-0.05102 0.71777-0.38305 0.57766-0.92231 0.38871
   6   2 -10 2459.45  365.74   1-0.02106 0.66667-0.38339 0.57133-0.92334 0.47867
   6   2  -9  577.05  225.01   1-0.00013 0.63516-0.38343 0.56802-0.92356 0.52336
   6   2  -8  239.53  153.33   1 0.02547 0.59922-0.38316 0.56443-0.92332 0.56775
   6   2  -7  953.84  204.50   1 0.05522 0.55883-0.38263 0.56056-0.92224 0.61111
   6   2  -6 2950.99  286.55   1 0.08973 0.51368-0.38158 0.55618-0.91996 0.65328
  -6  -2   5  266.53   87.48   1-0.60755 0.01382-0.16383-0.00787-0.77720 0.99987
   6   2  -5  593.32  155.25   1 0.12911 0.46365-0.37982 0.55109-0.91600 0.69376
  -6  -2   4 6176.81  389.54   1-0.58746 0.00433-0.00767-0.16076-0.80921 0.98698
   6   2  -4 7688.45  542.44   1 0.17338 0.40875-0.37711 0.54505-0.90979 0.73200
  -6  -2   3 4411.69  222.11   1-0.55732-0.01516 0.13963-0.30496-0.81846 0.95224
   6   2  -3 5021.08  323.05   1 0.22214 0.34949-0.37200 0.53679-0.90125 0.76791
  -6  -2   2 1348.78  145.99   1-0.51748-0.04436 0.26876-0.43066-0.81238 0.90142
   6   2  -2 1266.87  196.78   1 0.27533 0.28560-0.36662 0.52796-0.88869 0.79979
  -6  -2   111568.50  472.37   1-0.47351-0.07766 0.37990-0.53830-0.79464 0.83916
   6   2  -111691.19  548.97   1 0.33229 0.21795-0.35952 0.51740-0.87196 0.82751
  -6  -2   0 1763.03  162.26   1-0.42881-0.11233 0.47522-0.63016-0.76829 0.76829
   6   2   0 1454.01  177.89   1 0.39203 0.14725-0.34997 0.50447-0.85077 0.85077
  -6  -2  -1  515.08  138.65   1-0.38544-0.14523 0.55524-0.70667-0.73697 0.69247
   6   2   1  312.25  123.73   1 0.45383 0.07471-0.33876 0.48987-0.82417 0.86858
  -6  -2  -2 1031.14  165.44   1-0.34426-0.17573 0.61962-0.76760-0.70536 0.61636
   6   2   2  720.55  170.42   1 0.51628 0.00152-0.32533 0.47304-0.79222 0.88103
  -6  -2  -3 7507.93  385.53   1-0.30701-0.20229 0.67190-0.81663-0.67400 0.54054
   6   2   3 5731.35  349.82   1 0.57695-0.06872-0.30914 0.45251-0.75601 0.88910
  -6  -2  -432891.45 1040.29   1-0.27345-0.22515 0.71416-0.85544-0.64435 0.46639
  -6  -2  -5 7023.81  377.30   1-0.24405-0.24385 0.74802-0.88584-0.61716 0.39472
  -6  -2  -6 3865.47  275.69   1-0.21873-0.25847 0.77498-0.90935-0.59291 0.32598
  -6  -2  -7 9713.09  473.54   1-0.19797-0.26882 0.79677-0.92748-0.57092 0.25980
  -6  -2  -8  975.89  165.91   1-0.18029-0.27581 0.81334-0.94068-0.55314 0.19757
  -6  -2  -9   53.28  107.41   1-0.16594-0.27946 0.82614-0.95012-0.53846 0.13845
  -6  -2 -10 5330.36  444.40   1-0.15463-0.28007 0.83583-0.95644-0.52674 0.08229
  -6  -2 -11 6468.97  505.04   1-0.14609-0.27792 0.84293-0.96016-0.51780 0.02890
  -6  -2 -12 9245.91  499.13   1-0.14005-0.27326 0.84782-0.96169-0.51145-0.02189
  -6  -2 -13 5890.29  507.62   1-0.13630-0.26632 0.85081-0.96131-0.50747-0.07031
  -6  -2 -14   38.63  123.46   1-0.13462-0.25730 0.85214-0.95927-0.50569-0.11655
  -6  -2 -15  188.97  180.91   1-0.13483-0.24639 0.85198-0.95574-0.50591-0.16077
  -6  -2 -16 2023.95  404.53   1-0.13677-0.23375 0.85044-0.95083-0.50797-0.20315
  -6  -2 -17   96.16  128.38   1-0.14031-0.21952 0.84761-0.94463-0.51171-0.24385
  -6  -2 -18   67.70  141.30   1-0.14532-0.20380 0.84355-0.93720-0.51700-0.28302
  -6  -2 -19  932.96  306.63   1-0.15171-0.18672 0.83828-0.92856-0.52369-0.32077
   6   3 -12   34.50  116.15   1 0.01699 0.64707-0.38333 0.65521-0.92345 0.38984
   6   3 -11  193.71  163.69   1 0.03196 0.62191-0.38307 0.65165-0.92316 0.43424
   6   3 -10   -4.20  100.73   1 0.05027 0.59297-0.38274 0.64798-0.92248 0.47801
   6   3  -9  127.21  116.75   1 0.07268 0.55992-0.38215 0.64406-0.92123 0.52120
   6   3  -8  -27.71  108.60   1 0.09939 0.52257-0.38120 0.63978-0.91913 0.56355
   6   3  -7 2421.03  314.89   1 0.13057 0.48075-0.37974 0.63499-0.91583 0.60470
  -6  -3   6  856.44  142.52   1-0.61257 0.01098-0.30011 0.04771-0.73122 0.99880
   6   3  -6 1108.10  197.10   1 0.16631 0.43437-0.37759 0.62951-0.91091 0.64422
  -6  -3   5   24.47   69.18   1-0.60834 0.01743-0.17403-0.07504-0.77435 0.99702
   6   3  -5   54.11   86.06   1 0.20634 0.38384-0.37337 0.62229-0.90444 0.68220
  -6  -3   4 2834.62  214.45   1-0.59439 0.01414-0.04942-0.19641-0.80265 0.98041
   6   3  -4 2939.48  278.70   1 0.25089 0.32861-0.36924 0.61471-0.89482 0.71703
  -6  -3   3  -37.51   84.10   1-0.57423 0.00440 0.07148-0.31422-0.81556 0.94933
   6   3  -3  100.12  123.79   1 0.29953 0.26927-0.36378 0.60579-0.88200 0.74866
  -6  -3   2  842.18  147.89   1-0.54570-0.01349 0.18071-0.41996-0.81825 0.90744
   6   3  -2  728.58  183.45   1 0.35176 0.20635-0.35675 0.59531-0.86543 0.77654
  -6  -3   1 1361.92  172.33   1-0.51324-0.03526 0.28056-0.51642-0.81108 0.85560
   6   3  -1  922.78  186.24   1 0.40668 0.14053-0.34749 0.58263-0.84490 0.80049
  -6  -3   0 6225.89  339.09   1-0.47838-0.05944 0.36864-0.60102-0.79702 0.79702
   6   3   0 5101.71  346.51   1 0.46377 0.07270-0.33677 0.56851-0.81945 0.81945
  -6  -3  -1 5388.83  300.55   1-0.44345-0.08442 0.44633-0.67524-0.77726 0.73274
   6   3   1 4234.63  283.84   1 0.52092 0.00577-0.32336 0.55121-0.78997 0.83434
  -6  -3  -221958.48  797.00   1-0.40876-0.10838 0.51252-0.73794-0.75513 0.66610
   6   3   218369.85  735.21   1 0.57832-0.06218-0.30877 0.53296-0.75511 0.84384
  -6  -3  -3 4480.64  273.68   1-0.37667-0.13028 0.56962-0.79159-0.73050 0.59700
  -6  -3  -4 3630.51  254.33   1-0.34618-0.15009 0.61679-0.83530-0.70690 0.52890
  -6  -3  -5 1327.44  208.97   1-0.31849-0.16710 0.65613-0.87118-0.68414 0.46163
  -6  -3  -6   84.43  101.88   1-0.29428-0.18052 0.68841-0.90032-0.66293 0.39600
  -6  -3  -7 2693.59  272.22   1-0.27266-0.19143 0.71511-0.92356-0.64363 0.33221
  -6  -3  -8  149.30  170.03   1-0.25406-0.19933 0.73681-0.94181-0.62654 0.27063
  -6  -3  -919450.77 1106.19   1-0.23836-0.20433 0.75425-0.95580-0.61178 0.21139
  -6  -3 -10 8848.64  593.12   1-0.22542-0.20658 0.76805-0.96615-0.59939 0.15451
  -6  -3 -11  -58.87  122.74   1-0.21505-0.20624 0.77874-0.97338-0.58933 0.09996
  -6  -3 -12  777.42  192.80   1-0.20796-0.20297 0.78701-0.97803-0.58082 0.04747
  -6  -3 -13  133.44  127.54   1-0.20232-0.19792 0.79256-0.98021-0.57524-0.00255
  -6  -3 -14 2509.78  339.20   1-0.19873-0.19081 0.79604-0.98032-0.57168-0.05056
  -6  -3 -15  206.18  187.86   1-0.19705-0.18180 0.79766-0.97857-0.57000-0.09668
  -6  -3 -16   66.72  127.63   1-0.19713-0.17101 0.79758-0.97512-0.57008-0.14104
  -6  -3 -17  637.06  229.40   1-0.19886-0.15859 0.79592-0.97009-0.57180-0.18377
  -6  -3 -18 1173.22  318.70   1-0.20211-0.14464 0.79276-0.96356-0.57504-0.22498
   6   4 -11   58.84  109.96   1 0.11409 0.53706-0.38056 0.72644-0.91768 0.42876
   6   4 -10  921.14  255.26   1 0.13382 0.50669-0.37957 0.72211-0.91543 0.47096
   6   4  -9  115.88  113.32   1 0.15763 0.47224-0.37816 0.71738-0.91221 0.51219
   6   4  -8  391.59  169.04   1 0.18563 0.43360-0.37622 0.71211-0.90774 0.55216
   6   4  -7 4515.90  346.30   1 0.21763 0.39112-0.37240 0.70545-0.90219 0.59106
  -6  -4   6  510.82  132.74   1-0.61258 0.01376-0.29857-0.03118-0.73183 0.99941
   6   4  -6  745.89  189.17   1 0.25395 0.34411-0.36893 0.69852-0.89409 0.62741
  -6  -4   5  266.94  104.83   1-0.60973 0.02163-0.19455-0.13190-0.76835 0.99102
   6   4  -5  432.61  160.60   1 0.29434 0.29303-0.36441 0.69055-0.88349 0.66126
  -6  -4   4 8230.31  366.71   1-0.60023 0.02284-0.09102-0.23221-0.79462 0.97239
  -6  -4   3  380.91  125.78   1-0.58460 0.01779 0.00788-0.32772-0.81128 0.94460
   6   4  -3  422.40  142.09   1 0.38573 0.18014-0.35101 0.67017-0.85322 0.72000
  -6  -4   2   -2.04   91.68   1-0.56627 0.00972 0.10504-0.42171-0.81749 0.90667
   6   4  -2   57.87   85.29   1 0.43597 0.11917-0.34220 0.65798-0.83235 0.74354
  -6  -4   1 3329.87  301.32   1-0.54205-0.00386 0.19287-0.50604-0.81790 0.86249
   6   4  -1 3289.45  314.15   1 0.48809 0.05630-0.33167 0.64405-0.80731 0.76290
  -6  -4   0 2690.11  232.28   1-0.51572-0.01944 0.27370-0.58352-0.81185 0.81185
   6   4   0 2507.26  265.29   1 0.54039-0.00578-0.31865 0.62732-0.77873 0.77873
  -6  -4  -1 3800.85  292.35   1-0.48780-0.03668 0.34624-0.65257-0.80135 0.75683
   6   4   1 3152.73  265.88   1 0.59308-0.06905-0.30465 0.60967-0.74527 0.78963
  -6  -4  -2 2687.88  274.09   1-0.46016-0.05444 0.41140-0.71429-0.78676 0.69772
  -6  -4  -3 9716.84  487.89   1-0.43248-0.07139 0.46811-0.76751-0.77060 0.63704
  -6  -4  -4 7621.05  456.08   1-0.40600-0.08715 0.51745-0.81336-0.75325 0.57518
  -6  -4  -526270.77  968.87   1-0.38230-0.10093 0.56043-0.85293-0.73467 0.51217
  -6  -4  -6 1380.38  224.13   1-0.35960-0.11296 0.59656-0.88560-0.71749 0.45048
  -6  -4  -7 4526.40  412.09   1-0.33912-0.12276 0.62712-0.91271-0.70121 0.38970
  -6  -4  -8 1626.97  238.83   1-0.32097-0.13023 0.65273-0.93487-0.68622 0.33021
  -6  -4  -9  309.12  110.94   1-0.30573-0.13457 0.67360-0.95269-0.67289 0.27250
  -6  -4 -1035864.08  898.40   1-0.29226-0.13734 0.69098-0.96662-0.66115 0.21627
  -6  -4 -11 3148.86  363.20   1-0.28104-0.13785 0.70495-0.97714-0.65118 0.16182
  -6  -4 -12 4602.27  463.67   1-0.27199-0.13620 0.71591-0.98464-0.64302 0.10916
  -6  -4 -13 4295.61  367.10   1-0.26500-0.13249 0.72419-0.98946-0.63664 0.05830
  -6  -4 -14  113.56  142.99   1-0.25996-0.12683 0.73006-0.99188-0.63200 0.00917
  -6  -4 -15  457.08  147.87   1-0.25675-0.11934 0.73374-0.99211-0.62903-0.03828
  -6  -4 -16 1718.33  332.88   1-0.25527-0.11012 0.73543-0.99034-0.62766-0.08414
  -6  -4 -17   21.70  132.28   1-0.25542-0.09927 0.73527-0.98672-0.62780-0.12849
  -6  -4 -18   55.95  148.59   1-0.25709-0.08689 0.73335-0.98135-0.62935-0.17142
   6   5  -9   59.98   98.02   1 0.25524 0.37207-0.36879 0.78597-0.89377 0.49375
   6   5  -8  211.99  124.54   1 0.28381 0.33281-0.36565 0.77938-0.88641 0.53084
  -6  -5   7 1016.68  185.00   1-0.60806 0.00145-0.39660-0.01389-0.68772 0.99990
   6   5  -7 1640.26  240.10   1 0.31629 0.28964-0.36166 0.77192-0.87701 0.56589
  -6  -5   6   28.85   86.74   1-0.61244 0.01637-0.30930-0.09780-0.72749 0.99507
   6   5  -6  115.91  125.97   1 0.35250 0.24274-0.35664 0.76345-0.86518 0.59850
  -6  -5   5 1189.36  207.24   1-0.61112 0.02583-0.22084-0.18298-0.76010 0.98277
   6   5  -5 1287.71  202.84   1 0.39171 0.19283-0.35003 0.75322-0.85090 0.62886
  -6  -5   4   21.97  112.23   1-0.60479 0.03009-0.13351-0.26692-0.78510 0.96324
   6   5  -4   33.82   84.92   1 0.43443 0.13937-0.34249 0.74229-0.83304 0.65541
  -6  -5   3   95.37  111.05   1-0.59408 0.03015-0.04741-0.34982-0.80300 0.93632
   6   5  -3  -17.22   83.38   1 0.47958 0.08348-0.33349 0.72990-0.81165 0.67843
  -6  -5   2 1972.67  228.03   1-0.57935 0.02600 0.03454-0.42837-0.81434 0.90322
   6   5  -2 1938.34  226.79   1 0.52610 0.02697-0.32213 0.71528-0.78704 0.69831
  -6  -5   1 1022.75  168.46   1-0.56375 0.02049 0.11509-0.50568-0.81788 0.86247
   6   5  -1  901.37  169.09   1 0.57350-0.03099-0.31008 0.69957-0.75825 0.71388
  -6  -5   010362.97  435.77   1-0.54355 0.01092 0.18793-0.57502-0.81806 0.81806
  -6  -5  -1 2957.98  299.18   1-0.52223 0.00041 0.25521-0.63901-0.81371 0.76919
  -6  -5  -2 5886.68  457.63   1-0.49975-0.01138 0.31639-0.69669-0.80631 0.71727
  -6  -5  -3 2103.13  242.14   1-0.47713-0.02332 0.37156-0.74837-0.79641 0.66286
  -6  -5  -4  203.71  119.02   1-0.45559-0.03503 0.42118-0.79455-0.78424 0.60617
  -6  -5  -5 9186.23  626.23   1-0.43428-0.04561 0.46461-0.83449-0.77171 0.54912
  -6  -5  -6 1650.90  245.42   1-0.41421-0.05495 0.50263-0.86902-0.75880 0.49170
  -6  -5  -7   51.40  106.10   1-0.39565-0.06279 0.53561-0.89852-0.74603 0.43441
  -6  -5  -8  419.77  150.20   1-0.38009-0.06876 0.56406-0.92364-0.73304 0.37703
  -6  -5  -9  745.00  178.49   1-0.36509-0.07308 0.58805-0.94417-0.72173 0.32122
  -6  -5 -10   96.44  125.54   1-0.35195-0.07554 0.60820-0.96087-0.71149 0.26647
  -6  -5 -11   39.95  118.69   1-0.34068-0.07613 0.62486-0.97408-0.70247 0.21296
  -6  -5 -12  354.69  193.21   1-0.33126-0.07487 0.63837-0.98414-0.69479 0.16077
  -6  -5 -13  -88.90  132.11   1-0.32366-0.07179 0.64902-0.99133-0.68848 0.10996
  -6  -5 -14  964.99  277.55   1-0.31782-0.06696 0.65705-0.99591-0.68357 0.06055
  -6  -5 -15 1328.72  339.25   1-0.31366-0.06044 0.66268-0.99809-0.68004 0.01252
  -6  -5 -16   17.52  121.57   1-0.31112-0.05230 0.66608-0.99804-0.67788-0.03413
  -6  -5 -17   44.86  145.39   1-0.31013-0.04262 0.66741-0.99592-0.67703-0.07948
  -6  -6   7 2494.51  417.50   1-0.60746 0.00361-0.40347-0.08438-0.68424 0.99642
  -6  -6   6   76.75   85.35   1-0.61200 0.01870-0.32751-0.15694-0.71985 0.98743
   6   6  -6   15.87   81.91   1 0.46000 0.13246-0.33753 0.82135-0.82125 0.55481
  -6  -6   5  -17.42   91.30   1-0.61213 0.02966-0.25073-0.23047-0.74995 0.97262
   6   6  -5   34.22   85.14   1 0.49758 0.08414-0.32958 0.81002-0.80236 0.58032
  -6  -6   4 2735.60  296.46   1-0.60840 0.03651-0.17478-0.30303-0.77414 0.95228
   6   6  -4 1934.16  240.77   1 0.53746 0.03409-0.31938 0.79700-0.78046 0.60301
  -6  -6   3   85.83  151.37   1-0.60129 0.04023-0.09957-0.37507-0.79279 0.92612
   6   6  -3   -3.68   77.68   1 0.57823-0.01725-0.30879 0.78276-0.75517 0.62208
  -6  -6   2   85.90  150.42   1-0.59086 0.04038-0.02737-0.44385-0.80630 0.89518
  -6  -6   1 2536.00  326.47   1-0.57784 0.03793 0.04186-0.50969-0.81507 0.85951
  -6  -6   0 3758.61  384.60   1-0.56502 0.03505 0.11006-0.57457-0.81769 0.81769
  -6  -6  -1 2027.40  286.49   1-0.54835 0.02900 0.17170-0.63271-0.81843 0.77383
  -6  -6  -2 3164.73  320.53   1-0.53068 0.02196 0.22887-0.68639-0.81608 0.72689
  -6  -6  -3 2879.51  276.57   1-0.51304 0.01524 0.28112-0.73539-0.81102 0.67746
  -6  -6  -4 3371.61  307.22   1-0.49487 0.00776 0.32877-0.77954-0.80436 0.62629
  -6  -6  -5   78.09  112.08   1-0.47707 0.00063 0.37171-0.81899-0.79638 0.57379
  -6  -6  -6 2774.53  333.85   1-0.46066-0.00596 0.41032-0.85418-0.78703 0.51992
  -6  -6  -7 2241.64  338.12   1-0.44450-0.01140 0.44420-0.88457-0.77788 0.46626
  -6  -6  -8  111.00  136.29   1-0.42950-0.01567 0.47390-0.91078-0.76873 0.41259
  -6  -6  -9 7199.35  590.93   1-0.41582-0.01862 0.49967-0.93306-0.75987 0.35922
  -6  -6 -10    4.92  120.47   1-0.40356-0.02015 0.52178-0.95168-0.75157 0.30640
  -6  -6 -11  114.92  141.21   1-0.39426-0.02020 0.54037-0.96704-0.74333 0.25382
  -6  -6 -12  232.49  152.40   1-0.38507-0.01871 0.55585-0.97906-0.73670 0.20269
  -6  -6 -13 5516.46  853.27   1-0.37742-0.01568 0.56841-0.98817-0.73106 0.15254
  -6  -6 -14  202.53  158.53   1-0.37129-0.01113 0.57826-0.99457-0.72646 0.10344
  -6  -6 -15  511.27  190.07   1-0.36666-0.00509 0.58559-0.99845-0.72293 0.05541
  -6  -6 -16   77.18  159.08   1-0.36348 0.00240 0.59056-0.99996-0.72049 0.00847
  -6  -7   7  298.82  150.51   1-0.60610 0.00502-0.41770-0.14749-0.67687 0.98904
  -6  -7   6   62.83   92.86   1-0.61109 0.02055-0.35065-0.21115-0.70965 0.97723
  -6  -7   5  501.43  159.68   1-0.61265 0.03266-0.28323-0.27518-0.73785 0.96083
  -6  -7   4  140.42  111.24   1-0.61090 0.04183-0.21603-0.33915-0.76166 0.93979
  -6  -7   3  240.69  137.32   1-0.60637 0.04788-0.15005-0.40174-0.78089 0.91449
  -6  -7   2 3668.34  381.42   1-0.59950 0.05188-0.08536-0.46327-0.79580 0.88469
  -6  -7   1   40.21  141.94   1-0.59019 0.05315-0.02336-0.52187-0.80692 0.85136
  -6  -7   0 4733.74  369.60   1-0.57906 0.05260 0.03596-0.57779-0.81448 0.81448
  -6  -7  -1 8150.21  652.53   1-0.56884 0.05215 0.09455-0.63298-0.81699 0.77240
  -6  -7  -2  411.35  148.05   1-0.55520 0.04915 0.14743-0.68236-0.81854 0.72935
  -6  -7  -3 1556.25  268.43   1-0.54091 0.04549 0.19662-0.72806-0.81777 0.68399
  -6  -7  -4   97.41  130.40   1-0.52687 0.04242 0.24162-0.76986-0.81487 0.63680
  -6  -7  -5  325.77  158.02   1-0.51233 0.03856 0.28304-0.80779-0.81079 0.58820
  -6  -7  -6 6660.25  557.75   1-0.49810 0.03501 0.32061-0.84186-0.80566 0.53855
  -6  -7  -7  447.90  167.91   1-0.48443 0.03201 0.35437-0.87213-0.79983 0.48821
  -6  -7  -8  512.93  207.57   1-0.47151 0.02977 0.38445-0.89872-0.79364 0.43749
  -6  -7  -9 7000.70  465.74   1-0.46029 0.02837 0.41113-0.92198-0.78683 0.38617
  -6  -7 -10  266.85  164.60   1-0.44935 0.02817 0.43423-0.94160-0.78071 0.33554
  -6  -7 -11   61.59  136.37   1-0.43957 0.02911 0.45413-0.95801-0.77494 0.28525
  -6  -7 -12 3719.41  632.20   1-0.43100 0.03127 0.47099-0.97137-0.76967 0.23546
  -6  -7 -13  168.40  154.85   1-0.42369 0.03469 0.48498-0.98187-0.76503 0.18630
  -6  -7 -14   15.72  138.39   1-0.41767 0.03939 0.49626-0.98966-0.76110 0.13785
  -6  -7 -15 1665.91  448.39   1-0.41293 0.04538 0.50497-0.99489-0.75795 0.09018
  -6  -8   6   67.69  112.16   1-0.60954 0.02176-0.37721-0.26194-0.69725 0.96483
  -6  -8   5  -38.43  107.05   1-0.61228 0.03505-0.31714-0.31863-0.72424 0.94722
  -6  -8   4  100.53  118.12   1-0.61227 0.04601-0.25726-0.37530-0.74762 0.92575
  -6  -8   3  349.51  152.56   1-0.60996 0.05429-0.19835-0.43081-0.76719 0.90080
  -6  -8   2   36.94  129.35   1-0.60550 0.06041-0.14069-0.48508-0.78330 0.87237
  -6  -8   1 6416.42  945.88   1-0.59940 0.06523-0.08461-0.53801-0.79596 0.84040
  -6  -8   0  339.81  208.40   1-0.59144 0.06785-0.03087-0.58835-0.80575 0.80575
  -6  -8  -1  -32.19  132.36   1-0.58218 0.06917 0.02044-0.63627-0.81279 0.76835
  -6  -8  -2  227.83  191.11   1-0.57428 0.07088 0.07129-0.68364-0.81554 0.72636
  -6  -8  -3 1929.91  285.19   1-0.56325 0.07049 0.11705-0.72590-0.81794 0.68417
  -6  -8  -4 3170.47  364.37   1-0.55178 0.06965 0.15970-0.76506-0.81855 0.64018
  -6  -8  -5  969.26  230.11   1-0.54014 0.06863 0.19914-0.80100-0.81767 0.59471
  -6  -8  -6 2536.33  345.47   1-0.52917 0.06874 0.23475-0.83346-0.81539 0.54828
  -6  -8  -7 2865.25  505.77   1-0.51789 0.06814 0.26761-0.86282-0.81250 0.50088
  -6  -8  -8  105.64  134.72   1-0.50707 0.06801 0.29725-0.88897-0.80902 0.45287
  -6  -8  -9 4038.09  688.71   1-0.49687 0.06849 0.32373-0.91196-0.80517 0.40451
  -6  -8 -10   97.42  135.46   1-0.48743 0.06972 0.34713-0.93187-0.80118 0.35600
  -6  -8 -11  288.88  144.15   1-0.47885 0.07182 0.36757-0.94881-0.79724 0.30754
  -6  -8 -12 1427.11  364.35   1-0.47121 0.07486 0.38514-0.96289-0.79349 0.25927
  -6  -8 -13  754.72  269.51   1-0.46541 0.07894 0.39996-0.97432-0.78956 0.21084
  -6  -9   3  -22.10  135.29   1-0.61199 0.05914-0.24549-0.46105-0.75179 0.88539
  -6  -9   2  545.90  239.38   1-0.60967 0.06740-0.19350-0.50965-0.76866 0.85773
  -6  -9   1   62.11  140.46   1-0.60571 0.07402-0.14288-0.55688-0.78274 0.82728
  -6  -9   0  420.81  211.83   1-0.60060 0.07988-0.09399-0.60264-0.79400 0.79400
  -6  -9  -1   59.11  133.32   1-0.59403 0.08389-0.04711-0.64611-0.80305 0.75861
  -6  -9  -2  -50.43  129.86   1-0.58651 0.08695-0.00241-0.68740-0.80993 0.72105
  -6  -9  -3 1157.96  319.55   1-0.57825 0.08927 0.03988-0.72630-0.81488 0.68155
  -6  -9  -4  174.76  135.87   1-0.57186 0.09239 0.08178-0.76456-0.81625 0.63788
  -6  -9  -5 1631.23  384.29   1-0.56278 0.09394 0.11890-0.79818-0.81800 0.59504
  -6  -9  -6 1396.05  336.84   1-0.55359 0.09538 0.15324-0.82903-0.81856 0.55100
  -6  -9  -7  151.37  139.14   1-0.54449 0.09691 0.18477-0.85706-0.81815 0.50600
  -6  -9  -8  191.94  194.94   1-0.53565 0.09869 0.21348-0.88227-0.81700 0.46026
  -6  -9  -9  800.01  262.65   1-0.52788 0.10215 0.23863-0.90432-0.81510 0.41444
  -6  -9 -10  -58.36  135.42   1-0.51997 0.10493 0.26172-0.92391-0.81309 0.36791
  -6  -9 -11  -24.08  135.31   1-0.51269 0.10832 0.28208-0.94079-0.81091 0.32121
  -6 -10  -2  195.24  228.28   1-0.59744 0.10075-0.07021-0.69701-0.79882 0.70994
  -6 -10  -3 1644.76  390.83   1-0.59149 0.10538-0.03115-0.73266-0.80570 0.67238
  -6 -10  -4  414.90  228.13   1-0.58500 0.10946 0.00575-0.76617-0.81101 0.63324
  -6 -10  -5    9.52  147.32   1-0.57814 0.11319 0.04040-0.79741-0.81493 0.59272
  -6 -10  -6 5535.71  854.65   1-0.57349 0.11793 0.07476-0.82796-0.81579 0.54823
   7  -8   4   59.43  115.12   1-0.30285 0.91726-0.95123 0.32034-0.05864 0.23664
   7  -8   5   28.78  118.16   1-0.30219 0.90600-0.95150 0.31729-0.05762 0.28013
   7  -8   6  601.90  225.12   1-0.29994 0.89315-0.95241 0.31488-0.05413 0.32113
   7  -8   7  169.04  146.44   1-0.29628 0.87888-0.95386 0.31301-0.04847 0.35997
   7  -7  -5  822.71  239.22   1 0.00876 0.69892-0.38339-0.14073-0.92354 0.70120
   7  -7  -4  883.89  267.82   1 0.04628 0.65126-0.38282-0.14500-0.92265 0.74487
   7  -7  -3  970.11  248.99   1 0.08803 0.59886-0.38164-0.14951-0.92010 0.78676
   7  -7  -2   34.80  105.17   1 0.13493 0.54133-0.37950-0.15498-0.91529 0.82640
   7  -7  -1  190.52  177.62   1 0.18707 0.47854-0.37611-0.16171-0.90749 0.86304
   7  -7   0  444.43  153.40   1 0.24592 0.40992-0.36974-0.17074-0.89599 0.89599
   7  -7   1  409.69  127.37   1 0.30819 0.33694-0.36270-0.18124-0.87946 0.92391
  -7   7  -2  325.36  110.13   1 0.27297-0.90499 0.96199-0.41458 0.00653-0.09544
   7  -7   2  212.38  115.48   1 0.37512 0.25887-0.35271-0.19480-0.85724 0.94606
  -7   7  -3   39.45   45.03   1 0.27883-0.90019 0.96021-0.40938 0.01514-0.14851
   7  -7   3  -45.08  108.53   1-0.27677 0.89913-0.96075 0.41038-0.01862 0.15212
   7  -7   3   59.55  113.50   1 0.44545 0.17779-0.34040-0.21050-0.82806 0.96128
  -7   7  -4 1669.47  456.36   1 0.28201-0.89271 0.95920-0.40494 0.01984-0.19766
   7  -7   4 2191.03  413.19   1-0.27967 0.89142-0.95981 0.40613-0.02302 0.20103
  -7   7  -5  448.59  112.89   1 0.28296-0.88301 0.95889-0.40121 0.02125-0.24352
   7  -7   5  522.64  186.14   1-0.28039 0.88154-0.95958 0.40257-0.02411 0.24662
  -7   7  -6  320.52  218.33   1 0.28202-0.87142 0.95920-0.39810 0.01986-0.28659
   7  -7   6 1216.20  313.51   1-0.27925 0.86980-0.95995 0.39962-0.02239 0.28939
  -7   7  -7   41.74   79.21   1 0.27944-0.85819 0.96002-0.39550 0.01605-0.32723
   7  -7   7   90.45  132.99   1-0.27651 0.85645-0.96083 0.39717-0.01823 0.32974
  -7   7  -8   23.49   72.09   1 0.27542-0.84351 0.96126-0.39332 0.01012-0.36576
   7  -7   8  -84.47  127.39   1-0.27236 0.84170-0.96211 0.39513-0.01195 0.36796
  -7   7  -9 3004.76  936.03   1 0.27010-0.82753 0.96282-0.39146 0.00232-0.40241
   7  -7   9 3800.50  630.95   1-0.26695 0.82569-0.96370 0.39339-0.00380 0.40431
  -7   7 -10  153.41  120.07   1 0.26361-0.81039 0.96460-0.38981-0.00715-0.43738
   7  -7  10   87.68  147.59   1-0.26040 0.80853-0.96547 0.39185 0.00600 0.43899
   7  -6  -7  142.77  186.01   1-0.06388 0.79004-0.38279-0.05739-0.92162 0.61035
   7  -6  -6  -43.75  114.73   1-0.03666 0.75225-0.38325-0.06027-0.92291 0.65611
   7  -6  -5 1009.02  264.68   1-0.00510 0.71012-0.38343-0.06343-0.92355 0.70121
   7  -6  -4  845.88  232.03   1 0.03159 0.66321-0.38308-0.06743-0.92317 0.74538
   7  -6  -3  932.57  259.79   1 0.07255 0.61161-0.38216-0.07169-0.92124 0.78790
   7  -6  -2  -29.91  108.69   1 0.11856 0.55496-0.38035-0.07683-0.91720 0.82831
   7  -6  -1 1577.94  349.03   1 0.16969 0.49319-0.37736-0.08315-0.91038 0.86593
   7  -6   0 2439.73  312.98   1 0.22725 0.42575-0.37153-0.09174-0.90017 0.90017
   7  -6   1  145.90  112.98   1 0.28819 0.35412-0.36514-0.10158-0.88521 0.92966
  -7   6  -2   54.16   66.07   1 0.23500-0.86472 0.97079-0.50060-0.04829-0.04061
   7  -6   2  152.17  172.91   1-0.23381 0.86412-0.97122 0.50138 0.04529 0.04370
   7  -6   2   78.75  137.77   1 0.35340 0.27822-0.35651-0.11367-0.86487 0.95376
  -7   6  -3   63.25   64.53   1 0.24400-0.86306 0.96912-0.49551-0.03546-0.09790
   7  -6   3   11.49   97.07   1-0.24248 0.86218-0.96960 0.49644 0.03258 0.10091
   7  -6   3   47.85   95.57   1 0.42214 0.19828-0.34475-0.12889-0.83841 0.97163
  -7   6  -4 1123.64  241.33   1 0.24969-0.85810 0.96793-0.49090-0.02728-0.15053
   7  -6   4 1447.53  250.72   1-0.24788 0.85698-0.96847 0.49198 0.02461 0.15338
   7  -6   4 1090.13  199.03   1 0.49314 0.11655-0.33056-0.14647-0.80469 0.98232
  -7   6  -5  391.74  106.66   1 0.25270-0.85045 0.96727-0.48681-0.02295-0.19931
   7  -6   5  275.20  144.71   1-0.25063 0.84912-0.96786 0.48805 0.02054 0.20195
   7  -6   5  198.96  137.88   1 0.56575 0.03359-0.31215-0.16911-0.76320 0.98502
  -7   6  -6  105.97   82.36   1 0.25345-0.84055 0.96709-0.48322-0.02186-0.24485
   7  -6   6  110.45  167.67   1-0.25117 0.83906-0.96773 0.48460 0.01975 0.24725
  -7   6  -7 1115.58  359.35   1 0.25229-0.82873 0.96736-0.48006-0.02355-0.28762
   7  -6   7 1847.20  360.83   1-0.24983 0.82711-0.96804 0.48158 0.02174 0.28975
  -7   6  -8   39.94   62.92   1 0.24945-0.81524 0.96799-0.47727-0.02763-0.32799
   7  -6   8   63.66  133.67   1-0.24685 0.81353-0.96869 0.47891 0.02614 0.32985
  -7   6  -9   94.82   87.84   1 0.24514-0.80028 0.96889-0.47475-0.03382-0.36626
   7  -6   9   -9.78  131.48   1-0.24243 0.79851-0.96961 0.47651 0.03265 0.36785
  -7   6 -10  149.44   99.61   1 0.23951-0.78400 0.96998-0.47242-0.04186-0.40268
   7  -6  10  145.54  146.64   1-0.23674 0.78221-0.97070 0.47427 0.04101 0.40398
  -7   6 -11   -6.83  144.50   1 0.23269-0.76652 0.97118-0.47019-0.05156-0.43743
   7  -6  11   89.29  159.23   1-0.22988 0.76474-0.97187 0.47212 0.05103 0.43847
  -7   6 -12 2670.96  730.41   1 0.22478-0.74795 0.97238-0.46798-0.06275-0.47069
   7  -6  12 3920.94  685.78   1-0.22195 0.74621-0.97304 0.46997 0.06253 0.47147
   7  -5  -9   25.76  142.29   1-0.11062 0.85526-0.38133 0.02508-0.91779 0.51759
   7  -5  -8   81.87  138.12   1-0.09149 0.82555-0.38203 0.02244-0.91960 0.56387
   7  -5  -7  193.20  197.30   1-0.06862 0.79211-0.38268 0.01975-0.92132 0.61005
   7  -5  -6  191.81  185.97   1-0.04172 0.75463-0.38319 0.01692-0.92272 0.65592
   7  -5  -5  116.57  177.49   1-0.01051 0.71285-0.38343 0.01382-0.92350 0.70117
   7  -5  -4   11.12  121.95   1 0.02569 0.66639-0.38316 0.00994-0.92332 0.74553
   7  -5  -3 1429.95  287.30   1 0.06618 0.61525-0.38234 0.00580-0.92164 0.78830
   7  -5  -2 1521.24  333.95   1 0.11163 0.55917-0.38067 0.00079-0.91794 0.82905
   7  -5  -1  145.05  176.74   1 0.16207 0.49808-0.37787-0.00533-0.91155 0.86711
   7  -5   0 1336.62  243.52   1 0.21864 0.43154-0.37231-0.01375-0.90198 0.90198
  -7   5  -1  332.74  104.18   1 0.16412-0.80379 0.97586-0.58649-0.14406 0.09963
   7  -5   1  402.15  125.33   1-0.16579 0.80427-0.97603 0.58636 0.14094-0.09648
   7  -5   1  418.00  157.14   1 0.27853 0.36096-0.36626-0.02325-0.88784 0.93229
  -7   5  -2   30.20   54.09   1 0.18282-0.81185 0.97594-0.58309-0.11877 0.02992
   7  -5   2  144.61  149.79   1-0.18404 0.81192-0.97610 0.58315 0.11550-0.02658
   7  -5   2  -75.24   94.59   1 0.34248 0.28632-0.35809-0.03488-0.86860 0.95749
  -7   5  -3  450.29  117.42   1 0.19622-0.81461 0.97540-0.57907-0.10042-0.03285
   7  -5   3  553.66  166.72   1-0.19700 0.81429-0.97557 0.57932 0.09721 0.03616
   7  -5   3  583.33  163.07   1 0.40966 0.20794-0.34697-0.04943-0.84366 0.97689
  -7   5  -4 2037.54  535.77   1 0.20549-0.81323 0.97472-0.57491-0.08761-0.09008
   7  -5   4 2550.80  258.11   1-0.20585 0.81255-0.97491 0.57538 0.08461 0.09323
   7  -5   4 1812.93  218.10   1 0.47899 0.12788-0.33361-0.06617-0.81195 0.98957
  -7   5  -5  -78.21  112.47   1 0.21319-0.80864 0.97381-0.57058-0.07901-0.14325
   7  -5   5   81.50  124.52   1-0.21142 0.80752-0.97438 0.57156 0.07663 0.14566
   7  -5   5   33.64   96.76   1 0.54961 0.04706-0.31634-0.08776-0.77320 0.99502
  -7   5  -6  976.34  232.94   1 0.21633-0.80113 0.97346-0.56681-0.07462-0.19210
   7  -5   6  795.37  191.28   1-0.21462 0.79984-0.97395 0.56802 0.07311 0.19389
  -7   5  -7 2866.64  759.10   1 0.21716-0.79131 0.97336-0.56329-0.07345-0.23772
   7  -5   7 3881.50  338.40   1-0.21526 0.78988-0.97388 0.56462 0.07218 0.23931
  -7   5  -8 2012.17  509.06   1 0.21603-0.77952 0.97349-0.56000-0.07504-0.28059
   7  -5   8 2016.17  274.93   1-0.21397 0.77799-0.97402 0.56144 0.07404 0.28196
  -7   5  -9  144.26   85.26   1 0.21317-0.76602 0.97381-0.55689-0.07903-0.32105
   7  -5   9  255.68  139.46   1-0.21060 0.76431-0.97446 0.55850 0.07781 0.32233
  -7   5 -10   49.37  101.48   1 0.20729-0.75116 0.97456-0.55387-0.08512-0.35913
   7  -5  10    5.29  125.28   1-0.20613 0.74925-0.97489 0.55563 0.08421 0.36039
  -7   5 -11  -15.42  120.59   1 0.20160-0.73483 0.97504-0.55086-0.09300-0.39568
   7  -5  11   54.45  131.37   1-0.20034 0.73287-0.97535 0.55281 0.09246 0.39661
  -7   5 -12  122.76   95.48   1 0.19468-0.71727 0.97549-0.54783-0.10253-0.43058
   7  -5  12  229.46  152.72   1-0.19337 0.71529-0.97577 0.54994 0.10235 0.43117
  -7   5 -13  364.45  155.58   1 0.18664-0.69858 0.97584-0.54470-0.11356-0.46398
   7  -5  13  223.93  129.81   1-0.18530 0.69663-0.97607 0.54696 0.11373 0.46425
  -7   5 -14  110.33  102.23   1 0.17755-0.67885 0.97601-0.54139-0.12593-0.49603
   7  -5  14  141.50  151.79   1-0.17622 0.67695-0.97619 0.54379 0.12645 0.49600
   7  -4 -10  159.73  146.50   1-0.12288 0.87542-0.38081 0.10516-0.91645 0.47177
   7  -4  -9   73.86  245.41   1-0.10729 0.84926-0.38146 0.10248-0.91813 0.51792
   7  -4  -8  182.52  182.09   1-0.08823 0.81961-0.38214 0.09981-0.91988 0.56414
   7  -4  -7  -28.26  110.02   1-0.06541 0.78622-0.38276 0.09709-0.92152 0.61025
   7  -4  -6  236.11  174.03   1-0.03858 0.74881-0.38323 0.09422-0.92284 0.65604
   7  -4  -5  126.75  163.82   1-0.00745 0.70712-0.38343 0.09109-0.92353 0.70120
   7  -4  -4  444.37  195.17   1 0.02854 0.66081-0.38312 0.08722-0.92325 0.74546
   7  -4  -3   14.18  117.80   1 0.06884 0.60986-0.38227 0.08303-0.92148 0.78813
   7  -4  -2   93.47  120.26   1 0.11399 0.55407-0.38056 0.07799-0.91769 0.82880
   7  -4  -1  100.77  169.62   1 0.16401 0.49342-0.37775 0.07184-0.91126 0.86681
   7  -4   0 5043.03  459.82   1 0.21977 0.42758-0.37221 0.06335-0.90175 0.90175
  -7   4  -1  -15.27   59.44   1 0.09524-0.73146 0.96711-0.65446-0.23583 0.19140
   7  -4   1  194.04  137.52   1 0.27881 0.35786-0.36623 0.05392-0.88777 0.93221
  -7   4  -2  612.15  167.97   1 0.11937-0.74590 0.97184-0.65617-0.20314 0.11429
   7  -4   2  989.80  212.58   1 0.34163 0.28434-0.35821 0.04244-0.86888 0.95778
  -7   4  -3  596.49  158.71   1 0.13836-0.75424 0.97419-0.65504-0.17831 0.04503
   7  -4   3  436.87  162.05   1 0.40736 0.20743-0.34737 0.02821-0.84462 0.97784
  -7   4  -4   37.91   38.80   1 0.15219-0.75742 0.97531-0.65267-0.16001-0.01768
   7  -4   4  345.83  133.07   1 0.47501 0.12903-0.33445 0.01190-0.81393 0.99156
  -7   4  -5 8710.43 1072.78   1 0.16190-0.75649 0.97578-0.64967-0.14704-0.07508
   7  -4   510913.42  765.26   1-0.16231 0.75574-0.97591 0.65037 0.14575 0.07654
   7  -4   5 8264.12  613.10   1 0.54354 0.05046-0.31787-0.00906-0.77686 0.99868
  -7   4  -610590.13 1143.59   1 0.16825-0.75220 0.97596-0.64636-0.13850-0.12805
   7  -4   611338.28  785.23   1-0.16835 0.75119-0.97610 0.64727 0.13739 0.12937
  -7   4  -7  -17.15  118.15   1 0.17181-0.74511 0.97601-0.64293-0.13370-0.17728
   7  -4   7  -21.16  114.17   1-0.17164 0.74389-0.97616 0.64404 0.13282 0.17840
  -7   4  -8  181.00  133.60   1 0.17301-0.73567 0.97602-0.63946-0.13208-0.22332
   7  -4   8 -112.35  110.45   1-0.17261 0.73426-0.97617 0.64077 0.13147 0.22420
  -7   4  -9 1862.29  318.56   1 0.17217-0.72418 0.97601-0.63597-0.13322-0.26661
   7  -4   9 2584.56  292.63   1-0.17158 0.72264-0.97616 0.63747 0.13290 0.26724
  -7   4 -10  137.61   97.72   1 0.16956-0.71093 0.97598-0.63246-0.13675-0.30751
   7  -4  10  -53.52  120.61   1-0.16883 0.70928-0.97611 0.63413 0.13673 0.30787
  -7   4 -11 2113.27  446.85   1 0.16537-0.69610 0.97589-0.62889-0.14238-0.34630
   7  -4  11 2856.71  326.70   1-0.16454 0.69439-0.97599 0.63073 0.14267 0.34639
  -7   4 -12  993.23  269.52   1 0.15978-0.67986 0.97570-0.62522-0.14987-0.38323
   7  -4  12  704.65  215.11   1-0.15888 0.67814-0.97576 0.62721 0.15048 0.38304
  -7   4 -13  360.17  126.41   1 0.15292-0.66236 0.97535-0.62139-0.15903-0.41850
  -7   4 -14 2248.19  507.33   1 0.14489-0.64368 0.97478-0.61734-0.16969-0.45227
  -7   4 -15   79.28   78.41   1 0.13579-0.62393 0.97393-0.61300-0.18170-0.48469
   7  -3 -10  105.90  188.06   1-0.11202 0.86188-0.38127 0.18289-0.91764 0.47297
   7  -3  -9   40.97  127.95   1-0.09630 0.83558-0.38187 0.18015-0.91918 0.51897
   7  -3  -8  127.49  134.08   1-0.07707 0.80578-0.38247 0.17740-0.92074 0.56501
   7  -3  -7  677.99  243.85   1-0.05408 0.77221-0.38299 0.17459-0.92216 0.61089
   7  -3  -6  164.86  161.62   1-0.02707 0.73463-0.38335 0.17161-0.92320 0.65640
   7  -3  -5  840.93  222.83   1 0.00420 0.69277-0.38341 0.16833-0.92356 0.70123
   7  -3  -4 6926.04  596.40   1 0.04024 0.64638-0.38294 0.16434-0.92289 0.74510
   7  -3  -3  211.81  231.37   1 0.08058 0.59540-0.38190 0.15997-0.92068 0.78734
   7  -3  -2  978.24  243.77   1 0.12565 0.53969-0.38000 0.15473-0.91641 0.82751
   7  -3  -1 1569.33  251.62   1 0.17540 0.47929-0.37696 0.14837-0.90946 0.86501
  -7   3   0  818.61  146.81   1-0.03297-0.61120 0.91902-0.68711-0.39282 0.39282
   7  -3   0 1182.94  233.03   1 0.23047 0.41406-0.37123 0.13959-0.89947 0.89947
  -7   3  -1   -1.46   57.96   1 0.01067-0.64464 0.94024-0.70489-0.34032 0.29589
   7  -3   1  130.82  101.28   1 0.28873 0.34511-0.36508 0.12998-0.88506 0.92951
  -7   3  -2  360.77  132.10   1 0.04411-0.66743 0.95298-0.71416-0.29980 0.21094
   7  -3   2  651.70  183.07   1 0.35045 0.27270-0.35694 0.11839-0.86589 0.95478
  -7   3  -3 7286.39  624.80   1 0.06958-0.68224 0.96083-0.71855-0.26824 0.13495
   7  -3   3 7588.05  411.11   1 0.41469 0.19728-0.34609 0.10418-0.84157 0.97479
  -7   3  -4   -6.55   54.32   1 0.08883-0.69084 0.96570-0.71995-0.24399 0.06626
   7  -3   4   16.27   90.09   1 0.48056 0.12067-0.33328 0.08798-0.81115 0.98878
  -7   3  -5 4103.20  874.12   1 0.10311-0.69447 0.96870-0.71950-0.22576 0.00360
   7  -3   5 3633.65  299.42   1 0.54678 0.04454-0.31705 0.06728-0.77491 0.99673
  -7   3  -6 3638.66  726.76   1 0.11219-0.69363 0.97070-0.71829-0.21245-0.05410
  -7   3  -7 3098.22  464.66   1 0.11908-0.68988 0.97179-0.71590-0.20352-0.10745
  -7   3  -8  592.17  155.27   1 0.12315-0.68331 0.97238-0.71300-0.19823-0.15717
  -7   3  -9  561.45  161.78   1 0.12482-0.67433 0.97261-0.70975-0.19606-0.20377
  -7   3 -10 1441.61  263.90   1 0.12440-0.66327 0.97255-0.70621-0.19660-0.24765
  -7   3 -11  858.64  206.97   1 0.12215-0.65037 0.97224-0.70242-0.19953-0.28915
  -7   3 -12 2887.13  644.70   1 0.11828-0.63586 0.97168-0.69837-0.20456-0.32855
  -7   3 -13   65.18   93.03   1 0.11296-0.61989 0.97083-0.69405-0.21145-0.36608
  -7   3 -14 1412.53  414.75   1 0.10632-0.60260 0.96968-0.68941-0.22001-0.40195
  -7   3 -15  144.76   62.15   1 0.09963-0.58445 0.96802-0.68418-0.23022-0.43623
  -7   3 -16  -19.52  128.13   1 0.09066-0.56483 0.96611-0.67881-0.24166-0.46922
   7  -2 -11  155.28  204.71   1-0.10613 0.86388-0.38151 0.26373-0.91825 0.42911
   7  -2 -10   26.15  138.46   1-0.09337 0.84056-0.38197 0.26085-0.91944 0.47477
   7  -2  -9   11.47  122.73   1-0.07732 0.81393-0.38246 0.25800-0.92072 0.52052
   7  -2  -8  -17.47  128.71   1-0.05773 0.78376-0.38292 0.25512-0.92197 0.56623
   7  -2  -7  439.99  199.37   1-0.03435 0.74981-0.38328 0.25214-0.92299 0.61172
   7  -2  -5   64.01  138.53   1 0.02496 0.66957-0.38317 0.24521-0.92333 0.70110
   7  -2  -4  338.48  193.74   1 0.06095 0.62293-0.38248 0.24119-0.92194 0.74415
   7  -2  -3 3447.15  328.10   1 0.10149 0.57175-0.38112 0.23649-0.91893 0.78559
   7  -2  -2 1724.13  293.66   1 0.14660 0.51600-0.37884 0.23089-0.91377 0.82487
   7  -2  -1 4640.64  350.57   1 0.19618 0.45578-0.37541 0.22412-0.90585 0.86140
  -7   2   0 1461.48  158.92   1-0.13501-0.50724 0.85183-0.69753-0.50610 0.50610
   7  -2   0 1455.10  212.21   1 0.25057 0.39114-0.36927 0.21485-0.89490 0.89490
  -7   2  -1   97.48   89.15   1-0.08253-0.54864 0.88969-0.73165-0.44903 0.40455
   7  -2   1  161.84  151.26   1 0.30802 0.32300-0.36272 0.20484-0.87951 0.92396
  -7   2  -2 7430.74  476.78   1-0.04197-0.57855 0.91414-0.75267-0.40320 0.31424
   7  -2   2 6105.46  467.64   1 0.36843 0.25147-0.35375 0.19248-0.85971 0.94853
  -7   2  -3 2700.44  552.12   1-0.01012-0.59974 0.93050-0.76560-0.36614 0.23270
   7  -2   3 2278.40  277.40   1 0.43115 0.17800-0.34310 0.17844-0.83449 0.96771
  -7   2  -415235.11 1460.48   1 0.01420-0.61397 0.94172-0.77327-0.33609 0.15837
   7  -2   412959.75  778.48   1 0.49501 0.10340-0.33015 0.16210-0.80371 0.98134
  -7   2  -5  698.51  149.20   1 0.03343-0.62255 0.94921-0.77730-0.31285 0.09069
   7  -2   5  567.77  168.52   1 0.55862 0.03003-0.31402 0.14142-0.76767 0.98949
  -7   2  -6   63.43   52.00   1 0.04802-0.62648 0.95428-0.77891-0.29500 0.02841
  -7   2  -720621.66 1747.89   1 0.05872-0.62653 0.95768-0.77884-0.28177-0.02924
  -7   2  -8 4731.67  852.53   1 0.06615-0.62330 0.95986-0.77757-0.27253-0.08291
  -7   2  -9 1488.20  307.78   1 0.07077-0.61727 0.96116-0.77540-0.26675-0.13312
  -7   2 -10  164.50  109.14   1 0.07298-0.60882 0.96176-0.77253-0.26398-0.18032
  -7   2 -11 3252.32  616.86   1 0.07307-0.59826 0.96178-0.76909-0.26387-0.22486
  -7   2 -12  409.60  123.30   1 0.07130-0.58583 0.96130-0.76515-0.26609-0.26707
  -7   2 -13 2806.45  450.02   1 0.06786-0.57174 0.96035-0.76074-0.27039-0.30720
  -7   2 -14  164.98   78.59   1 0.06292-0.55616 0.95893-0.75586-0.27654-0.34548
  -7   2 -15  792.27  227.68   1 0.05663-0.53921 0.95704-0.75050-0.28436-0.38209
  -7   2 -16  566.57  213.25   1 0.04908-0.52101 0.95464-0.74463-0.29368-0.41720
  -7   2 -17   37.84  140.47   1 0.04038-0.50165 0.95169-0.73823-0.30437-0.45095
   7  -1 -11  693.20  240.66   1-0.07978 0.83486-0.38239 0.34188-0.92054 0.43140
   7  -1 -10  317.73  212.83   1-0.06656 0.81106-0.38273 0.33888-0.92145 0.47678
   7  -1  -9   27.84  138.34   1-0.04999 0.78392-0.38306 0.33587-0.92236 0.52216
   7  -1  -8   28.64  136.05   1-0.02984 0.75320-0.38333 0.33279-0.92312 0.56739
   7  -1  -7 2765.23  362.34   1-0.00590 0.71868-0.38343 0.32956-0.92354 0.61227
   7  -1  -6   76.49  136.78   1 0.02205 0.68014-0.38328 0.32606-0.92336 0.65656
   7  -1  -5    6.30  116.13   1 0.05443 0.63737-0.38265 0.32199-0.92228 0.70005
   7  -1  -4 4954.94  492.34   1 0.09085 0.59030-0.38154 0.31755-0.91987 0.74208
   7  -1  -3  571.54  186.42   1 0.13168 0.53883-0.37968 0.31237-0.91569 0.78235
   7  -1  -2   66.07  110.09   1 0.17688 0.48300-0.37686 0.30621-0.90922 0.82032
  -7   1   1 1691.21  147.35   1-0.29875-0.35159 0.68268-0.60859-0.66684 0.71133
   7  -1  -1 1953.65  257.80   1 0.22671 0.42287-0.37158 0.29782-0.90029 0.85584
  -7   1   0  332.44   99.65   1-0.23228-0.40735 0.76080-0.68325-0.60598 0.60598
   7  -1   0  314.79  167.09   1 0.27986 0.35902-0.36611 0.28890-0.88748 0.88748
  -7   1  -1   57.17   84.11   1-0.17805-0.45113 0.81537-0.73486-0.55086 0.50641
   7  -1   1   44.57  110.82   1 0.33635 0.29184-0.35895 0.27828-0.87063 0.91508
  -7   1  -2 8640.19  529.30   1-0.13312-0.48535 0.85331-0.76943-0.50410 0.41521
   7  -1   2 8277.32  578.43   1 0.39533 0.22175-0.34942 0.26540-0.84947 0.93828
  -7   1  -3 5255.74  397.93   1-0.09589-0.51164 0.88074-0.79315-0.46377 0.33034
   7  -1   3 4408.80  417.13   1 0.45617 0.15016-0.33829 0.25088-0.82307 0.95629
  -7   1  -4 1218.78  181.91   1-0.06623-0.53064 0.90001-0.80898-0.43079 0.25288
   7  -1   4 1106.59  201.16   1 0.51769 0.07790-0.32500 0.23419-0.79143 0.96906
  -7   1  -523474.04 1269.24   1-0.04247-0.54374 0.91386-0.81941-0.40378 0.18138
   7  -1   516834.53  977.34   1 0.57830 0.00767-0.30877 0.21333-0.75512 0.97694
  -7   1  -6  139.20  109.50   1-0.02371-0.55185 0.92383-0.82594-0.38206 0.11519
  -7   1  -7 3940.57  841.06   1-0.00918-0.55572 0.93094-0.82963-0.36503 0.05368
  -7   1  -8 3230.00  698.14   1 0.00116-0.55607 0.93612-0.83112-0.35166-0.00378
  -7   1  -9   15.79   70.99   1 0.00895-0.55321 0.93951-0.83105-0.34237-0.05749
  -7   1 -10 8662.18 1166.30   1 0.01403-0.54763 0.94164-0.82972-0.33630-0.10800
  -7   1 -11 5169.20 1158.71   1 0.01672-0.53966 0.94275-0.82736-0.33307-0.15566
  -7   1 -12   19.15   68.82   1 0.01730-0.52960 0.94299-0.82413-0.33236-0.20080
  -7   1 -13  352.54  130.37   1 0.01602-0.51766 0.94246-0.82014-0.33391-0.24368
  -7   1 -14  366.64  122.33   1 0.01305-0.50403 0.94124-0.81546-0.33747-0.28455
  -7   1 -15   90.82   88.55   1 0.00855-0.48888 0.93934-0.81010-0.34285-0.32360
  -7   1 -16 1671.29  474.61   1 0.00266-0.47234 0.93679-0.80408-0.34987-0.36101
  -7   1 -17  330.24  192.50   1-0.00423-0.45410 0.93325-0.79763-0.35918-0.39694
   7   0 -11   22.51  151.68   1-0.04496 0.79737-0.38314 0.41989-0.92259 0.43345
   7   0 -10  356.40  180.16   1-0.03112 0.77295-0.38331 0.41672-0.92309 0.47842
   7   0  -9 2115.64  403.55   1-0.01387 0.74512-0.38342 0.41349-0.92346 0.52326
   7   0  -8 2053.31  358.41   1 0.00697 0.71370-0.38340 0.41013-0.92355 0.56781
   7   0  -7 3811.26  396.02   1 0.03193 0.67842-0.38307 0.40640-0.92316 0.61203
   7   0  -6 1705.13  318.87   1 0.06050 0.63921-0.38250 0.40249-0.92197 0.65528
   7   0  -5  898.48  227.27   1 0.09318 0.59588-0.38145 0.39811-0.91967 0.69744
   7   0  -4  776.62  211.10   1 0.13008 0.54834-0.37977 0.39309-0.91588 0.73809
   7   0  -3 2231.60  285.30   1 0.17119 0.49659-0.37726 0.38725-0.91014 0.77680
   7   0  -2 2761.73  300.77   1 0.21668 0.44077-0.37248 0.37939-0.90238 0.81349
  -7   0   1  798.01  115.36   1-0.37872-0.26903 0.56630-0.56975-0.73203 0.77653
   7   0  -1  930.44  211.49   1 0.26563 0.38112-0.36769 0.37115-0.89119 0.84675
  -7   0   0  591.41  106.22   1-0.31853-0.31853 0.65607-0.65607-0.68417 0.68417
   7   0   0  866.15  216.52   1 0.31803 0.31803-0.36143 0.36143-0.87648 0.87648
  -7   0  -1  631.24  138.68   1-0.26562-0.36091 0.72346-0.72000-0.63721 0.59272
   7   0   1 1139.53  235.39   1 0.37313 0.25187-0.35302 0.34963-0.85798 0.90239
  -7   0  -2 1367.88  173.82   1-0.21988-0.39596 0.77380-0.76689-0.59403 0.50505
   7   0   2 1998.46  285.18   1 0.43050 0.18376-0.34322 0.33645-0.83478 0.92359
  -7   0  -311730.83  694.72   1-0.18176-0.42365 0.81199-0.80189-0.55463 0.42129
   7   0   310601.95  699.66   1 0.48906 0.11446-0.33146 0.32129-0.80681 0.94003
  -7   0  -4  323.49  126.62   1-0.14925-0.44546 0.84032-0.82684-0.52113 0.34334
   7   0   4  619.63  213.13   1 0.54729 0.04659-0.31693 0.30231-0.77461 0.95206
  -7   0  -5 3422.79  309.48   1-0.12227-0.46174 0.86167-0.84483-0.49250 0.27027
  -7   0  -6    6.10   96.65   1-0.09971-0.47351 0.87810-0.85751-0.46797 0.20110
  -7   0  -7  412.78  137.50   1-0.08186-0.48071 0.89013-0.86612-0.44828 0.13693
  -7   0  -8 6201.53  360.29   1-0.06778-0.48413 0.89906-0.87162-0.43253 0.07671
  -7   0  -9  -10.56  123.03   1-0.05700-0.48426 0.90556-0.87469-0.42035 0.02005
  -7   0 -10 4858.92  373.68   1-0.04913-0.48147 0.91012-0.87582-0.41140-0.03338
  -7   0 -11 2384.07  306.34   1-0.04384-0.47610 0.91311-0.87537-0.40534-0.08391
  -7   0 -12 4936.87  455.45   1-0.04085-0.46844 0.91476-0.87360-0.40190-0.13183
  -7   0 -13   29.18  126.17   1-0.03990-0.45872 0.91528-0.87069-0.40082-0.17739
  -7   0 -14   54.45  114.64   1-0.04081-0.44716 0.91478-0.86676-0.40186-0.22082
  -7   0 -15  107.96  127.84   1-0.04339-0.43392 0.91336-0.86190-0.40483-0.26234
  -7   0 -16   33.27  124.44   1-0.04750-0.41916 0.91105-0.85617-0.40953-0.30211
  -7   0 -17  162.77  190.08   1-0.05301-0.40299 0.90789-0.84958-0.41582-0.34030
  -7   0 -18   48.40  141.39   1-0.05982-0.38552 0.90389-0.84214-0.42356-0.37704
   7   1 -11  175.23  187.17   1-0.00115 0.75087-0.38343 0.49744-0.92356 0.43442
   7   1 -10   32.77  146.25   1 0.01344 0.72570-0.38336 0.49403-0.92349 0.47882
   7   1  -9 2521.87  454.61   1 0.03187 0.69703-0.38308 0.49037-0.92316 0.52314
   7   1  -8 2512.36  461.57   1 0.05345 0.66480-0.38267 0.48663-0.92233 0.56675
   7   1  -7 1892.20  283.12   1 0.07882 0.62880-0.38196 0.48259-0.92080 0.60967
   7   1  -6  453.41  184.11   1 0.10810 0.58888-0.38083 0.47813-0.91830 0.65161
   7   1  -5 1020.82  236.91   1 0.14139 0.54495-0.37914 0.47311-0.91446 0.69223
   7   1  -4 1657.63  276.18   1 0.17870 0.49700-0.37673 0.46736-0.90892 0.73113
   7   1  -3  156.97  216.88   1 0.22007 0.44525-0.37218 0.45977-0.90168 0.76835
  -7  -1   2  -10.38   48.51   1-0.49168-0.16380 0.33673-0.42117-0.80303 0.89206
   7   1  -2    9.11  100.32   1 0.26498 0.38965-0.36776 0.45189-0.89136 0.80247
  -7  -1   1 1542.44  155.30   1-0.43971-0.20573 0.45384-0.53480-0.77502 0.81954
   7   1  -1 1655.35  231.96   1 0.31331 0.33062-0.36204 0.44271-0.87792 0.83347
  -7  -1   0   32.15   63.64   1-0.38908-0.24563 0.54915-0.62659-0.73962 0.73962
   7   1   0  -11.42  101.34   1 0.36459 0.26864-0.35483 0.43205-0.86090 0.86090
  -7  -1  -1  455.36  122.64   1-0.34174-0.28230 0.62332-0.69731-0.70333 0.65883
  -7  -1  -2 8184.21  521.72   1-0.29904-0.31439 0.68230-0.75294-0.66710 0.57812
   7   1   2 7366.25  537.01   1 0.47318 0.13826-0.33483 0.40530-0.81484 0.90366
  -7  -1  -3  116.12   91.22   1-0.26098-0.34176 0.72887-0.79606-0.63294 0.49948
   7   1   3  492.50  192.03   1 0.52840 0.07338-0.32158 0.38779-0.78572 0.91882
  -7  -1  -4  343.37  129.49   1-0.22776-0.36427 0.76559-0.82932-0.60164 0.42369
   7   1   4  567.08  203.67   1 0.58365 0.00755-0.30730 0.36985-0.75160 0.92905
  -7  -1  -5 2793.13  279.60   1-0.19993-0.38171 0.79488-0.85518-0.57287 0.35064
  -7  -1  -6  841.55  163.00   1-0.17585-0.39509 0.81736-0.87430-0.54862 0.28194
  -7  -1  -7 8204.88  558.46   1-0.15574-0.40451 0.83490-0.88846-0.52790 0.21678
  -7  -1  -822261.71  677.07   1-0.13924-0.41031 0.84847-0.89867-0.51058 0.15502
  -7  -1  -9 1179.87  237.99   1-0.12600-0.41285 0.85884-0.90566-0.49649 0.09648
  -7  -1 -10  113.69  121.35   1-0.11569-0.41246 0.86659-0.91005-0.48541 0.04095
  -7  -1 -11   62.91  123.20   1-0.10803-0.40942 0.87217-0.91226-0.47710-0.01179
  -7  -1 -12  376.90  165.90   1-0.10240-0.40454 0.87621-0.91235-0.47091-0.06282
  -7  -1 -13 1849.21  290.46   1-0.09928-0.39701 0.87839-0.91110-0.46750-0.11071
  -7  -1 -14  107.12  115.11   1-0.09812-0.38751 0.87920-0.90848-0.46622-0.15646
  -7  -1 -15  353.51  164.90   1-0.09875-0.37623 0.87877-0.90462-0.46691-0.20026
  -7  -1 -16 2267.40  438.49   1-0.10101-0.36331 0.87719-0.89961-0.46938-0.24226
  -7  -1 -17  283.98  205.78   1-0.10478-0.34889 0.87453-0.89352-0.47349-0.28263
  -7  -1 -18  -22.97  134.63   1-0.11028-0.33229 0.87055-0.88705-0.47954-0.32047
   7   2 -11  -96.42  123.12   1 0.05269 0.69476-0.38269 0.57395-0.92237 0.43345
   7   2 -10  233.36  184.40   1 0.06804 0.66877-0.38229 0.57022-0.92153 0.47705
   7   2  -9  -65.79  122.54   1 0.08685 0.63932-0.38168 0.56628-0.92020 0.52017
   7   2  -8   74.14  127.49   1 0.10926 0.60627-0.38078 0.56205-0.91818 0.56260
   7   2  -6  400.55  169.64   1 0.16532 0.52893-0.37766 0.55226-0.91106 0.64438
   7   2  -5  496.41  187.34   1 0.19915 0.48473-0.37395 0.54567-0.90580 0.68357
   7   2  -4   99.14  105.87   1 0.23654 0.43664-0.37066 0.53891-0.89813 0.72035
  -7  -2   3   35.83   67.34   1-0.56157-0.10190 0.12357-0.28889-0.81814 0.95192
   7   2  -3   24.13   97.21   1 0.27755 0.38494-0.36637 0.53117-0.88810 0.75476
  -7  -2   2   43.96   59.61   1-0.52495-0.12786 0.24729-0.40918-0.81441 0.90344
   7   2  -2    2.30  102.87   1 0.32190 0.32990-0.36092 0.52226-0.87527 0.78638
  -7  -2   1   55.38   63.24   1-0.48481-0.15733 0.35346-0.51187-0.80001 0.84453
   7   2  -1   48.32  116.73   1 0.36899 0.27186-0.35367 0.51155-0.85951 0.81510
  -7  -2   0  -12.95   64.08   1-0.44412-0.18805 0.44496-0.59989-0.77766 0.77766
   7   2   0  -75.87  112.47   1 0.41868 0.21143-0.34538 0.49988-0.83989 0.83989
  -7  -2  -1 1604.01  211.96   1-0.40392-0.21753 0.52116-0.67260-0.75182 0.70730
   7   2   1 1247.62  233.96   1 0.47008 0.14928-0.33547 0.48658-0.81637 0.86078
  -7  -2  -2  295.17  118.25   1-0.36649-0.24450 0.58585-0.73382-0.72280 0.63380
   7   2   2  113.34  175.73   1 0.52184 0.08784-0.32315 0.47017-0.78946 0.87818
  -7  -2  -3 3012.91  297.20   1-0.33147-0.26885 0.63809-0.78261-0.69495 0.56145
   7   2   3 2303.14  299.53   1 0.57403 0.02508-0.30994 0.45331-0.75790 0.89099
  -7  -2  -4  750.13  155.64   1-0.30012-0.28951 0.68091-0.82218-0.66804 0.49009
  -7  -2  -5   27.57  105.78   1-0.27198-0.30696 0.71593-0.85375-0.64301 0.42057
  -7  -2  -6  292.83  164.25   1-0.24734-0.32089 0.74437-0.87873-0.62026 0.35333
  -7  -2  -7 1488.58  227.62   1-0.22611-0.33142 0.76733-0.89824-0.60006 0.28864
  -7  -2  -8 5970.49  382.49   1-0.20887-0.33830 0.78611-0.91345-0.58171 0.22615
  -7  -2  -9 1226.83  251.33   1-0.19398-0.34250 0.80059-0.92456-0.56693 0.16692
  -7  -2 -10 5626.12  395.03   1-0.18187-0.34391 0.81189-0.93250-0.55474 0.11028
  -7  -2 -1112657.80  900.21   1-0.17234-0.34275 0.82051-0.93774-0.54503 0.05612
  -7  -2 -12  102.70  125.11   1-0.16516-0.33922 0.82682-0.94069-0.53766 0.00431
  -7  -2 -13  -35.68  112.67   1-0.16015-0.33353 0.83114-0.94164-0.53248-0.04530
  -7  -2 -14  793.01  232.71   1-0.15714-0.32585 0.83371-0.94084-0.52935-0.09288
  -7  -2 -15    1.01  131.25   1-0.15596-0.31633 0.83471-0.93847-0.52813-0.13855
  -7  -2 -16 2448.88  460.98   1-0.15648-0.30512 0.83427-0.93467-0.52866-0.18246
  -7  -2 -17   70.70  195.80   1-0.15856-0.29233 0.83250-0.92953-0.53083-0.22474
  -7  -2 -18  318.57  220.12   1-0.16210-0.27809 0.82947-0.92312-0.53450-0.26551
   7   3 -10   26.58  120.83   1 0.13231 0.60177-0.37965 0.64489-0.91561 0.47114
   7   3  -9   30.66  115.57   1 0.15190 0.57154-0.37852 0.64043-0.91304 0.51301
   7   3  -8  115.46  174.00   1 0.17504 0.53776-0.37699 0.63557-0.90952 0.55394
   7   3  -7 3169.91  530.94   1 0.20186 0.50058-0.37374 0.62957-0.90530 0.59417
   7   3  -6  967.55  225.80   1 0.23208 0.45967-0.37108 0.62346-0.89912 0.63244
   7   3  -5  389.24  167.53   1 0.26588 0.41518-0.36767 0.61659-0.89113 0.66890
   7   3  -4 3827.46  383.98   1 0.30310 0.36726-0.36334 0.60880-0.88097 0.70318
  -7  -3   3 1141.37  170.60   1-0.57436-0.08639 0.05806-0.30049-0.81653 0.94986
   7   3  -3 1877.11  267.13   1 0.34352 0.31615-0.35794 0.59995-0.86825 0.73491
  -7  -3   2  269.84  157.37   1-0.54937-0.10082 0.16815-0.40740-0.81847 0.90766
   7   3  -2   72.69  134.06   1 0.38655 0.26222-0.35088 0.58940-0.85290 0.76409
  -7  -3   1 9619.91  405.05   1-0.51896-0.12052 0.26459-0.50045-0.81281 0.85733
   7   3  -1 8682.87  428.44   1 0.43221 0.20582-0.34291 0.57804-0.83402 0.78961
  -7  -3   0  200.35  110.35   1-0.48647-0.14232 0.34945-0.58182-0.80076 0.80076
   7   3   0   44.06   92.47   1 0.47965 0.14764-0.33347 0.56522-0.81161 0.81161
  -7  -3  -1  218.51   88.65   1-0.45403-0.16488 0.42446-0.65337-0.78337 0.73885
   7   3   1   59.44  106.73   1 0.52760 0.08998-0.32177 0.54962-0.78618 0.83055
  -7  -3  -220388.84  584.71   1-0.42171-0.18647 0.48871-0.71413-0.76374 0.67471
   7   3   215661.57  578.03   1 0.57622 0.03079-0.30934 0.53353-0.75648 0.84521
  -7  -3  -3  780.85  171.33   1-0.39172-0.20625 0.54470-0.76666-0.74152 0.60801
  -7  -3  -4 2958.13  293.52   1-0.36300-0.22428 0.59130-0.80981-0.72012 0.54212
  -7  -3  -5 5601.75  438.78   1-0.33671-0.23990 0.63061-0.84567-0.69925 0.47674
  -7  -3  -610659.30  488.28   1-0.31302-0.25291 0.66354-0.87514-0.67950 0.41249
  -7  -3  -7  436.92  176.73   1-0.29245-0.26269 0.69074-0.89919-0.66132 0.34990
  -7  -3  -823328.70  713.54   1-0.27413-0.27030 0.71335-0.91835-0.64496 0.28905
  -7  -3  -9   43.39  134.30   1-0.25841-0.27532 0.73183-0.93338-0.63058 0.23018
  -7  -3 -10 3850.92  398.76   1-0.24519-0.27783 0.74676-0.94485-0.61824 0.17336
  -7  -3 -11  834.39  216.76   1-0.23434-0.27799 0.75859-0.95323-0.60795 0.11858
  -7  -3 -12 2791.84  356.55   1-0.22572-0.27591 0.76774-0.95892-0.59968 0.06582
  -7  -3 -13 2645.51  323.08   1-0.21918-0.27174 0.77452-0.96225-0.59335 0.01501
  -7  -3 -14  475.00  187.10   1-0.21460-0.26563 0.77920-0.96347-0.58888-0.03394
  -7  -3 -15  573.65  185.46   1-0.21183-0.25769 0.78199-0.96281-0.58618-0.08113
  -7  -3 -16  165.58  153.46   1-0.21077-0.24806 0.78306-0.96042-0.58513-0.12667
  -7  -3 -17   58.90  136.53   1-0.21129-0.23683 0.78253-0.95644-0.58565-0.17064
   7   4  -9  -45.86  104.23   1 0.22739 0.49361-0.37152 0.71148-0.90014 0.50012
   7   4  -8  -23.55  159.19   1 0.25085 0.45946-0.36924 0.70575-0.89483 0.53926
   7   4  -7  -18.88  104.40   1 0.27774 0.42188-0.36635 0.69940-0.88805 0.57692
   7   4  -6 1214.79  298.24   1 0.30800 0.38093-0.36272 0.69232-0.87952 0.61284
   7   4  -5 1621.71  269.81   1 0.34148 0.33675-0.35823 0.68437-0.86893 0.64670
  -7  -4   4   26.52   69.18   1-0.60081-0.06765-0.09567-0.22756-0.79364 0.97140
   7   4  -4  107.04  141.14   1 0.37766 0.28977-0.35231 0.67486-0.85629 0.67866
  -7  -4   3   72.63   81.51   1-0.58562-0.07226 0.00239-0.32222-0.81057 0.94390
   7   4  -3   24.32   94.38   1 0.41689 0.23980-0.34570 0.66486-0.84064 0.70742
  -7  -4   2  789.85  158.00   1-0.56794-0.07959 0.09826-0.41492-0.81718 0.90636
   7   4  -2  551.43  169.63   1 0.45840 0.18755-0.33785 0.65362-0.82202 0.73320
  -7  -4   1   -6.51  107.83   1-0.54474-0.09216 0.18395-0.49712-0.81817 0.86276
   7   4  -1  206.86  160.00   1 0.50166 0.13355-0.32867 0.64105-0.80018 0.75578
  -7  -4   0  447.92  128.36   1-0.51966-0.10647 0.26260-0.57242-0.81301 0.81301
   7   4   0  208.20  110.29   1 0.54552 0.07996-0.31737 0.62604-0.77567 0.77567
  -7  -4  -1  106.34   73.04   1-0.49319-0.12226 0.33299-0.63933-0.80366 0.75914
   7   4   1  204.66  107.94   1 0.59014 0.02476-0.30548 0.61050-0.74726 0.79162
  -7  -4  -2  673.22  189.38   1-0.46708-0.13856 0.39627-0.69916-0.79044 0.70140
  -7  -4  -3  230.94  147.03   1-0.44087-0.15404 0.45152-0.75091-0.77572 0.64217
  -7  -4  -4 5753.31  380.73   1-0.41574-0.16845 0.49981-0.79572-0.75982 0.58175
  -7  -4  -5  664.00  173.59   1-0.39318-0.18107 0.54221-0.83471-0.74256 0.52006
  -7  -4  -6 1203.10  236.05   1-0.37141-0.19216 0.57807-0.86711-0.72655 0.45954
  -7  -4  -7 2287.98  291.84   1-0.35163-0.20126 0.60867-0.89426-0.71124 0.39973
  -7  -4  -8 1685.05  288.96   1-0.33395-0.20827 0.63456-0.91670-0.69699 0.34098
  -7  -4  -9  721.42  224.77   1-0.31838-0.21316 0.65628-0.93497-0.68404 0.28353
  -7  -4 -10 1301.75  239.24   1-0.30542-0.21521 0.67399-0.94963-0.67263 0.22775
  -7  -4 -11 1057.73  264.30   1-0.29404-0.21589 0.68871-0.96090-0.66272 0.17335
  -7  -4 -12  564.50  184.46   1-0.28465-0.21458 0.70050-0.96923-0.65441 0.12056
  -7  -4 -13 2714.02  331.28   1-0.27718-0.21135 0.70966-0.97494-0.64771 0.06937
  -7  -4 -14  150.99  144.24   1-0.27153-0.20630 0.71646-0.97828-0.64260 0.01977
  -7  -4 -15  334.09  145.27   1-0.26761-0.19951 0.72112-0.97948-0.63903-0.02828
  -7  -4 -16 1104.72  309.94   1-0.26533-0.19109 0.72380-0.97871-0.63695-0.07485
  -7  -4 -17  199.04  155.79   1-0.26460-0.18112 0.72465-0.97611-0.63628-0.12001
   7   5  -8  184.77  180.60   1 0.33641 0.37108-0.35895 0.77267-0.87061 0.51504
   7   5  -7  169.55  151.09   1 0.36255 0.33429-0.35465 0.76462-0.86184 0.55099
   7   5  -6  471.58  181.48   1 0.39227 0.29384-0.34994 0.75651-0.85068 0.58424
  -7  -5   5  232.52  119.34   1-0.61127-0.06508-0.22439-0.17943-0.75894 0.98161
   7   5  -5  218.13  106.55   1 0.42480 0.25056-0.34427 0.74746-0.83726 0.61523
  -7  -5   4 4193.27  336.22   1-0.60507-0.06069-0.13626-0.26417-0.78442 0.96256
   7   5  -4 4174.26  354.18   1 0.45984 0.20478-0.33756 0.73736-0.82133 0.64370
  -7  -5   3  111.77  153.88   1-0.59449-0.06052-0.05010-0.34713-0.80253 0.93585
   7   5  -3  232.24  157.85   1 0.49702 0.15686-0.32971 0.72612-0.80265 0.66943
  -7  -5   2  700.55  148.39   1-0.58003-0.06440 0.03121-0.42504-0.81399 0.90287
   7   5  -2  657.08  182.94   1 0.53567 0.10829-0.31982 0.71296-0.78151 0.69278
  -7  -5   1 2093.53  285.48   1-0.56479-0.06945 0.11098-0.50156-0.81773 0.86232
   7   5  -1 1507.64  238.40   1 0.57535 0.05804-0.30958 0.69907-0.75705 0.71268
  -7  -5   0 1917.54  226.70   1-0.54519-0.07842 0.18244-0.56953-0.81821 0.81821
  -7  -5  -1  691.68  154.78   1-0.52459-0.08820 0.24836-0.63215-0.81431 0.76980
  -7  -5  -2  338.49  144.41   1-0.50294-0.09916 0.30813-0.68843-0.80752 0.71848
  -7  -5  -3   55.87  110.67   1-0.48120-0.11022 0.36203-0.73884-0.79835 0.66480
  -7  -5  -4 1751.61  274.69   1-0.46055-0.12110 0.41057-0.78394-0.78697 0.60890
  -7  -5  -5 4364.11  434.06   1-0.44004-0.13088 0.45319-0.82307-0.77522 0.55263
  -7  -5  -6  434.43  183.37   1-0.42067-0.13952 0.49066-0.85705-0.76307 0.49596
  -7  -5  -7   71.61  122.86   1-0.40269-0.14678 0.52333-0.88624-0.75097 0.43934
  -7  -5  -8 1495.26  266.09   1-0.38754-0.15232 0.55173-0.91131-0.73850 0.38249
  -7  -5  -9  129.91  127.54   1-0.37281-0.15637 0.57583-0.93196-0.72761 0.32709
  -7  -5 -10 3795.61  377.22   1-0.35980-0.15871 0.59626-0.94893-0.71764 0.27263
  -7  -5 -11 1155.95  267.18   1-0.34850-0.15932 0.61335-0.96257-0.70876 0.21924
  -7  -5 -12 4348.86  415.70   1-0.33893-0.15821 0.62740-0.97317-0.70106 0.16704
  -7  -5 -13  754.25  246.78   1-0.33105-0.15542 0.63868-0.98100-0.69461 0.11609
  -7  -5 -14 1153.69  283.63   1-0.32481-0.15098 0.64743-0.98630-0.68943 0.06641
  -7  -5 -15   94.29  139.93   1-0.32015-0.14496 0.65386-0.98927-0.68553 0.01801
  -7  -5 -16  147.88  145.03   1-0.31703-0.13741 0.65812-0.99008-0.68290-0.02911
   7   6  -6   41.94  100.44   1 0.48477 0.19851-0.33238 0.81621-0.80901 0.54257
  -7  -6   5  300.38  146.99   1-0.61218-0.06135-0.25324-0.22796-0.74906 0.97173
   7   6  -5  122.76  142.52   1 0.51536 0.15718-0.32554 0.80598-0.79272 0.57069
  -7  -6   4  171.01  124.57   1-0.60850-0.05445-0.17620-0.30160-0.77373 0.95187
   7   6  -4  128.37  136.74   1 0.54815 0.11428-0.31671 0.79433-0.77409 0.59663
  -7  -6   3   53.59   88.83   1-0.60139-0.05075-0.10040-0.37424-0.79261 0.92594
   7   6  -3   32.62   96.71   1 0.58192 0.06994-0.30778 0.78174-0.75274 0.61965
  -7  -6   2  220.69  116.09   1-0.59100-0.05057-0.02817-0.44306-0.80617 0.89506
  -7  -6   1 1111.66  262.90   1-0.57808-0.05291 0.04072-0.50854-0.81496 0.85940
  -7  -6   0 7322.17  487.99   1-0.56540-0.05555 0.10853-0.57304-0.81763 0.81763
  -7  -6  -112574.70  587.64   1-0.54903-0.06129 0.16935-0.63036-0.81846 0.77387
  -7  -6  -2   71.66  181.90   1-0.53174-0.06795 0.22563-0.68314-0.81629 0.72711
  -7  -6  -3  116.86  133.32   1-0.51450-0.07426 0.27709-0.73136-0.81148 0.67792
  -7  -6  -4 1961.49  320.29   1-0.49680-0.08128 0.32393-0.77470-0.80514 0.62707
  -7  -6  -5  131.33  131.94   1-0.47944-0.08796 0.36617-0.81345-0.79752 0.57493
  -7  -6  -6 3563.70  386.91   1-0.46347-0.09419 0.40421-0.84807-0.78854 0.52143
  -7  -6  -7 1452.63  264.19   1-0.44768-0.09926 0.43769-0.87807-0.77974 0.46812
  -7  -6  -8   40.93  121.33   1-0.43296-0.10324 0.46717-0.90405-0.77089 0.41475
  -7  -6  -9  228.12  181.05   1-0.41949-0.10599 0.49288-0.92627-0.76229 0.36163
  -7  -6 -10 1302.99  252.44   1-0.40733-0.10742 0.51507-0.94497-0.75416 0.30899
  -7  -6 -11   17.88  130.40   1-0.39658-0.10744 0.53400-0.96041-0.74669 0.25700
  -7  -6 -12  589.89  212.55   1-0.38875-0.10604 0.54971-0.97292-0.73938 0.20536
  -7  -6 -13  931.02  269.87   1-0.38090-0.10321 0.56273-0.98248-0.73364 0.15513
  -7  -6 -14  -51.92  137.15   1-0.37449-0.09894 0.57314-0.98944-0.72887 0.10585
  -7  -6 -15 1726.04  390.48   1-0.36949-0.09326 0.58112-0.99397-0.72509 0.05757
  -7  -7   5  872.76  245.52   1-0.61265-0.05843-0.28506-0.27336-0.73715 0.96013
  -7  -7   4   50.33  102.67   1-0.61092-0.04921-0.21655-0.33863-0.76149 0.93963
  -7  -7   3   60.41  107.86   1-0.60634-0.04321-0.14972-0.40207-0.78098 0.91458
  -7  -7   2  -79.06  106.78   1-0.59938-0.03932-0.08447-0.46416-0.79599 0.88487
  -7  -7   1 5457.63  816.31   1-0.59001-0.03811-0.02230-0.52292-0.80708 0.85152
  -7  -7   0   26.08  131.76   1-0.57886-0.03868 0.03692-0.57875-0.81458 0.81458
  -7  -7  -1  -38.60  139.46   1-0.56862-0.03904 0.09544-0.63387-0.81703 0.77244
  -7  -7  -2 3566.44  377.45   1-0.55507-0.04196 0.14790-0.68284-0.81854 0.72935
  -7  -7  -3  578.56  219.75   1-0.54091-0.04549 0.19662-0.72806-0.81777 0.68399
  -7  -7  -4   73.59  129.18   1-0.52700-0.04841 0.24125-0.76948-0.81490 0.63682
  -7  -7  -5 1994.00  298.70   1-0.51264-0.05210 0.28221-0.80695-0.81089 0.58830
  -7  -7  -6 3057.33  341.40   1-0.49858-0.05547 0.31939-0.84063-0.80585 0.53874
  -7  -7  -7 1060.61  306.60   1-0.48506-0.05831 0.35285-0.87061-0.80012 0.48850
  -7  -7  -8  411.12  198.64   1-0.47227-0.06043 0.38273-0.89699-0.79402 0.43788
  -7  -7  -9 7302.68 1055.72   1-0.46113-0.06181 0.40930-0.92016-0.78728 0.38663
  -7  -7 -10  285.48  177.31   1-0.45022-0.06199 0.43243-0.93980-0.78121 0.33603
  -7  -7 -11 1877.12  407.23   1-0.44040-0.06109 0.45247-0.95635-0.77544 0.28575
  -7  -7 -12 2139.48  465.24   1-0.43172-0.05903 0.46959-0.96997-0.77012 0.23591
  -7  -7 -13  116.93  146.66   1-0.42424-0.05579 0.48394-0.98083-0.76538 0.18665
  -7  -8   3  219.06  203.39   1-0.60990-0.03684-0.19722-0.43194-0.76754 0.90114
  -7  -8   2  289.74  190.46   1-0.60531-0.03083-0.13878-0.48699-0.78378 0.87285
  -7  -8   1  269.04  186.66   1-0.59907-0.02618-0.08210-0.54053-0.79647 0.84091
  -7  -8   0    4.65  122.17   1-0.59098-0.02369-0.02805-0.59117-0.80619 0.80619
  -7  -8  -1 4515.26  721.95   1-0.58160-0.02249 0.02339-0.63922-0.81313 0.76869
  -7  -8  -2  278.30  160.71   1-0.57357-0.02080 0.07441-0.68676-0.81576 0.72658
  -7  -8  -3  288.95  194.98   1-0.56248-0.02126 0.12006-0.72892-0.81804 0.68426
  -7  -8  -4   65.19  130.06   1-0.55097-0.02214 0.16256-0.76791-0.81853 0.64016
  -7  -8  -5  -30.40  125.54   1-0.53931-0.02317 0.20182-0.80368-0.81756 0.59460
  -7  -8  -6  792.97  255.17   1-0.52829-0.02310 0.23739-0.83610-0.81519 0.54808
  -7  -8  -7 2449.58  474.00   1-0.51700-0.02371 0.27012-0.86534-0.81224 0.50061
  -7  -8  -8  733.13  238.46   1-0.50615-0.02388 0.29969-0.89141-0.80869 0.45255
  -7  -8  -9 -204.90  137.99   1-0.49591-0.02344 0.32617-0.91440-0.80478 0.40412
  -7  -8 -10 1305.90  334.49   1-0.48639-0.02228 0.34965-0.93439-0.80072 0.35554
  -7  -8 -11  214.31  130.49   1-0.47770-0.02029 0.37024-0.95149-0.79669 0.30699
  -7  -9  -1  271.55  173.82   1-0.59334-0.00789-0.04262-0.65059-0.80382 0.75938
  -7  -9  -2  218.65  198.65   1-0.58563-0.00501 0.00237-0.69219-0.81057 0.72168
  -7  -9  -3  699.74  267.78   1-0.57720-0.00286 0.04489-0.73130-0.81536 0.68203
  -7  -9  -4   51.79  145.92   1-0.57062 0.00016 0.08708-0.76986-0.81657 0.63820
  -7  -9  -5  258.40  226.34   1-0.56139 0.00156 0.12429-0.80357-0.81816 0.59520
  -7  -9  -6 1912.87  435.43   1-0.55206 0.00286 0.15871-0.83450-0.81855 0.55099
  -7  -9  -7  286.66  167.42   1-0.54283 0.00426 0.19032-0.86261-0.81799 0.50584
   8  -7   0   12.73  114.15   1 0.30625 0.44045-0.36294-0.17754-0.88004 0.88004
   8  -7   1  507.65  213.97   1 0.35965 0.37636-0.35558-0.18836-0.86267 0.90712
   8  -6  -3  280.40  188.47   1 0.15318 0.62182-0.37844-0.07541-0.91285 0.77951
   8  -6  -2  170.41  129.95   1 0.19404 0.57032-0.37557-0.08160-0.90624 0.81735
   8  -6  -1  249.33  201.44   1 0.24018 0.51439-0.37031-0.08951-0.89731 0.85287
   8  -6   0    2.84  105.58   1 0.28884 0.45504-0.36507-0.09820-0.88503 0.88503
   8  -6   1  131.75  145.13   1 0.34110 0.39208-0.35829-0.10844-0.86906 0.91351
   8  -6   2  178.21  150.62   1 0.39658 0.32541-0.34921-0.12104-0.84897 0.93779
   8  -6   3  479.59  185.14   1 0.45462 0.25662-0.33860-0.13505-0.82380 0.95702
  -8   6  -4  325.04  157.34   1 0.16462-0.86598 0.97587-0.49889-0.14339-0.03431
   8  -6   4  416.66  144.96   1 0.51451 0.18600-0.32574-0.15130-0.79320 0.97082
  -8   6  -5  130.52  110.56   1 0.17316-0.86387 0.97602-0.49555-0.13188-0.09024
   8  -6   5  181.26  128.59   1-0.17375 0.86333-0.97618 0.49608 0.12989 0.09241
   8  -6   5  100.51  102.39   1 0.57596 0.11426-0.30941-0.17185-0.75665 0.97847
  -8   6  -6  714.94  257.61   1 0.17878-0.85885 0.97600-0.49206-0.12426-0.14229
   8  -6   6  842.60  252.77   1-0.17909 0.85808-0.97618 0.49280 0.12243 0.14433
  -8   6  -7  294.56  169.65   1 0.18195-0.85137 0.97596-0.48853-0.11995-0.19102
   8  -6   7  246.77  184.28   1-0.18202 0.85041-0.97614 0.48947 0.11834 0.19288
  -8   6  -8   -4.91  123.03   1 0.18301-0.84179 0.97594-0.48502-0.11850-0.23690
   8  -6   8   15.06  130.89   1-0.18287 0.84067-0.97613 0.48617 0.11714 0.23854
  -8   6  -9  238.73  121.06   1 0.18224-0.83038 0.97595-0.48156-0.11955-0.28028
   8  -6   9  390.74  244.01   1-0.18193 0.82913-0.97614 0.48290 0.11846 0.28168
  -8   6 -10  333.50  141.14   1 0.17986-0.81735 0.97599-0.47812-0.12280-0.32145
   8  -6  10  218.33  168.34   1-0.17940 0.81600-0.97618 0.47964 0.12201 0.32259
   8  -5  -5  165.63  136.50   1 0.07817 0.71539-0.38198 0.01210-0.92085 0.69862
   8  -5  -4  -43.41  128.86   1 0.11064 0.67228-0.38072 0.00750-0.91804 0.74025
   8  -5  -3  320.15  188.07   1 0.14698 0.62529-0.37882 0.00227-0.91372 0.78038
   8  -5  -2  795.62  251.76   1 0.18724 0.57439-0.37610-0.00377-0.90746 0.81856
   8  -5  -1   93.16  127.05   1 0.23255 0.51919-0.37104-0.01156-0.89902 0.85457
   8  -5   0  248.03  144.03   1 0.28039 0.46066-0.36605-0.02001-0.88734 0.88734
   8  -5   1  -59.46  103.64   1 0.33169 0.39866-0.35960-0.02992-0.87216 0.91660
   8  -5   2  -88.59  105.35   1 0.38601 0.33316-0.35096-0.04205-0.85311 0.94193
  -8   5  -3 1114.37  306.29   1 0.10688-0.81517 0.96941-0.57254-0.22091 0.08762
   8  -5   3 1187.83  264.66   1 0.44283 0.26559-0.34090-0.05550-0.82926 0.96248
  -8   5  -4   35.08   43.25   1 0.12088-0.81973 0.97206-0.57225-0.20119 0.02348
   8  -5   4   95.34  103.58   1 0.50139 0.19630-0.32873-0.07106-0.80033 0.97796
  -8   5  -5  631.00  202.89   1 0.13245-0.82066 0.97356-0.57027-0.18608-0.03604
   8  -5   5  296.63  129.53   1 0.56129 0.12627-0.31333-0.09077-0.76601 0.98783
  -8   5  -6  629.30  211.01   1 0.14063-0.81820 0.97441-0.56764-0.17532-0.09123
  -8   5  -7   85.13   52.16   1 0.14599-0.81291 0.97487-0.56462-0.16824-0.14273
  -8   5  -8  246.05  110.24   1 0.14893-0.80521 0.97509-0.56136-0.16434-0.19106
  -8   5  -9  974.04  343.96   1 0.14979-0.79542 0.97515-0.55793-0.16320-0.23663
  -8   5 -10  120.19   97.15   1 0.14883-0.78381 0.97508-0.55439-0.16448-0.27978
  -8   5 -11   85.74  130.03   1 0.14624-0.77059 0.97489-0.55071-0.16790-0.32078
  -8   5 -12  230.02  112.98   1 0.14221-0.75590 0.97455-0.54689-0.17324-0.35986
   8  -4  -7  220.40  207.17   1 0.02737 0.78473-0.38314 0.09723-0.92328 0.61215
   8  -4  -6  -15.82  138.28   1 0.05226 0.74920-0.38270 0.09345-0.92239 0.65571
   8  -4  -5  773.78  237.86   1 0.08075 0.71007-0.38190 0.08932-0.92066 0.69843
   8  -4  -4  -97.68  123.35   1 0.11296 0.66723-0.38061 0.08470-0.91780 0.74001
   8  -4  -3  -16.08  120.75   1 0.14897 0.62057-0.37870 0.07946-0.91344 0.78010
   8  -4  -2  348.16  160.11   1 0.18881 0.57009-0.37598 0.07341-0.90718 0.81829
   8  -4  -1  229.44  181.82   1 0.23343 0.51549-0.37095 0.06556-0.89883 0.85438
   8  -4   0  698.68  207.75   1 0.28058 0.45764-0.36603 0.05717-0.88729 0.88729
   8  -4   1  627.14  214.42   1 0.33105 0.39649-0.35969 0.04738-0.87236 0.91681
   8  -4   2 3464.69  385.00   1 0.38430 0.33205-0.35124 0.03547-0.85377 0.94259
  -8   4  -3  192.17   79.21   1 0.04957-0.75561 0.95479-0.63522-0.29308 0.15979
   8  -4   3  357.19  194.71   1 0.43993 0.26568-0.34145 0.02229-0.83058 0.96380
  -8   4  -4 1837.50  423.32   1 0.06948-0.76487 0.96080-0.63777-0.26836 0.09064
   8  -4   4 2420.61  349.76   1 0.49713 0.19774-0.32968 0.00713-0.80259 0.98022
  -8   4  -5   59.57   63.99   1 0.08464-0.76937 0.96472-0.63821-0.24929 0.02714
   8  -4   5  159.72  164.07   1 0.55537 0.12951-0.31486-0.01207-0.76968 0.99150
  -8   4  -6   25.85   48.61   1 0.09589-0.76997 0.96725-0.63728-0.23499-0.03158
  -8   4  -7  656.58  201.79   1 0.10389-0.76732 0.96885-0.63543-0.22475-0.08625
  -8   4  -8 3481.84  828.35   1 0.10778-0.76155 0.96994-0.63339-0.21813-0.13727
  -8   4  -9   93.28   67.67   1 0.11066-0.75379 0.97045-0.63041-0.21442-0.18541
  -8   4 -10  400.87   93.13   1 0.11147-0.74395 0.97058-0.62706-0.21337-0.23088
  -8   4 -11 1908.89  482.30   1 0.11046-0.73230 0.97041-0.62341-0.21468-0.27401
  -8   4 -12   -0.77  137.52   1 0.10783-0.71902 0.96995-0.61947-0.21807-0.31504
  -8   4 -13  409.16  143.78   1 0.10504-0.70455 0.96907-0.61487-0.22328-0.35431
   8  -3  -8   52.23  132.59   1 0.01590 0.80367-0.38334 0.17828-0.92346 0.56773
   8  -3  -7   59.93  141.91   1 0.03787 0.77151-0.38298 0.17438-0.92297 0.61184
   8  -3  -6   32.64  127.92   1 0.06274 0.73599-0.38244 0.17050-0.92184 0.65516
   8  -3  -5  575.66  182.61   1 0.09118 0.69691-0.38152 0.16626-0.91984 0.69761
   8  -3  -4 1973.79  367.31   1 0.12328 0.65417-0.38012 0.16152-0.91668 0.73889
   8  -3  -3  105.71  162.45   1 0.15911 0.60770-0.37807 0.15614-0.91200 0.77865
   8  -3  -2  362.12  198.29   1 0.19956 0.55723-0.37392 0.14920-0.90573 0.81684
   8  -3  -1  159.11  205.31   1 0.24266 0.50343-0.37006 0.14188-0.89675 0.85230
   8  -3   0 1723.03  296.05   1 0.28920 0.44620-0.36502 0.13338-0.88493 0.88493
   8  -3   1   60.18  122.26   1 0.33886 0.38584-0.35860 0.12351-0.86981 0.91425
  -8   3  -2   86.27   85.45   1-0.04662-0.66726 0.91155-0.67277-0.40853 0.31957
   8  -3   2  178.00  172.25   1 0.39106 0.32247-0.35014 0.11161-0.85115 0.93997
  -8   3  -3  548.84  146.77   1-0.01571-0.68752 0.92781-0.68561-0.37270 0.23927
   8  -3   3  808.51  209.50   1 0.44545 0.25734-0.34040 0.09848-0.82806 0.96128
  -8   3  -4 5151.83  831.38   1 0.00809-0.70123 0.93915-0.69340-0.34340 0.16568
   8  -3   4 5387.53  452.95   1 0.50120 0.19085-0.32877 0.08347-0.80043 0.97806
  -8   3  -5 1950.16  371.93   1 0.02716-0.70964 0.94686-0.69766-0.32047 0.09832
   8  -3   5 1642.01  296.08   1 0.55763 0.12458-0.31428 0.06451-0.76828 0.99010
  -8   3  -6 2906.36  612.90   1 0.04185-0.71368 0.95220-0.69953-0.30257 0.03599
  -8   3  -7   46.34   60.23   1 0.05288-0.71406 0.95586-0.69973-0.28900-0.02200
  -8   3  -8   52.16   57.90   1 0.06080-0.71132 0.95830-0.69871-0.27919-0.07625
  -8   3  -9 4220.96  734.84   1 0.06604-0.70591 0.95983-0.69678-0.27266-0.12720
  -8   3 -10  777.62  302.20   1 0.06895-0.69817 0.96066-0.69413-0.26902-0.17527
  -8   3 -11  529.81  191.32   1 0.06982-0.68839 0.96090-0.69091-0.26794-0.22079
  -8   3 -12   98.98  118.76   1 0.06887-0.67679 0.96063-0.68719-0.26912-0.26404
  -8   3 -13   82.51   83.41   1 0.06630-0.66356 0.95991-0.68300-0.27233-0.30526
  -8   3 -14  -11.62  136.13   1 0.06226-0.64886 0.95874-0.67836-0.27737-0.34465
   8  -2  -8  140.63  143.28   1 0.03443 0.78285-0.38304 0.25507-0.92308 0.56751
   8  -2  -7   30.48  133.25   1 0.05603 0.75061-0.38261 0.25131-0.92220 0.61107
   8  -2  -6  679.98  225.64   1 0.08103 0.71497-0.38189 0.24726-0.92064 0.65396
   8  -2  -5  196.85  144.12   1 0.10955 0.67582-0.38077 0.24281-0.91815 0.69592
   8  -2  -4 1493.78  337.79   1 0.14166 0.63307-0.37913 0.23784-0.91443 0.73664
   8  -2  -3 4040.64  392.69   1 0.17739 0.58670-0.37682 0.23220-0.90913 0.77579
   8  -2  -2  208.17  167.82   1 0.21742 0.53655-0.37242 0.22490-0.90223 0.81334
   8  -2  -1 2652.61  315.40   1 0.26012 0.48315-0.36828 0.21731-0.89258 0.84813
   8  -2   0   -0.08  116.50   1 0.30605 0.42653-0.36297 0.20854-0.88010 0.88010
  -8   2  -1 2105.01  243.40   1-0.16659-0.55603 0.82558-0.66791-0.53913 0.49468
   8  -2   1 2177.09  323.39   1 0.35487 0.36702-0.35630 0.19841-0.86435 0.90880
  -8   2  -2  844.41  157.77   1-0.12336-0.58856 0.86085-0.69981-0.49367 0.40478
   8  -2   2  643.21  221.20   1 0.40594 0.30477-0.34762 0.18634-0.84520 0.93401
  -8   2  -3   30.55   78.84   1-0.08747-0.61342 0.88644-0.72154-0.45449 0.32106
   8  -2   3 -116.01  115.78   1 0.45898 0.24100-0.33773 0.17307-0.82174 0.95496
  -8   2  -4  445.45  143.53   1-0.05907-0.63116 0.90433-0.73600-0.42271 0.24479
   8  -2   4  614.22  223.21   1 0.51311 0.17612-0.32606 0.15801-0.79397 0.97160
  -8   2  -5 1367.45  255.77   1-0.03626-0.64332 0.91726-0.74550-0.39662 0.17422
   8  -2   5 1193.52  248.73   1 0.56749 0.11204-0.31169 0.13908-0.76209 0.98392
  -8   2  -6  117.07  112.04   1-0.01813-0.65079 0.92662-0.75143-0.37554 0.10867
  -8   2  -7  -13.60  112.18   1-0.00398-0.65428 0.93337-0.75475-0.35888 0.04753
  -8   2  -8 2272.71  568.00   1 0.00618-0.65446 0.93832-0.75603-0.34569-0.00975
  -8   2  -9   25.52   46.64   1 0.01399-0.65162 0.94163-0.75587-0.33634-0.06353
  -8   2 -10   14.95   58.20   1 0.01924-0.64621 0.94377-0.75454-0.33003-0.11427
  -8   2 -11  258.96  135.56   1 0.02223-0.63855 0.94495-0.75227-0.32643-0.16230
  -8   2 -12  264.42  138.72   1 0.02321-0.62887 0.94534-0.74919-0.32525-0.20791
  -8   2 -13  253.93   92.92   1 0.02239-0.61740 0.94502-0.74540-0.32624-0.25135
  -8   2 -14   76.02   74.50   1 0.01995-0.60431 0.94405-0.74097-0.32918-0.29284
  -8   2 -15   51.82  142.32   1 0.01603-0.58974 0.94247-0.73593-0.33389-0.33256
   8  -1  -9   69.06  136.47   1 0.04160 0.78360-0.38291 0.33559-0.92284 0.52282
   8  -1  -8  -68.93  126.75   1 0.06020 0.75435-0.38250 0.33185-0.92198 0.56641
   8  -1  -7  108.34  139.31   1 0.08206 0.72186-0.38185 0.32786-0.92057 0.60944
   8  -1  -6  452.21  223.91   1 0.10728 0.68600-0.38087 0.32355-0.91838 0.65169
   8  -1  -5 4829.88  762.82   1 0.13595 0.64669-0.37945 0.31880-0.91516 0.69293
   8  -1  -4 1353.51  315.43   1 0.16812 0.60387-0.37747 0.31349-0.91062 0.73284
   8  -1  -3  778.19  239.08   1 0.20438 0.55745-0.37353 0.30669-0.90482 0.77148
   8  -1  -2   41.35  123.65   1 0.24339 0.50775-0.36999 0.29969-0.89658 0.80769
   8  -1  -1  210.36  158.65   1 0.28565 0.45480-0.36544 0.29168-0.88591 0.84147
   8  -1   0 1886.57  322.83   1 0.33090 0.39885-0.35971 0.28249-0.87241 0.87241
  -8   1  -1  272.47   98.06   1-0.24359-0.47638 0.74853-0.66753-0.61673 0.57224
   8  -1   1  527.29  176.74   1 0.37859 0.34005-0.35216 0.27152-0.85594 0.90035
  -8   1  -2 2109.52  244.88   1-0.19956-0.50999 0.79523-0.71135-0.57250 0.48361
   8  -1   2 2335.50  356.38   1 0.42856 0.27933-0.34358 0.25956-0.83563 0.92444
  -8   1  -3   50.90   74.74   1-0.16205-0.53680 0.82951-0.74225-0.53445 0.40111
   8  -1   3  -36.74  116.66   1 0.48004 0.21712-0.33339 0.24598-0.81142 0.94464
  -8   1  -4   98.19  143.37   1-0.13080-0.55736 0.85513-0.76450-0.50163 0.32384
   8  -1   4  222.50  205.54   1 0.53220 0.15524-0.32066 0.22888-0.78353 0.96099
  -8   1  -5  668.99  173.04   1-0.10437-0.57287 0.87482-0.78037-0.47305 0.25066
   8  -1   5  494.86  172.79   1 0.58436 0.09250-0.30710 0.21166-0.75113 0.97295
  -8   1  -6 2431.71  292.81   1-0.08324-0.58335 0.88923-0.79134-0.44981 0.18294
  -8   1  -7 2511.91  319.10   1-0.06620-0.58973 0.90003-0.79871-0.43075 0.11941
  -8   1  -8  106.27  127.22   1-0.05272-0.59255 0.90806-0.80331-0.41549 0.05967
  -8   1  -9  151.45  130.80   1-0.04237-0.59224 0.91392-0.80575-0.40366 0.00335
  -8   1 -10  511.69  169.62   1-0.03477-0.58918 0.91806-0.80645-0.39490-0.04987
  -8   1 -11  156.78  127.86   1-0.02961-0.58369 0.92079-0.80575-0.38893-0.10033
  -8   1 -12   51.40  114.29   1-0.02662-0.57602 0.92234-0.80387-0.38545-0.14827
  -8   1 -13  471.49  178.50   1-0.02558-0.56640 0.92287-0.80097-0.38425-0.19396
  -8   1 -14  545.23  202.78   1-0.02630-0.55502 0.92250-0.79717-0.38508-0.23760
  -8   1 -15  999.97  293.36   1-0.02863-0.54204 0.92130-0.79254-0.38778-0.27938
  -8   1 -16 1390.45  390.33   1-0.03241-0.52760 0.91931-0.78712-0.39217-0.31947
   8   0  -9  295.48  170.34   1 0.07501 0.74746-0.38208 0.41207-0.92107 0.52105
   8   0  -8   85.49  139.83   1 0.09396 0.71787-0.38142 0.40807-0.91961 0.56403
   8   0  -7  141.76  124.01   1 0.11613 0.68505-0.38046 0.40378-0.91747 0.60634
   8   0  -6   42.44  140.04   1 0.14162 0.64893-0.37913 0.39912-0.91443 0.64775
   8   0  -5 2804.43  513.32   1 0.17048 0.60943-0.37731 0.39397-0.91025 0.68802
   8   0  -4  491.12  224.70   1 0.20317 0.56653-0.37363 0.38746-0.90505 0.72726
   8   0  -3 1679.23  334.60   1 0.23865 0.52036-0.37046 0.38083-0.89766 0.76432
   8   0  -2  420.17  165.39   1 0.27735 0.47096-0.36640 0.37331-0.88815 0.79926
   8   0  -1  -35.31  113.48   1 0.31906 0.41856-0.36130 0.36475-0.87616 0.83171
  -8   0   0  621.93  137.95   1-0.36404-0.36404 0.58969-0.58969-0.72092 0.72092
   8   0   0  591.58  187.19   1 0.36346 0.36346-0.35501 0.35501-0.86131 0.86131
  -8   0  -1   16.28   59.40   1-0.31467-0.40273 0.66132-0.65786-0.68090 0.63640
   8   0   1  226.28  204.25   1 0.40998 0.30584-0.34692 0.34353-0.84353 0.88794
  -8   0  -2 1707.12  193.18   1-0.27121-0.43566 0.71684-0.70993-0.64231 0.55334
   8   0   2 2038.63  315.95   1 0.45846 0.24662-0.33784 0.33106-0.82199 0.91080
  -8   0  -3  284.75  148.08   1-0.23328-0.46288 0.75973-0.74936-0.60694 0.47348
   8   0   3  213.36  166.29   1 0.50810 0.18624-0.32721 0.31705-0.79671 0.92994
  -8   0  -4   37.37  101.60   1-0.20155-0.48423 0.79331-0.77983-0.57448 0.39669
   8   0   4  134.64  119.76   1 0.55788 0.12688-0.31421 0.29960-0.76813 0.94558
  -8   0  -5 8290.82  620.92   1-0.17394-0.50115 0.81908-0.80223-0.54667 0.32444
  -8   0  -6  -29.42  102.80   1-0.15071-0.51368 0.83911-0.81890-0.52265 0.25597
  -8   0  -7 1302.06  251.49   1-0.13142-0.52228 0.85465-0.83107-0.50228 0.19116
  -8   0  -8 6734.29  558.36   1-0.11565-0.52735 0.86662-0.83967-0.48536 0.12979
  -8   0  -9   -1.59  137.43   1-0.10258-0.52970 0.87609-0.84522-0.47110 0.07079
  -8   0 -10 4160.69  357.69   1-0.09277-0.52885 0.88287-0.84857-0.46035 0.01557
  -8   0 -11 2511.60  322.72   1-0.08550-0.52546 0.88774-0.85001-0.45232-0.03693
  -8   0 -12  132.38  121.60   1-0.08051-0.51980 0.89101-0.84984-0.44678-0.08695
  -8   0 -13   40.02  112.89   1-0.07758-0.51207 0.89290-0.84831-0.44351-0.13470
  -8   0 -14 1092.84  287.37   1-0.07651-0.50248 0.89358-0.84556-0.44232-0.18037
  -8   0 -15  429.52  169.06   1-0.07715-0.49118 0.89317-0.84172-0.44303-0.22413
  -8   0 -16  111.78  144.99   1-0.07935-0.47832 0.89176-0.83687-0.44549-0.26615
   8   1  -9   70.32  139.61   1 0.11660 0.70314-0.38044 0.48773-0.91742 0.51739
   8   1  -8  186.59  164.97   1 0.13593 0.67317-0.37945 0.48341-0.91517 0.55959
   8   1  -7  677.31  224.41   1 0.15843 0.64003-0.37811 0.47874-0.91210 0.60097
   8   1  -6  -69.96  117.75   1 0.18417 0.60365-0.37633 0.47363-0.90799 0.64131
   8   1  -5  199.87  181.87   1 0.21350 0.56407-0.37276 0.46726-0.90303 0.68079
   8   1  -4  259.01  190.66   1 0.24561 0.52126-0.36977 0.46081-0.89606 0.71828
   8   1  -3  210.03  180.38   1 0.28087 0.47532-0.36599 0.45358-0.88721 0.75387
   8   1  -2  134.93  126.00   1 0.31909 0.42640-0.36129 0.44542-0.87615 0.78725
   8   1  -1   71.25  118.92   1 0.36003 0.37477-0.35553 0.43620-0.86253 0.81809
  -8  -1   0  622.97  117.04   1-0.41960-0.30615 0.49267-0.57014-0.76236 0.76236
   8   1   0  861.24  228.50   1 0.40315 0.32060-0.34810 0.42535-0.84633 0.84633
  -8  -1  -1 1118.19  196.83   1-0.37629-0.33875 0.57024-0.64422-0.73022 0.68572
   8   1   1  907.14  224.52   1 0.44840 0.26460-0.33982 0.41368-0.82670 0.87111
  -8  -1  -2 1464.16  210.05   1-0.33624-0.36812 0.63127-0.70181-0.69887 0.60987
   8   1   2 1572.53  267.69   1 0.49505 0.20721-0.33014 0.40061-0.80369 0.89250
  -8  -1  -3  159.71  106.39   1-0.30034-0.39343 0.68063-0.74781-0.66822 0.53476
   8   1   3  338.92  182.15   1 0.54213 0.15053-0.31822 0.38443-0.77770 0.91079
  -8  -1  -4  812.31  198.68   1-0.26826-0.41481 0.72035-0.78408-0.63962 0.46167
   8   1   4  792.40  229.64   1 0.58954 0.09255-0.30565 0.36821-0.74766 0.92512
  -8  -1  -5 4319.12  418.11   1-0.24016-0.43221 0.75230-0.81257-0.61348 0.39104
  -8  -1  -6 1149.10  213.76   1-0.21585-0.44581 0.77792-0.83474-0.59011 0.32318
  -8  -1  -7  456.64  169.80   1-0.19605-0.45527 0.79862-0.85218-0.56900 0.25788
  -8  -1  -8 1260.24  244.87   1-0.17869-0.46193 0.81480-0.86499-0.55151 0.19594
  -8  -1  -9  933.44  196.54   1-0.16434-0.46558 0.82753-0.87436-0.53681 0.13680
  -8  -1 -10  146.68  133.54   1-0.15275-0.46648 0.83741-0.88087-0.52478 0.08032
  -8  -1 -11 1315.87  263.48   1-0.14367-0.46486 0.84490-0.88498-0.51526 0.02636
  -8  -1 -12 3262.84  349.21   1-0.13689-0.46094 0.85035-0.88706-0.50810-0.02524
  -8  -1 -13   39.94  112.76   1-0.13220-0.45493 0.85404-0.88738-0.50312-0.07466
  -8  -1 -14 1112.39  286.90   1-0.12944-0.44699 0.85618-0.88616-0.50018-0.12205
  -8  -1 -15  -33.54  134.50   1-0.12845-0.43729 0.85695-0.88356-0.49912-0.16756
  -8  -1 -16  468.69  192.96   1-0.12908-0.42596 0.85647-0.87971-0.49979-0.21133
   8   2  -8  -16.73  130.15   1 0.18629 0.62007-0.37617 0.55744-0.90762 0.55204
   8   2  -7  211.27  150.95   1 0.20940 0.58674-0.37311 0.55173-0.90384 0.59272
   8   2  -6  733.32  235.77   1 0.23517 0.55027-0.37079 0.54596-0.89844 0.63176
   8   2  -5  744.62  227.96   1 0.26406 0.51069-0.36786 0.53957-0.89159 0.66936
   8   2  -4  928.06  233.32   1 0.29597 0.46808-0.36421 0.53247-0.88303 0.70524
   8   2  -3 1148.56  240.35   1 0.33078 0.42258-0.35972 0.52452-0.87245 0.73911
   8   2  -2  260.54  154.32   1 0.36803 0.37438-0.35382 0.51509-0.85986 0.77104
  -8  -2   1  420.02   95.66   1-0.50144-0.23167 0.31203-0.47043-0.80696 0.85147
   8   2  -1  947.84  210.65   1 0.40791 0.32376-0.34728 0.50516-0.84439 0.79998
  -8  -2   0  702.13  140.79   1-0.46437-0.25884 0.40224-0.55717-0.78902 0.78902
   8   2   0  567.30  183.15   1 0.44979 0.27114-0.33955 0.49405-0.82606 0.82606
  -8  -2  -1 2022.06  266.35   1-0.42738-0.28511 0.47797-0.62942-0.76738 0.72287
   8   2   1 2029.73  303.33   1 0.49320 0.21698-0.33055 0.48166-0.80466 0.84906
  -8  -2  -2 8289.09  610.42   1-0.39263-0.30938 0.54314-0.69111-0.74217 0.65317
   8   2   2 6814.74  595.92   1 0.53723 0.16333-0.31943 0.46646-0.78059 0.86932
  -8  -2  -3  212.33  185.13   1-0.35975-0.33158 0.59633-0.74085-0.71760 0.58410
   8   2   3   21.58  102.15   1 0.58188 0.10811-0.30779 0.45116-0.75277 0.88586
  -8  -2  -4 1836.42  274.47   1-0.32965-0.35100 0.64066-0.78173-0.69345 0.51545
  -8  -2  -5 8089.38  621.87   1-0.30284-0.36712 0.67737-0.81519-0.67040 0.44796
  -8  -2  -6  978.62  194.75   1-0.27877-0.38049 0.70773-0.84209-0.64915 0.38222
  -8  -2  -7   91.30  124.79   1-0.25769-0.39088 0.73267-0.86358-0.62990 0.31849
  -8  -2  -8  -28.06  123.81   1-0.23948-0.39838 0.75303-0.88049-0.61284 0.25694
  -8  -2  -9 4274.45  391.44   1-0.22401-0.40316 0.76953-0.89353-0.59803 0.19763
  -8  -2 -10 1772.70  308.30   1-0.21110-0.40537 0.78273-0.90327-0.58546 0.14058
  -8  -2 -11 1963.77  318.02   1-0.20161-0.40455 0.79325-0.91049-0.57453 0.08563
  -8  -2 -12  312.26  162.51   1-0.19340-0.40206 0.80114-0.91501-0.56635 0.03300
  -8  -2 -13   49.43  113.04   1-0.18725-0.39751 0.80692-0.91742-0.56018-0.01761
  -8  -2 -14   29.75  127.34   1-0.18302-0.39104 0.81084-0.91797-0.55590-0.06633
  -8  -2 -15  129.51  193.94   1-0.18056-0.38280 0.81309-0.91685-0.55341-0.11327
  -8  -2 -16   78.91  136.38   1-0.17976-0.37291 0.81383-0.91422-0.55259-0.15853
   8   3  -8  183.56  159.52   1 0.24539 0.55861-0.36979 0.62909-0.89611 0.54054
   8   3  -7  211.88  180.88   1 0.26815 0.52516-0.36742 0.62326-0.89055 0.57943
   8   3  -6    4.08  120.37   1 0.29388 0.48874-0.36447 0.61685-0.88362 0.61694
   8   3  -5   -4.40  115.62   1 0.32252 0.44940-0.36084 0.60976-0.87508 0.65285
   8   3  -4  664.75  227.41   1 0.35394 0.40729-0.35643 0.60190-0.86468 0.68689
   8   3  -3  227.61  168.28   1 0.38770 0.36263-0.35069 0.59260-0.85246 0.71924
   8   3  -2   77.67  112.01   1 0.42408 0.31551-0.34440 0.58293-0.83757 0.74876
  -8  -3   1  214.62  132.44   1-0.52949-0.20105 0.23247-0.46822-0.81583 0.86042
   8   3  -1  110.10  108.45   1 0.46247 0.26638-0.33703 0.57217-0.82007 0.77566
  -8  -3   0 1342.06  216.49   1-0.49963-0.22013 0.31669-0.54906-0.80626 0.80626
   8   3   0 1109.26  231.82   1 0.50246 0.21565-0.32849 0.56024-0.79976 0.79976
  -8  -3  -1   33.80   86.62   1-0.46903-0.24006 0.39004-0.61892-0.79238 0.74786
   8   3   1  103.20  116.06   1 0.54318 0.16529-0.31796 0.54581-0.77707 0.82144
  -8  -3  -2 1074.32  237.92   1-0.43944-0.25978 0.45439-0.67981-0.77486 0.68582
   8   3   2  773.91  204.51   1 0.58469 0.11320-0.30701 0.53121-0.75091 0.83964
  -8  -3  -3  768.87  210.74   1-0.41047-0.27802 0.50943-0.73136-0.75629 0.62274
  -8  -3  -4   16.29   97.70   1-0.38412-0.29417 0.55743-0.77594-0.73601 0.55800
  -8  -3  -5 2560.89  323.62   1-0.35901-0.30861 0.59747-0.81252-0.71703 0.49452
  -8  -3  -6  318.54  165.03   1-0.33616-0.32078 0.63139-0.84299-0.69880 0.43179
  -8  -3  -7  838.48  228.78   1-0.31567-0.33059 0.65996-0.86811-0.68175 0.37024
  -8  -3  -8 3406.63  351.77   1-0.29795-0.33752 0.68371-0.88872-0.66614 0.31024
  -8  -3  -9  409.35  174.36   1-0.28218-0.34259 0.70355-0.90510-0.65220 0.25181
  -8  -3 -10 6471.54  450.08   1-0.26868-0.34538 0.71985-0.91794-0.64001 0.19513
  -8  -3 -11  617.31  209.98   1-0.25736-0.34601 0.73305-0.92769-0.62960 0.14023
  -8  -3 -12  233.26  114.11   1-0.24810-0.34456 0.74352-0.93471-0.62097 0.08711
  -8  -3 -13   95.57  123.59   1-0.24080-0.34116 0.75159-0.93932-0.61409 0.03575
  -8  -3 -14  676.41  240.51   1-0.23535-0.33591 0.75751-0.94178-0.60891-0.01391
  -8  -3 -15  463.44  217.01   1-0.23163-0.32893 0.76150-0.94231-0.60536-0.06195
  -8  -3 -16 1465.42  346.84   1-0.22954-0.32032 0.76371-0.94108-0.60336-0.10844
   8   4  -7  246.03  175.80   1 0.33511 0.45537-0.35913 0.69218-0.87104 0.55992
   8   4  -6  221.70  176.22   1 0.36047 0.41932-0.35546 0.68505-0.86238 0.59570
   8   4  -5  295.41  173.56   1 0.38815 0.38085-0.35061 0.67655-0.85229 0.63025
   8   4  -4   49.43  111.89   1 0.41871 0.33955-0.34537 0.66792-0.83987 0.66224
   8   4  -3  234.75  170.17   1 0.45152 0.29600-0.33921 0.65838-0.82526 0.69203
  -8  -4   2  275.48  131.55   1-0.57336-0.16516 0.07533-0.39200-0.81583 0.90501
   8   4  -2  436.58  194.30   1 0.48629 0.25048-0.33205 0.64783-0.80823 0.71942
  -8  -4   1 1071.51  211.54   1-0.55168-0.17620 0.16005-0.47322-0.81854 0.86314
   8   4  -1 1016.99  232.22   1 0.52253 0.20441-0.32298 0.63531-0.78907 0.74470
  -8  -4   0   85.44   94.12   1-0.52818-0.18892 0.23771-0.54754-0.81517 0.81517
   8   4   0   24.53  103.94   1 0.55985 0.15652-0.31370 0.62237-0.76690 0.76690
  -8  -4  -1 4636.01  368.75   1-0.50332-0.20310 0.30714-0.61347-0.80766 0.76314
   8   4   1 3758.21  332.56   1 0.59790 0.10789-0.30328 0.60829-0.74197 0.78634
  -8  -4  -2 2863.40  327.25   1-0.47817-0.21757 0.36913-0.67198-0.79691 0.70788
  -8  -4  -3 2372.55  308.67   1-0.45405-0.23191 0.42443-0.72383-0.78338 0.64983
  -8  -4  -4 1073.83  230.56   1-0.43019-0.24504 0.47257-0.76848-0.76916 0.59109
  -8  -4  -5  268.32  158.33   1-0.40762-0.25688 0.51456-0.80698-0.75436 0.53177
  -8  -4  -6    5.86  121.18   1-0.38774-0.26684 0.55139-0.84044-0.73865 0.47164
  -8  -4  -7   -6.38  129.57   1-0.36858-0.27533 0.58257-0.86816-0.72439 0.41289
  -8  -4  -811034.27  551.38   1-0.35127-0.28195 0.60921-0.89135-0.71095 0.35494
  -8  -4  -9  -15.91  123.05   1-0.33588-0.28666 0.63179-0.91048-0.69858 0.29806
  -8  -4 -10 1289.50  281.47   1-0.32242-0.28945 0.65074-0.92598-0.68743 0.24242
  -8  -4 -11  810.61  223.58   1-0.31084-0.29035 0.66646-0.93824-0.67764 0.18813
  -8  -4 -12   96.13  126.72   1-0.30155-0.28871 0.67905-0.94778-0.66928 0.13543
  -8  -4 -13  909.47  251.74   1-0.29360-0.28596 0.68927-0.95455-0.66233 0.08399
  -8  -4 -14  119.45  146.03   1-0.28736-0.28150 0.69713-0.95895-0.65682 0.03399
  -8  -4 -15  649.21  228.65   1-0.28275-0.27540 0.70285-0.96121-0.65272-0.01459
   8   5  -6  131.79  120.75   1 0.43406 0.34286-0.34256 0.74914-0.83320 0.56676
   8   5  -5   48.02  108.44   1 0.46100 0.30518-0.33733 0.74052-0.82077 0.59874
   8   5  -4  359.75  206.12   1 0.49011 0.26533-0.33123 0.73103-0.80627 0.62864
   8   5  -3   35.02  109.35   1 0.52128 0.22414-0.32328 0.72008-0.78977 0.65668
  -8  -5   2  115.19   93.90   1-0.58363-0.15190 0.01297-0.40680-0.81191 0.90079
   8   5  -2  456.26  151.96   1 0.55358 0.18126-0.31532 0.70847-0.77078 0.68205
  -8  -5   1  986.96  243.56   1-0.56929-0.15593 0.09265-0.48324-0.81689 0.86148
   8   5  -1  711.03  195.16   1 0.58707 0.13720-0.30635 0.69584-0.74932 0.70496
  -8  -5   0  277.39  150.44   1-0.55071-0.16389 0.16350-0.55059-0.81852 0.81852
  -8  -5  -1   18.26  109.06   1-0.53077-0.17320 0.22859-0.61218-0.81610 0.77151
  -8  -5  -2 1060.98  248.51   1-0.51053-0.18255 0.28797-0.66827-0.81020 0.72116
  -8  -5  -3 3493.78  386.78   1-0.48980-0.19260 0.34137-0.71818-0.80222 0.66866
  -8  -5  -4 1361.07  269.97   1-0.46940-0.20232 0.38921-0.76253-0.79257 0.61450
  -8  -5  -5  589.94  213.48   1-0.45042-0.21154 0.43202-0.80190-0.78132 0.55874
  -8  -5  -6  -42.83  124.23   1-0.43175-0.21948 0.46953-0.83592-0.77014 0.50303
  -8  -5  -7  142.90  127.04   1-0.41432-0.22619 0.50242-0.86532-0.75888 0.44726
  -8  -5  -8  267.20  149.98   1-0.39828-0.23150 0.53105-0.89046-0.74789 0.39175
  -8  -5  -9 3056.73  527.43   1-0.38508-0.23511 0.55584-0.91196-0.73671 0.33620
  -8  -5 -10   41.20  125.31   1-0.37216-0.23735 0.57688-0.92955-0.72711 0.28210
  -8  -5 -11 1495.78  342.24   1-0.36083-0.23801 0.59467-0.94389-0.71844 0.22892
  -8  -5 -12  281.16  153.66   1-0.35108-0.23707 0.60949-0.95526-0.71080 0.17679
  -8  -5 -13  293.76  191.91   1-0.34291-0.23457 0.62161-0.96392-0.70427 0.12576
  -8  -5 -14   24.89  136.69   1-0.33627-0.23053 0.63123-0.97010-0.69889 0.07587
   8   6  -4  147.78  156.52   1 0.56707 0.18625-0.31180 0.78942-0.76236 0.58490
   8   6  -3  224.83  158.57   1 0.59526 0.14749-0.30403 0.77800-0.74379 0.61069
  -8  -6   2 1927.77  376.64   1-0.59334-0.13932-0.04266-0.42857-0.80381 0.89270
  -8  -6   1  655.07  224.39   1-0.58103-0.14105 0.02625-0.49408-0.81345 0.85789
  -8  -6   0   79.86  110.99   1-0.56893-0.14300 0.09415-0.55866-0.81697 0.81697
  -8  -6  -1 3261.74  540.97   1-0.55320-0.14810 0.15464-0.61565-0.81856 0.77396
  -8  -6  -2  255.40  149.31   1-0.53658-0.15410 0.21054-0.66805-0.81716 0.72797
  -8  -6  -3  640.78  234.41   1-0.51995-0.15978 0.26175-0.71602-0.81309 0.67954
  -8  -6  -4 1637.33  345.47   1-0.50288-0.16617 0.30830-0.75908-0.80750 0.62942
  -8  -6  -5  232.48  208.55   1-0.48610-0.17227 0.35035-0.79764-0.80059 0.57800
  -8  -6  -6  868.35  272.85   1-0.46990-0.17779 0.38807-0.83186-0.79283 0.52572
  -8  -6  -7 3184.73  549.83   1-0.45527-0.18269 0.42184-0.86221-0.78407 0.47245
  -8  -6  -8  495.42  200.32   1-0.44089-0.18635 0.45149-0.88837-0.77573 0.41959
  -8  -6  -9   82.64  127.36   1-0.42763-0.18889 0.47749-0.91088-0.76754 0.36689
  -8  -6 -10  608.80  217.24   1-0.41559-0.19019 0.50008-0.92998-0.75973 0.31455
  -8  -6 -11  190.82  150.95   1-0.40485-0.19021 0.51951-0.94592-0.75246 0.26277
  -8  -6 -12  950.52  320.72   1-0.39543-0.18890 0.53598-0.95890-0.74588 0.21167
  -8  -6 -13  293.83  213.27   1-0.38889-0.18623 0.54947-0.96922-0.73948 0.16096
  -8  -7   2  821.76  263.24   1-0.60087-0.12891-0.09617-0.45246-0.79353 0.88241
  -8  -7   1 3687.03  618.45   1-0.59190-0.12731-0.03365-0.51158-0.80530 0.84974
  -8  -7   0  -19.84  121.75   1-0.58113-0.12749 0.02573-0.56756-0.81339 0.81339
  -8  -7  -1   -6.59  121.68   1-0.57123-0.12742 0.08449-0.62292-0.81642 0.77183
  -8  -7  -2  115.63  179.05   1-0.55807-0.12995 0.13686-0.67180-0.81842 0.72924
  -8  -7  -3   86.67  130.32   1-0.54429-0.13310 0.18545-0.71689-0.81813 0.68435
  -8  -7  -4 1668.17  366.66   1-0.53024-0.13652 0.23021-0.75815-0.81599 0.63762
  -8  -7  -5   48.54  134.63   1-0.51671-0.13899 0.27092-0.79566-0.81215 0.58956
  -8  -7  -6   50.60  140.94   1-0.50297-0.14205 0.30806-0.82931-0.80753 0.54042
  -8  -7  -7 1510.04  375.35   1-0.48972-0.14463 0.34156-0.85931-0.80218 0.49056
  -8  -7  -8 1240.27  340.49   1-0.47713-0.14653 0.37155-0.88582-0.79641 0.44027
  -8  -7  -9 1003.37  373.63   1-0.46616-0.14782 0.39831-0.90917-0.78996 0.38930
  -8  -7 -10   13.00  135.81   1-0.45532-0.14793 0.42174-0.92911-0.78409 0.33892
  -8  -7 -11  479.14  220.78   1-0.44550-0.14702 0.44215-0.94603-0.77847 0.28878
  -8  -8  -3  123.16  147.87   1-0.56447-0.11025 0.11224-0.72109-0.81778 0.68400
  -8  -8  -4  317.40  191.46   1-0.55316-0.11094 0.15480-0.76016-0.81856 0.64019
  -8  -8  -5 1483.72  372.03   1-0.54167-0.11179 0.19412-0.79598-0.81786 0.59490
  -8  -8  -6   -6.01  140.06   1-0.53078-0.11158 0.22988-0.82858-0.81573 0.54862
  -8  -8  -7 1011.03  347.26   1-0.51962-0.11206 0.26272-0.85794-0.81299 0.50137
   9  -5   0   19.40  130.79   1 0.33914 0.49278-0.35856-0.02749-0.86971 0.86971
   9  -5   1  189.35  187.15   1 0.38345 0.43728-0.35138-0.03824-0.85410 0.89850
   9  -5   2  144.34  132.42   1 0.43019 0.37980-0.34328-0.04973-0.83491 0.92372
   9  -5   3  -76.49  116.05   1 0.47890 0.32035-0.33363-0.06277-0.81199 0.94521
   9  -5   4   61.12  118.78   1 0.52958 0.25944-0.32130-0.07914-0.78505 0.96250
   9  -5   5  758.44  210.32   1 0.58050 0.19794-0.30817-0.09593-0.75368 0.97550
  -9   5  -7  107.86  110.74   1 0.07568-0.83248 0.96247-0.55175-0.26059-0.05041
   9  -4  -3   17.01  137.07   1 0.22429 0.63688-0.37180 0.07332-0.90080 0.76746
   9  -4  -2  654.15  220.25   1 0.25940 0.59108-0.36836 0.06642-0.89275 0.80386
   9  -4  -1  -13.45  121.77   1 0.29750 0.54228-0.36403 0.05863-0.88259 0.83814
   9  -4   0   19.41  129.61   1 0.33846 0.49063-0.35866 0.04980-0.86994 0.86994
   9  -4   1  576.22  201.58   1 0.38192 0.43599-0.35163 0.03924-0.85468 0.89909
   9  -4   2  180.66  140.11   1 0.42775 0.37942-0.34373 0.02796-0.83598 0.92479
   9  -4   3  901.01  233.23   1 0.47543 0.32100-0.33436 0.01520-0.81373 0.94695
   9  -4   4  803.33  235.70   1 0.52486 0.26148-0.32243-0.00085-0.78775 0.96520
  -9   4  -5   87.90   88.03   1 0.00552-0.78138 0.93804-0.61154-0.34647 0.12432
   9  -4   5   79.85  112.04   1 0.57454 0.20122-0.30980-0.01713-0.75757 0.97939
  -9   4  -6  673.81  188.75   1 0.02126-0.78646 0.94457-0.61461-0.32760 0.06102
  -9   4  -7  531.82  129.11   1 0.03337-0.78792 0.94919-0.61576-0.31292 0.00191
  -9   4  -8  195.20  107.28   1 0.04240-0.78630 0.95239-0.61550-0.30189-0.05355
  -9   4  -9  -10.95  125.55   1 0.04878-0.78203 0.95454-0.61418-0.29405-0.10581
  -9   4 -10  399.20  167.58   1 0.05284-0.77543 0.95585-0.61203-0.28905-0.15525
   9  -3  -4  121.66  146.47   1 0.20108 0.66796-0.37380 0.15599-0.90544 0.72766
   9  -3  -3  235.93  208.65   1 0.23276 0.62559-0.37102 0.14975-0.89897 0.76563
   9  -3  -2  290.65  201.48   1 0.26744 0.58022-0.36750 0.14277-0.89073 0.80184
   9  -3  -1  182.57  141.94   1 0.30502 0.53194-0.36310 0.13491-0.88040 0.83596
   9  -3   0  260.40  193.91   1 0.34533 0.48094-0.35769 0.12604-0.86764 0.86764
   9  -3   1   72.36  127.72   1 0.38796 0.42714-0.35065 0.11551-0.85236 0.89677
   9  -3   2   -9.66  127.26   1 0.43285 0.37150-0.34279 0.10426-0.83374 0.92255
   9  -3   3  218.95  193.30   1 0.47945 0.31416-0.33352 0.09160-0.81171 0.94493
  -9   3  -4  409.89  144.56   1-0.07030-0.71329 0.89749-0.65186-0.43537 0.25746
   9  -3   4  594.65  205.17   1 0.52754 0.25612-0.32179 0.07567-0.78621 0.96367
  -9   3  -5  127.32  102.23   1-0.04723-0.72571 0.91120-0.66214-0.40922 0.18683
   9  -3   5  163.33  176.00   1 0.57586 0.19723-0.30944 0.05967-0.75671 0.97853
  -9   3  -6  360.82  140.45   1-0.02872-0.73356 0.92125-0.66876-0.38789 0.12102
  -9   3  -7  568.99  187.94   1-0.01408-0.73754 0.92860-0.67268-0.37080 0.05945
  -9   3  -8   15.54  134.87   1-0.00276-0.73820 0.93393-0.67457-0.35744 0.00161
  -9   3  -9  216.65  129.53   1 0.00510-0.73610 0.93785-0.67480-0.34697-0.05289
  -9   3 -10  157.54  115.13   1 0.01106-0.73141 0.94041-0.67389-0.33985-0.10444
  -9   3 -11   50.75   87.27   1 0.01481-0.72450 0.94197-0.67198-0.33536-0.15337
  -9   3 -12  294.79  114.37   1 0.01659-0.71562 0.94269-0.66925-0.33323-0.19993
   9  -2  -5  135.49  204.60   1 0.18780 0.68840-0.37606 0.23810-0.90736 0.68512
   9  -2  -4   82.18  148.78   1 0.21712 0.64910-0.37244 0.23184-0.90229 0.72451
   9  -2  -3  303.09  149.13   1 0.24852 0.60701-0.36948 0.22542-0.89538 0.76204
   9  -2  -2  429.22  189.44   1 0.28281 0.56202-0.36577 0.21826-0.88669 0.79780
   9  -2  -1   12.97  153.47   1 0.31987 0.51427-0.36119 0.21022-0.87591 0.83146
   9  -2   0   77.77  109.61   1 0.35951 0.46393-0.35560 0.20118-0.86272 0.86272
   9  -2   1  881.22  230.16   1 0.40128 0.41100-0.34842 0.19053-0.84709 0.89150
   9  -2   2  849.66  218.94   1 0.44518 0.35636-0.34045 0.17917-0.82819 0.91700
   9  -2   3  144.73  160.24   1 0.49060 0.30020-0.33112 0.16646-0.80601 0.93923
  -9   2  -4  100.42  117.81   1-0.13133-0.65027 0.85472-0.68694-0.50219 0.32441
   9  -2   4  188.45  109.95   1 0.53720 0.24380-0.31944 0.15049-0.78062 0.95807
  -9   2  -5  348.25  157.98   1-0.10493-0.66567 0.87442-0.70266-0.47367 0.25128
   9  -2   5  170.99  167.09   1 0.58399 0.18643-0.30721 0.13460-0.75138 0.97320
  -9   2  -6  371.09  151.92   1-0.08391-0.67603 0.88879-0.71360-0.45055 0.18368
  -9   2  -7  913.03  241.31   1-0.06686-0.68242 0.89962-0.72100-0.43150 0.12015
  -9   2  -8   90.38  110.72   1-0.05327-0.68536 0.90774-0.72569-0.41611 0.06029
  -9   2  -9  298.11  163.09   1-0.04269-0.68528 0.91374-0.72826-0.40403 0.00372
  -9   2 -10   37.69  125.36   1-0.03478-0.68253 0.91805-0.72914-0.39491-0.04986
  -9   2 -11 3192.66  541.19   1-0.02923-0.67743 0.92099-0.72864-0.38848-0.10077
  -9   2 -12  129.26  202.42   1-0.02578-0.67021 0.92277-0.72699-0.38448-0.14925
  -9   2 -13   35.65  139.60   1-0.02423-0.66111 0.92356-0.72436-0.38268-0.19553
   9  -1  -5   93.41  139.91   1 0.21212 0.66196-0.37288 0.31295-0.90330 0.68107
   9  -1  -4   84.96  138.70   1 0.24038 0.62301-0.37029 0.30690-0.89727 0.71948
   9  -1  -3  518.20  240.37   1 0.27150 0.58120-0.36705 0.30021-0.88969 0.75635
   9  -1  -2  -25.25  128.98   1 0.30538 0.53662-0.36305 0.29275-0.88029 0.79140
   9  -1  -1  -12.89  120.71   1 0.34189 0.48942-0.35818 0.28442-0.86880 0.82435
   9  -1   0  406.92  165.09   1 0.38060 0.43960-0.35184 0.27459-0.85518 0.85518
   9  -1   1  239.10  159.04   1 0.42162 0.38784-0.34485 0.26421-0.83863 0.88304
   9  -1   2  283.68  200.79   1 0.46439 0.33433-0.33664 0.25262-0.81915 0.90796
  -9   1  -3 2732.15  282.83   1-0.22420-0.56540 0.76932-0.68141-0.59822 0.46475
   9  -1   3 2685.24  330.89   1 0.50847 0.27951-0.32713 0.23971-0.79651 0.92973
  -9   1  -4  257.36  143.13   1-0.19284-0.58639 0.80167-0.71104-0.56580 0.38801
   9  -1   4  315.33  165.41   1 0.55338 0.22494-0.31538 0.22359-0.77091 0.94836
  -9   1  -5 1322.05  259.59   1-0.16549-0.60304 0.82654-0.73254-0.53799 0.31576
   9  -1   5 1134.98  240.39   1 0.59843 0.16931-0.30312 0.20768-0.74160 0.96342
  -9   1  -6 2419.03  409.94   1-0.14253-0.61530 0.84582-0.74846-0.51406 0.24739
  -9   1  -7 1869.27  391.51   1-0.12346-0.62367 0.86077-0.76003-0.49378 0.18266
  -9   1  -8  682.82  206.97   1-0.10785-0.62859 0.87231-0.76820-0.47690 0.12134
  -9   1  -9  466.81  200.24   1-0.09473-0.63090 0.88153-0.77335-0.46251 0.06220
  -9   1 -10  -47.84  124.53   1-0.08493-0.63005 0.88812-0.77651-0.45168 0.00690
  -9   1 -11  114.96  138.25   1-0.07757-0.62675 0.89290-0.77787-0.44350-0.04575
  -9   1 -12 1034.30  300.70   1-0.07242-0.62125 0.89617-0.77770-0.43774-0.09599
  -9   1 -13  305.10  201.52   1-0.06926-0.61375 0.89814-0.77625-0.43420-0.14401
   9   0  -6  -46.79  135.13   1 0.21749 0.66446-0.37241 0.39315-0.90222 0.63554
   9   0  -5   43.98  134.29   1 0.24276 0.62850-0.37005 0.38734-0.89672 0.67449
   9   0  -4  272.19  141.83   1 0.27082 0.58975-0.36712 0.38095-0.88987 0.71208
   9   0  -3  346.83  174.77   1 0.30161 0.54826-0.36352 0.37389-0.88140 0.74806
   9   0  -2   73.16  128.09   1 0.33502 0.50417-0.35914 0.36605-0.87107 0.78218
   9   0  -1  567.32  256.99   1 0.37065 0.45748-0.35341 0.35680-0.85890 0.81449
   9   0   0   70.54  177.43   1 0.40869 0.40869-0.34714 0.34714-0.84407 0.84407
   9   0   1 1729.97  373.02   1 0.44863 0.35801-0.33978 0.33639-0.82660 0.87101
  -9   0  -2  883.51  193.25   1-0.32160-0.47613 0.65187-0.64496-0.68675 0.59775
   9   0   2 1168.42  224.11   1 0.49009 0.30582-0.33123 0.32445-0.80628 0.89509
  -9   0  -3  140.22  121.28   1-0.28479-0.50241 0.70033-0.68996-0.65454 0.52107
   9   0   3  468.48  246.89   1 0.53258 0.25364-0.32057 0.30961-0.78331 0.91640
  -9   0  -4   44.51   85.65   1-0.25239-0.52411 0.73870-0.72488-0.62498 0.44703
   9   0   4  411.96  216.64   1 0.57559 0.20005-0.30951 0.29490-0.75689 0.93435
  -9   0  -5 1023.46  228.80   1-0.22427-0.54153 0.76925-0.75198-0.59828 0.37584
  -9   0  -6  574.08  179.22   1-0.20117-0.55429 0.79367-0.77346-0.57410 0.30743
  -9   0  -7  396.50  147.70   1-0.18074-0.56403 0.81293-0.78935-0.55359 0.24247
  -9   0  -8 2418.17  445.92   1-0.16359-0.57048 0.82819-0.80123-0.53603 0.18047
  -9   0  -9 1764.32  398.13   1-0.14943-0.57394 0.84018-0.80985-0.52131 0.12129
  -9   0 -10 2386.91  457.27   1-0.13797-0.57470 0.84948-0.81579-0.50925 0.06479
  -9   0 -11  324.12  170.80   1-0.12898-0.57299 0.85654-0.81948-0.49968 0.01078
  -9   0 -12   -0.36  134.67   1-0.12222-0.56905 0.86171-0.82128-0.49245-0.04089
  -9   0 -13  -42.11  128.95   1-0.11751-0.56307 0.86524-0.82144-0.48737-0.09041
  -9   0 -14   98.73  148.73   1-0.11466-0.55522 0.86735-0.82018-0.48430-0.13793
   9   1  -5    8.09  137.35   1 0.28057 0.58787-0.36603 0.46053-0.88729 0.66506
   9   1  -4  -31.87  124.57   1 0.30835 0.54940-0.36268 0.45372-0.87942 0.70163
   9   1  -3    0.87  123.88   1 0.33870 0.50835-0.35863 0.44621-0.86986 0.73652
   9   1  -2   99.98  132.26   1 0.37126 0.46479-0.35332 0.43734-0.85867 0.76986
   9   1  -1  103.47  179.50   1 0.40628 0.41903-0.34756 0.42820-0.84506 0.80065
   9   1   0  428.80  179.69   1 0.44327 0.37130-0.34082 0.41806-0.82906 0.82906
   9   1   1   73.13  139.09   1 0.48190 0.32192-0.33300 0.40685-0.81047 0.85488
  -9  -1  -2   13.83   81.04   1-0.37496-0.42042 0.57239-0.64293-0.72922 0.64021
  -9  -1  -3  385.48  169.45   1-0.34052-0.44418 0.62509-0.69218-0.70234 0.56884
   9   1   3  835.22  237.24   1 0.56233 0.22122-0.31305 0.37926-0.76536 0.89845
  -9  -1  -4  -42.20   90.88   1-0.30946-0.46456 0.66829-0.73192-0.67646 0.49846
  -9  -1  -5  210.88  127.40   1-0.28204-0.48136 0.70372-0.76399-0.65208 0.42964
  -9  -1  -6  710.86  205.95   1-0.25773-0.49497 0.73262-0.78944-0.62994 0.36302
  -9  -1  -7   90.68  125.90   1-0.23659-0.50541 0.75617-0.80953-0.61010 0.29868
  -9  -1  -8  981.85  276.61   1-0.21844-0.51285 0.77527-0.82518-0.59263 0.23673
  -9  -1  -9   85.57  134.41   1-0.20417-0.51682 0.79075-0.83757-0.57708 0.17706
  -9  -1 -10  774.98  259.26   1-0.19148-0.51882 0.80296-0.84642-0.56443 0.11997
  -9  -1 -11  488.76  194.07   1-0.18117-0.51843 0.81254-0.85263-0.55403 0.06512
  -9  -1 -12  147.29  195.47   1-0.17306-0.51585 0.81986-0.85658-0.54576 0.01241
  -9  -1 -13  -21.11  132.02   1-0.16698-0.51123 0.82524-0.85859-0.53953-0.03826
  -9  -1 -14  358.82  191.15   1-0.16277-0.50473 0.82889-0.85887-0.53519-0.08704
   9   2  -5  145.04  205.61   1 0.32544 0.54017-0.36045 0.53216-0.87416 0.65192
   9   2  -4   35.44  145.20   1 0.35279 0.50213-0.35660 0.52486-0.86508 0.68729
   9   2  -3   27.53  121.09   1 0.38227 0.46171-0.35157 0.51623-0.85455 0.72133
   9   2  -2   45.83  170.07   1 0.41424 0.41900-0.34617 0.50744-0.84176 0.75295
   9   2  -1  887.40  263.67   1 0.44820 0.37429-0.33986 0.49775-0.82680 0.78239
   9   2   0   49.19  132.80   1 0.48387 0.32787-0.33257 0.48707-0.80947 0.80947
  -9  -2  -1   28.48   79.57   1-0.45391-0.34960 0.42471-0.57615-0.78331 0.73879
   9   2   1  -15.56  127.85   1 0.52085 0.28117-0.32338 0.47406-0.79002 0.83438
  -9  -2  -2  567.55  181.82   1-0.42095-0.37184 0.49013-0.63809-0.76325 0.67422
   9   2   2  783.17  258.70   1 0.55874 0.23271-0.31399 0.46102-0.76760 0.85633
  -9  -2  -3  117.04  138.21   1-0.39052-0.39182 0.54673-0.69125-0.74065 0.60715
   9   2   3  141.91  182.74   1 0.59720 0.18367-0.30348 0.44685-0.74245 0.87554
  -9  -2  -4   -7.31   99.92   1-0.36180-0.40987 0.59317-0.73424-0.71919 0.54118
  -9  -2  -5 1194.16  260.79   1-0.33560-0.42538 0.63219-0.76981-0.69834 0.47584
  -9  -2  -6 1524.29  293.06   1-0.31203-0.43827 0.66486-0.79903-0.67866 0.41165
  -9  -2  -7  364.57  171.74   1-0.29139-0.44821 0.69208-0.82299-0.66038 0.34897
  -9  -2  -8 4532.99  719.84   1-0.27302-0.45588 0.71468-0.84213-0.64396 0.28805
  -9  -2  -9 1987.27  420.39   1-0.25714-0.46106 0.73330-0.85730-0.62939 0.22900
  -9  -2 -10 -117.68  133.95   1-0.24361-0.46389 0.74851-0.86905-0.61674 0.17186
  -9  -2 -11  -30.11  128.42   1-0.23231-0.46449 0.76077-0.87786-0.60601 0.11664
  -9  -2 -12  193.45  150.34   1-0.22311-0.46299 0.77046-0.88409-0.59716 0.06330
  -9  -2 -13  415.68  189.40   1-0.21587-0.45952 0.77790-0.88808-0.59013 0.01179
  -9  -2 -14 2314.30  477.34   1-0.21048-0.45422 0.78335-0.89007-0.58485-0.03797
   9   3  -4   51.19  117.14   1 0.40357 0.44833-0.34803 0.59333-0.84616 0.66854
   9   3  -3  327.83  176.38   1 0.43245 0.40871-0.34286 0.58478-0.83392 0.70070
   9   3  -2  201.66  204.37   1 0.46331 0.36711-0.33686 0.57539-0.81967 0.73085
   9   3  -1   12.55  128.92   1 0.49590 0.32377-0.32996 0.56509-0.80324 0.75883
   9   3   0 1814.38  341.00   1 0.52986 0.28006-0.32123 0.55273-0.78488 0.78488
  -9  -3  -1   50.92   90.67   1-0.48819-0.31187 0.34529-0.57417-0.80152 0.75700
   9   3   1   32.08  110.23   1 0.56482 0.23453-0.31240 0.54025-0.76379 0.80815
  -9  -3  -2  133.78   98.59   1-0.46066-0.32959 0.41031-0.63573-0.78703 0.69800
   9   3   2  160.48  131.29   1 0.60049 0.18829-0.30253 0.52672-0.74018 0.82891
  -9  -3  -3   68.71   79.52   1-0.43342-0.34611 0.46628-0.68821-0.77118 0.63763
  -9  -3  -4  432.33  164.05   1-0.40757-0.36123 0.51465-0.73309-0.75432 0.57625
  -9  -3  -5  256.12  142.99   1-0.38439-0.37424 0.55698-0.77204-0.73621 0.51370
  -9  -3  -6 1348.20  323.91   1-0.36229-0.38566 0.59241-0.80401-0.71957 0.45256
  -9  -3  -7  523.96  199.77   1-0.34225-0.39502 0.62257-0.83072-0.70374 0.39224
  -9  -3  -8  698.74  245.92   1-0.32433-0.40227 0.64810-0.85280-0.68903 0.33302
  -9  -3  -9  -33.84  139.04   1-0.30851-0.40741 0.66956-0.87081-0.67564 0.27513
  -9  -3 -10   73.83  186.26   1-0.29510-0.41000 0.68736-0.88545-0.66365 0.21877
  -9  -3 -11  -71.34  136.71   1-0.28335-0.41105 0.70212-0.89675-0.65325 0.16388
  -9  -3 -13  346.74  192.94   1-0.26551-0.40748 0.72359-0.91131-0.63711 0.05877
   9   4  -3  -60.46  123.95   1 0.48848 0.34985-0.33158 0.65074-0.80711 0.67389
   9   4  -2  263.10  143.55   1 0.51787 0.30973-0.32495 0.64073-0.79133 0.70251
   9   4  -1    1.25  123.74   1 0.54868 0.26915-0.31657 0.62890-0.77377 0.72940
   9   4   0  288.79  133.60   1 0.58048 0.22677-0.30818 0.61685-0.75370 0.75370
  -9  -4  -1 1405.73  305.73   1-0.51710-0.28029 0.26984-0.57618-0.81227 0.76775
  -9  -4  -2  704.91  216.80   1-0.49355-0.29316 0.33208-0.63493-0.80381 0.71478
  -9  -4  -3   18.14  102.97   1-0.47021-0.30582 0.38739-0.68674-0.79298 0.65943
  -9  -4  -4  458.50  160.41   1-0.44825-0.31801 0.43652-0.73242-0.78007 0.60200
  -9  -4  -5 3484.59  574.66   1-0.42669-0.32884 0.47928-0.77170-0.76695 0.54436
  -9  -4  -6  117.71  124.23   1-0.40649-0.33832 0.51659-0.80552-0.75358 0.48648
  -9  -4  -7 1472.07  352.80   1-0.38897-0.34594 0.54933-0.83492-0.73954 0.42803
  -9  -4  -8 1320.21  327.83   1-0.37202-0.35222 0.57710-0.85924-0.72701 0.37100
  -9  -4  -9  595.61  246.21   1-0.35679-0.35677 0.60086-0.87955-0.71529 0.31478
  -9  -4 -10  436.36  210.23   1-0.34330-0.35958 0.62104-0.89627-0.70459 0.25957
  -9  -4 -11  330.89  187.02   1-0.33154-0.36067 0.63799-0.90977-0.69501 0.20550
  -9  -4 -12   32.40  145.00   1-0.32148-0.36004 0.65203-0.92036-0.68665 0.15264
   9   5  -2  250.98  132.38   1 0.57716 0.24856-0.30908 0.70223-0.75587 0.66714
  -9  -5  -1   -4.78   97.39   1-0.54067-0.25429 0.19741-0.58101-0.81774 0.77314
  -9  -5  -2   80.09  115.82   1-0.52160-0.26245 0.25704-0.63734-0.81354 0.72450
  -9  -5  -3  256.66  163.59   1-0.50198-0.27139 0.31064-0.68745-0.80716 0.67360
  -9  -5  -4  838.43  264.43   1-0.48257-0.28012 0.35879-0.73211-0.79898 0.62091
  -9  -5  -5  -85.91  117.44   1-0.46447-0.28852 0.40202-0.77190-0.78907 0.56648
  -9  -5  -6  368.80  170.94   1-0.44651-0.29576 0.44009-0.80648-0.77906 0.51196
  -9  -5  -7  184.89  133.62   1-0.42963-0.30192 0.47364-0.83655-0.76881 0.45718
  -9  -5  -8  293.31  195.43   1-0.41398-0.30683 0.50304-0.86245-0.75865 0.40251
  -9  -5  -9  -56.80  131.17   1-0.39969-0.31040 0.52860-0.88452-0.74888 0.34822
  -9  -5 -10  353.02  210.64   1-0.38818-0.31235 0.55066-0.90334-0.73897 0.29395
  -9  -5 -11  214.08  163.84   1-0.37681-0.31304 0.56940-0.91862-0.73060 0.24109
  -9  -6  -1  180.14  168.50   1-0.56027-0.23202 0.12855-0.58956-0.81826 0.77367
  -9  -6  -2  192.01  205.76   1-0.54454-0.23713 0.18464-0.64215-0.81815 0.72897
  -9  -6  -3    5.92  125.75   1-0.52871-0.24199 0.23614-0.69041-0.81528 0.68173
  -9  -6  -4   -8.03  126.96   1-0.51238-0.24764 0.28292-0.73369-0.81081 0.63274
  -9  -6  -5   40.46  134.26   1-0.49627-0.25307 0.32526-0.77254-0.80493 0.58234
  -9  -6  -6   54.42  134.68   1-0.48065-0.25802 0.36335-0.80714-0.79809 0.53098
  -9  -6  -7  555.64  239.07   1-0.46651-0.26250 0.39754-0.83792-0.79014 0.47851
  -9  -6  -8   64.49  130.30   1-0.45247-0.26580 0.42773-0.86461-0.78249 0.42635
  -9  -6  -9    3.08  135.76   1-0.43946-0.26809 0.45434-0.88774-0.77487 0.37422
  10  -2   2  222.40  208.27   1 0.48561 0.40675-0.33220 0.17093-0.80858 0.89740
  10  -2   3  443.96  196.06   1 0.52514 0.35731-0.32236 0.15707-0.78759 0.92068
  10  -2   4  -24.63  127.62   1 0.56525 0.30662-0.31228 0.14333-0.76351 0.94097
 -10   2  -7  133.73  149.09   1-0.13020-0.71038 0.85560-0.67771-0.50099 0.18987
 -10   2  -8  223.85  129.07   1-0.11413-0.71575 0.86774-0.68648-0.48372 0.12816
  10  -1   0  372.32  158.42   1 0.42967 0.48135-0.34338 0.26613-0.83514 0.83514
  10  -1   1  -21.63  137.07   1 0.46510 0.43519-0.33650 0.25586-0.81880 0.86321
  10  -1   2  138.23  148.12   1 0.50201 0.38753-0.32859 0.24457-0.80000 0.88881
  10  -1   3    1.59  135.66   1 0.54026 0.33951-0.31868 0.23055-0.77881 0.91190
  10  -1   4   46.14  135.21   1 0.57904 0.29016-0.30857 0.21679-0.75464 0.93209
 -10   1  -6   82.17  104.31   1-0.20065-0.64826 0.79418-0.69682-0.57358 0.30691
 -10   1  -7  122.88  123.20   1-0.17994-0.65827 0.81366-0.71293-0.55278 0.24166
 -10   1  -8  129.39  127.26   1-0.16253-0.66498 0.82910-0.72499-0.53495 0.17938
 -10   1  -9  135.26  168.11   1-0.14811-0.66870 0.84126-0.73379-0.51993 0.11992
  10   0  -1  -30.06  134.28   1 0.42129 0.49766-0.34491 0.34830-0.83877 0.79436
  10   0   0   12.67  186.61   1 0.45410 0.45410-0.33871 0.33871-0.82405 0.82405
  10   0   1  -27.02  128.92   1 0.48852 0.40894-0.33157 0.32818-0.80709 0.85150
  10   0   2  124.13  138.12   1 0.52441 0.36327-0.32254 0.31523-0.78800 0.87673
  10   0   3  289.89  189.88   1 0.56106 0.31605-0.31339 0.30242-0.76615 0.89924
  10   0   4    6.93  134.37   1 0.59833 0.26820-0.30315 0.28854-0.74168 0.91913
 -10   0  -5  356.12  168.29   1-0.27538-0.58145 0.71184-0.69456-0.64609 0.42365
 -10   0  -6 1637.35  363.18   1-0.25063-0.59550 0.74068-0.71995-0.62334 0.35641
 -10   0  -7   91.74  119.21   1-0.22920-0.60623 0.76407-0.73989-0.60303 0.29162
 -10   0  -8   58.87  119.54   1-0.21084-0.61389 0.78298-0.75534-0.58521 0.22930
 -10   0  -9   49.72  123.73   1-0.19658-0.61786 0.79811-0.76778-0.56953 0.16952
 -10   0 -10   68.08  125.07   1-0.18371-0.62003 0.81020-0.77651-0.55660 0.11214
  10   1  -1   56.69  133.29   1 0.45255 0.46358-0.33901 0.41965-0.82477 0.78037
  10   1   0  296.81  147.89   1 0.48436 0.42103-0.33247 0.40972-0.80923 0.80923
  10   1   1  202.32  192.98   1 0.51759 0.37705-0.32502 0.39888-0.79148 0.83589
  10   1   2  356.50  172.03   1 0.55200 0.33300-0.31573 0.38559-0.77175 0.86047
  10   1   3  197.75  145.58   1 0.58709 0.28734-0.30634 0.37255-0.74931 0.88240
 -10  -1  -5   87.90  107.62   1-0.32444-0.52992 0.64795-0.70812-0.68912 0.46662
 -10  -1  -6  711.48  227.61   1-0.30041-0.54333 0.68054-0.73735-0.66829 0.40136
 -10  -1  -7  600.54  221.81   1-0.27900-0.55403 0.70745-0.76081-0.64935 0.33794
 -10  -1  -8   44.10  123.13   1-0.26031-0.56202 0.72965-0.77955-0.63233 0.27642
 -10  -1  -9  305.31  147.52   1-0.24419-0.56744 0.74787-0.79432-0.61729 0.21690
 -10  -1 -10  292.86  182.08   1-0.23048-0.57045 0.76271-0.80571-0.60426 0.15938
  10   2   0  116.55  149.59   1 0.52004 0.38253-0.32444 0.47894-0.79011 0.79011
  10   2   1   63.35  123.54   1 0.55190 0.34101-0.31575 0.46643-0.77181 0.81617
  10   2   2  226.73  187.28   1 0.58456 0.29777-0.30705 0.45407-0.75099 0.83972
 -10  -2  -5   -2.22  106.61   1-0.37030-0.48170 0.57984-0.71746-0.72571 0.50320
 -10  -2  -7   24.42  119.62   1-0.32646-0.50418 0.64512-0.77583-0.69081 0.37930
 -10  -2  -8  302.14  165.19   1-0.30800-0.51196 0.67023-0.79749-0.67521 0.31920
 -10  -2  -9    7.68  130.38   1-0.29205-0.51718 0.69123-0.81523-0.66097 0.26058
 -10  -2 -10  693.97  225.43   1-0.27800-0.52053 0.70867-0.82921-0.64845 0.20357
  10   3   1  115.34  154.00   1 0.59074 0.29949-0.30532 0.53316-0.74685 0.79122
 -10  -3  -4  749.02  239.73   1-0.43430-0.42553 0.46455-0.68299-0.77172 0.59365
 -10  -3  -5  220.21  205.66   1-0.41119-0.43792 0.50813-0.72308-0.75678 0.53419
 -10  -3  -6  122.97  127.35   1-0.39071-0.44826 0.54641-0.75801-0.74079 0.47378
 -10  -3  -7  141.51  136.55   1-0.37111-0.45718 0.57855-0.78671-0.72632 0.41481
 -10  -3  -8 2626.06  509.57   1-0.35337-0.46423 0.60605-0.81074-0.71261 0.35660
 -10  -4  -5  163.76  175.57   1-0.44850-0.39807 0.43599-0.72840-0.78022 0.55763
;
_shelx_hkl_checksum              91817
_shelx_res_file
;
    shelx.res created by SHELXL-2014/7
TITL KS130 in P -1
CELL  0.71073   8.0406   9.2313  15.9898   85.693   76.448   87.082
ZERR     4.00   0.0009   0.0014   0.0017    0.019    0.019    0.019
LATT   1
SFAC  C    H    CL   N    O    S
UNIT  44 36 4 8 4 4
MERG   2
FMAP   2
BOND
L.S.  20
EQIV $1 x,-1+y,z
EQIV $2 x,1+y,z
HTAB C11 N1'_$1
HTAB N2' O1_$2
HTAB C11' O1_$2
HTAB N2 O1'
HTAB C1 N1
HTAB C1' N1'
HTAB C11 O1'
PLAN -5
ACTA
CONF
BOND $H
WPDB
WGHT    0.097100
FVAR       6.83565
MOLE    1
S1    6    0.414654    0.749590    0.154731    11.00000    0.06346    0.03467 =
         0.06620   -0.00619   -0.01857   -0.00704
O1    5    0.614984    0.666504    0.270781    11.00000    0.09317    0.02773 =
         0.06273   -0.00040   -0.02768   -0.00318
N1    4    0.414967    1.027013    0.158953    11.00000    0.05630    0.03659 =
         0.05009   -0.00351   -0.01612    0.00051
N2    4    0.558448    0.907171    0.256712    11.00000    0.07783    0.02662 =
         0.05746   -0.00156   -0.02835   -0.00176
AFIX  43
H2    2    0.567954    0.989294    0.276948    11.00000   -1.20000
AFIX   0
CL1   3    0.945124    0.881554    0.288617    11.00000    0.09115    0.08097 =
         0.12083    0.00064   -0.05866   -0.00776
C1    1    0.285539    1.264501    0.063439    11.00000    0.08193    0.05186 =
         0.05606   -0.01270   -0.02404    0.01804
AFIX  43
H1    2    0.338767    1.283445    0.107014    11.00000   -1.20000
AFIX   0
C2    1    0.226485    1.378842    0.015912    11.00000    0.10027    0.05635 =
         0.06768   -0.00521   -0.02313    0.02385
AFIX  43
H2A   2    0.241004    1.473934    0.027653    11.00000   -1.20000
AFIX   0
C3    1    0.146845    1.353444   -0.048263    11.00000    0.06488    0.08156 =
         0.06392    0.00765   -0.01622    0.02273
AFIX  43
H3    2    0.106940    1.430667   -0.079856    11.00000   -1.20000
AFIX   0
C4    1    0.126573    1.212483   -0.065442    11.00000    0.05188    0.09623 =
         0.06153    0.00784   -0.01965   -0.00055
AFIX  43
H4    2    0.072079    1.194355   -0.108684    11.00000   -1.20000
AFIX   0
C5    1    0.185986    1.098817   -0.019381    11.00000    0.05104    0.06895 =
         0.06101   -0.00222   -0.01528   -0.00564
AFIX  43
H5    2    0.172604    1.004258   -0.032470    11.00000   -1.20000
AFIX   0
C6    1    0.265967    1.121345    0.046591    11.00000    0.04209    0.05515 =
         0.04828   -0.00262   -0.00748    0.00496
C7    1    0.329995    0.999370    0.096270    11.00000    0.04365    0.04695 =
         0.04831   -0.00587   -0.00789    0.00174
C8    1    0.317560    0.855726    0.086233    11.00000    0.05693    0.04807 =
         0.06569   -0.00998   -0.02077   -0.00418
AFIX  43
H8    2    0.263275    0.819714    0.047170    11.00000   -1.20000
AFIX   0
C9    1    0.466380    0.906492    0.193029    11.00000    0.05357    0.03373 =
         0.04923   -0.00153   -0.00918   -0.00322
C10   1    0.633270    0.790072    0.288878    11.00000    0.07285    0.03153 =
         0.05195    0.00203   -0.01792   -0.00187
C11   1    0.743551    0.820290    0.349670    11.00000    0.11073    0.04078 =
         0.06923    0.00179   -0.04690   -0.00062
AFIX  23
H11A  2    0.760034    0.732504    0.384534    11.00000   -1.20000
H11B  2    0.687671    0.893959    0.387914    11.00000   -1.20000
AFIX   0
MOLE    2
S1'   6    0.692492    1.204340    0.492696    11.00000    0.09015    0.03748 =
         0.05732    0.00216   -0.02324   -0.00534
O1'   5    0.614666    1.153934    0.339477    11.00000    0.10283    0.02961 =
         0.06902   -0.00307   -0.03759   -0.00255
N1'   4    0.723964    1.481900    0.474062    11.00000    0.05527    0.03760 =
         0.04827   -0.00599   -0.01328   -0.00341
N2'   4    0.646523    1.390099    0.356785    11.00000    0.06355    0.02733 =
         0.05304   -0.00238   -0.02042   -0.00197
AFIX  43
H2'   2    0.640587    1.477303    0.334364    11.00000   -1.20000
AFIX   0
CL1'  3    0.765969    1.268280    0.144989    11.00000    0.09888    0.08539 =
         0.06112   -0.00994   -0.01712   -0.01380
C1'   1    0.803776    1.689938    0.583155    11.00000    0.09035    0.05960 =
         0.05730   -0.00624   -0.02767   -0.01434
AFIX  43
H1'   2    0.765270    1.722893    0.534368    11.00000   -1.20000
AFIX   0
C2'   1    0.852916    1.790228    0.633201    11.00000    0.11524    0.06226 =
         0.06977   -0.01196   -0.02787   -0.02060
AFIX  43
H2'1  2    0.849542    1.888962    0.616840    11.00000   -1.20000
AFIX   0
C3'   1    0.905619    1.743869    0.705712    11.00000    0.07813    0.08602 =
         0.06179   -0.02231   -0.01327   -0.02081
AFIX  43
H3'   2    0.936666    1.810821    0.739483    11.00000   -1.20000
AFIX   0
C4'   1    0.912835    1.600080    0.728684    11.00000    0.07423    0.09186 =
         0.05447   -0.01402   -0.01943   -0.00646
AFIX  43
H4'   2    0.949402    1.568806    0.778278    11.00000   -1.20000
AFIX   0
C5'   1    0.866686    1.499044    0.679554    11.00000    0.07133    0.06694 =
         0.05298   -0.00881   -0.01452   -0.00215
AFIX  43
H5'   2    0.872462    1.400615    0.696366    11.00000   -1.20000
AFIX   0
C6'   1    0.811462    1.543422    0.604897    11.00000    0.04981    0.05728 =
         0.03986   -0.00890   -0.00217   -0.00654
C8'   1    0.750793    1.290822    0.571646    11.00000    0.08338    0.05320 =
         0.04975    0.00327   -0.01998   -0.00416
AFIX  43
H8'   2    0.771902    1.243984    0.621869    11.00000   -1.20000
AFIX   0
C7'   1    0.762562    1.435858    0.552263    11.00000    0.04981    0.05119 =
         0.04278   -0.00443   -0.00738   -0.00216
C9'   1    0.686534    1.372202    0.436436    11.00000    0.05097    0.03518 =
         0.04584   -0.00315   -0.01028    0.00067
C10'  1    0.616190    1.281002    0.311784    11.00000    0.06057    0.03311 =
         0.05764   -0.00464   -0.02025    0.00036
C11'  1    0.585203    1.324602    0.224280    11.00000    0.08533    0.03992 =
         0.06476   -0.00562   -0.03352   -0.00043
AFIX  23
H11C  2    0.567467    1.429206    0.218046    11.00000   -1.20000
H11D  2    0.483592    1.279224    0.217219    11.00000   -1.20000
AFIX   0
HKLF 4
REM  KS130 in P -1
REM R1 =  0.0554 for    3519 Fo > 4sig(Fo)  and  0.0771 for all    5129 data
REM    289 parameters refined using      0 restraints
END
WGHT      0.0915      0.0000
REM Highest difference peak  0.437,  deepest hole -0.522,  1-sigma level  0.058
Q1    1   0.9139  0.8047  0.3264  11.00000  0.05    0.34
Q2    1   0.2274  1.1194  0.0299  11.00000  0.05    0.27
Q3    1   0.5837  0.9372  0.2538  11.00000  0.05    0.25
Q4    1   0.6656  0.8001  0.3082  11.00000  0.05    0.25
Q5    1   0.3494  0.8021  0.1170  11.00000  0.05    0.24
;
_shelx_res_checksum              28991
loop_
_space_group_symop_operation_xyz
'x, y, z'
'-x, -y, -z'
loop_
_atom_site_type_symbol
_atom_site_label
_atom_site_fract_x
_atom_site_fract_y
_atom_site_fract_z
_atom_site_U_iso_or_equiv
_atom_site_adp_type
_atom_site_calc_flag
_atom_site_occupancy
S S1 0.41465(9) 0.74959(7) 0.15473(5) 0.0538(2) Uani d 1
O O1 0.6150(3) 0.66650(18) 0.27078(12) 0.0597(5) Uani d 1
N N1 0.4150(3) 1.0270(2) 0.15895(13) 0.0471(5) Uani d 1
N N2 0.5584(3) 0.9072(2) 0.25671(14) 0.0519(5) Uani d 1
H H2 0.5680 0.9893 0.2769 0.062 Uiso calc 1
Cl Cl1 0.94512(12) 0.88155(11) 0.28862(7) 0.0922(3) Uani d 1
C C1 0.2855(4) 1.2645(3) 0.06344(19) 0.0622(7) Uani d 1
H H1 0.3388 1.2834 0.1070 0.075 Uiso calc 1
C C2 0.2265(5) 1.3788(4) 0.0159(2) 0.0750(9) Uani d 1
H H2A 0.2410 1.4739 0.0277 0.090 Uiso calc 1
C C3 0.1468(4) 1.3534(4) -0.0483(2) 0.0714(9) Uani d 1
H H3 0.1069 1.4307 -0.0799 0.086 Uiso calc 1
C C4 0.1266(4) 1.2125(4) -0.0654(2) 0.0695(8) Uani d 1
H H4 0.0721 1.1944 -0.1087 0.083 Uiso calc 1
C C5 0.1860(3) 1.0988(3) -0.01938(18) 0.0599(7) Uani d 1
H H5 0.1726 1.0043 -0.0325 0.072 Uiso calc 1
C C6 0.2660(3) 1.1213(3) 0.04659(16) 0.0493(6) Uani d 1
C C7 0.3300(3) 0.9994(3) 0.09627(16) 0.0467(5) Uani d 1
C C8 0.3176(3) 0.8557(3) 0.08623(18) 0.0554(6) Uani d 1
H H8 0.2633 0.8197 0.0472 0.066 Uiso calc 1
C C9 0.4664(3) 0.9065(2) 0.19303(16) 0.0460(5) Uani d 1
C C10 0.6333(4) 0.7901(3) 0.28888(16) 0.0518(6) Uani d 1
C C11 0.7436(5) 0.8203(3) 0.3497(2) 0.0696(8) Uani d 1
H H11A 0.7600 0.7325 0.3845 0.084 Uiso calc 1
H H11B 0.6877 0.8940 0.3879 0.084 Uiso calc 1
S S1' 0.69249(11) 1.20434(7) 0.49270(4) 0.0608(2) Uani d 1
O O1' 0.6147(3) 1.15393(19) 0.33948(13) 0.0642(5) Uani d 1
N N1' 0.7240(3) 1.4819(2) 0.47406(13) 0.0466(5) Uani d 1
N N2' 0.6465(3) 1.3901(2) 0.35679(13) 0.0468(5) Uani d 1
H H2' 0.6406 1.4773 0.3344 0.056 Uiso calc 1
Cl Cl1' 0.76597(12) 1.26828(10) 0.14499(5) 0.0814(3) Uani d 1
C C1' 0.8038(4) 1.6899(3) 0.58315(19) 0.0668(8) Uani d 1
H H1' 0.7653 1.7229 0.5344 0.080 Uiso calc 1
C C2' 0.8529(5) 1.7902(4) 0.6332(2) 0.0803(10) Uani d 1
H H2'1 0.8495 1.8890 0.6168 0.096 Uiso calc 1
C C3' 0.9056(4) 1.7439(4) 0.7057(2) 0.0743(9) Uani d 1
H H3' 0.9367 1.8108 0.7395 0.089 Uiso calc 1
C C4' 0.9128(4) 1.6001(4) 0.7287(2) 0.0722(9) Uani d 1
H H4' 0.9494 1.5688 0.7783 0.087 Uiso calc 1
C C5' 0.8667(4) 1.4990(4) 0.67955(18) 0.0635(7) Uani d 1
H H5' 0.8725 1.4006 0.6964 0.076 Uiso calc 1
C C6' 0.8115(3) 1.5434(3) 0.60490(15) 0.0499(6) Uani d 1
C C8' 0.7508(4) 1.2908(3) 0.57165(17) 0.0616(7) Uani d 1
H H8' 0.7719 1.2440 0.6219 0.074 Uiso calc 1
C C7' 0.7626(3) 1.4359(3) 0.55226(16) 0.0484(6) Uani d 1
C C9' 0.6865(3) 1.3722(2) 0.43644(15) 0.0442(5) Uani d 1
C C10' 0.6162(3) 1.2810(3) 0.31178(17) 0.0493(6) Uani d 1
C C11' 0.5852(4) 1.3246(3) 0.22428(18) 0.0606(7) Uani d 1
H H11C 0.5675 1.4292 0.2180 0.073 Uiso calc 1
H H11D 0.4836 1.2792 0.2172 0.073 Uiso calc 1
loop_
_atom_site_aniso_label
_atom_site_aniso_U_11
_atom_site_aniso_U_22
_atom_site_aniso_U_33
_atom_site_aniso_U_12
_atom_site_aniso_U_13
_atom_site_aniso_U_23
S1 0.0635(4) 0.0347(3) 0.0662(4) -0.0070(3) -0.0186(3) -0.0062(3)
O1 0.0932(14) 0.0277(9) 0.0627(11) -0.0032(8) -0.0277(10) -0.0004(7)
N1 0.0563(12) 0.0366(11) 0.0501(11) 0.0005(8) -0.0161(10) -0.0035(8)
N2 0.0778(14) 0.0266(10) 0.0575(12) -0.0018(9) -0.0284(11) -0.0016(8)
Cl1 0.0911(6) 0.0810(6) 0.1208(8) -0.0078(5) -0.0587(6) 0.0006(5)
C1 0.0819(19) 0.0519(16) 0.0561(15) 0.0180(14) -0.0240(15) -0.0127(12)
C2 0.100(2) 0.0563(18) 0.0677(18) 0.0238(16) -0.0231(18) -0.0052(14)
C3 0.0649(18) 0.082(2) 0.0639(18) 0.0227(16) -0.0162(15) 0.0076(16)
C4 0.0519(16) 0.096(3) 0.0615(17) -0.0006(15) -0.0196(14) 0.0078(16)
C5 0.0510(14) 0.0690(18) 0.0610(16) -0.0056(12) -0.0153(13) -0.0022(13)
C6 0.0421(12) 0.0552(15) 0.0483(13) 0.0050(10) -0.0075(11) -0.0026(11)
C7 0.0437(12) 0.0469(14) 0.0483(13) 0.0017(10) -0.0079(11) -0.0059(10)
C8 0.0569(15) 0.0481(15) 0.0657(16) -0.0042(11) -0.0208(13) -0.0100(12)
C9 0.0536(13) 0.0337(12) 0.0492(12) -0.0032(10) -0.0092(11) -0.0015(10)
C10 0.0728(16) 0.0315(12) 0.0519(14) -0.0019(11) -0.0179(13) 0.0020(10)
C11 0.111(2) 0.0408(15) 0.0692(18) -0.0006(15) -0.0469(18) 0.0018(13)
S1' 0.0902(5) 0.0375(4) 0.0573(4) -0.0053(3) -0.0232(4) 0.0022(3)
O1' 0.1028(15) 0.0296(9) 0.0690(12) -0.0025(9) -0.0376(11) -0.0031(8)
N1' 0.0553(12) 0.0376(10) 0.0483(11) -0.0034(8) -0.0133(9) -0.0060(8)
N2' 0.0636(12) 0.0273(9) 0.0530(11) -0.0020(8) -0.0204(10) -0.0024(8)
Cl1' 0.0989(6) 0.0854(6) 0.0611(5) -0.0138(5) -0.0171(4) -0.0099(4)
C1' 0.090(2) 0.0596(18) 0.0573(16) -0.0143(15) -0.0277(16) -0.0062(13)
C2' 0.115(3) 0.062(2) 0.070(2) -0.0206(18) -0.028(2) -0.0120(16)
C3' 0.078(2) 0.086(2) 0.0618(18) -0.0208(17) -0.0133(16) -0.0223(17)
C4' 0.074(2) 0.092(3) 0.0545(16) -0.0065(17) -0.0194(15) -0.0140(16)
C5' 0.0713(18) 0.0669(19) 0.0530(15) -0.0022(14) -0.0145(14) -0.0088(13)
C6' 0.0498(13) 0.0573(15) 0.0399(12) -0.0065(11) -0.0022(11) -0.0089(10)
C8' 0.0834(19) 0.0532(17) 0.0498(14) -0.0042(13) -0.0200(14) 0.0033(12)
C7' 0.0498(13) 0.0512(14) 0.0428(12) -0.0022(10) -0.0074(11) -0.0044(10)
C9' 0.0510(13) 0.0352(12) 0.0458(12) 0.0007(9) -0.0103(11) -0.0032(9)
C10' 0.0606(15) 0.0331(13) 0.0576(14) 0.0004(10) -0.0203(12) -0.0046(10)
C11' 0.085(2) 0.0399(14) 0.0648(16) -0.0004(12) -0.0335(15) -0.0056(12)
loop_
_atom_type_symbol
_atom_type_description
_atom_type_scat_dispersion_real
_atom_type_scat_dispersion_imag
_atom_type_scat_source
C C 0.0033 0.0016 'International Tables Vol C Tables 4.2.6.8 and 6.1.1.4'
H H 0.0000 0.0000 'International Tables Vol C Tables 4.2.6.8 and 6.1.1.4'
Cl Cl 0.1484 0.1585 'International Tables Vol C Tables 4.2.6.8 and 6.1.1.4'
N N 0.0061 0.0033 'International Tables Vol C Tables 4.2.6.8 and 6.1.1.4'
O O 0.0106 0.0060 'International Tables Vol C Tables 4.2.6.8 and 6.1.1.4'
S S 0.1246 0.1234 'International Tables Vol C Tables 4.2.6.8 and 6.1.1.4'
loop_
_geom_angle_atom_site_label_1
_geom_angle_atom_site_label_2
_geom_angle_atom_site_label_3
_geom_angle
C8 S1 C9 88.17(12)
C9 N1 C7 110.4(2)
C10 N2 C9 125.1(2)
C10 N2 H2 117.4
C9 N2 H2 117.4
C2 C1 C6 120.6(3)
C2 C1 H1 119.7
C6 C1 H1 119.7
C3 C2 C1 120.7(3)
C3 C2 H2A 119.7
C1 C2 H2A 119.7
C2 C3 C4 119.3(3)
C2 C3 H3 120.4
C4 C3 H3 120.4
C5 C4 C3 120.5(3)
C5 C4 H4 119.8
C3 C4 H4 119.8
C4 C5 C6 121.5(3)
C4 C5 H5 119.2
C6 C5 H5 119.2
C5 C6 C1 117.5(3)
C5 C6 C7 121.7(3)
C1 C6 C7 120.8(2)
C8 C7 N1 114.1(2)
C8 C7 C6 126.2(2)
N1 C7 C6 119.7(2)
C7 C8 S1 111.3(2)
C7 C8 H8 124.3
S1 C8 H8 124.3
N1 C9 N2 120.7(2)
N1 C9 S1 116.1(2)
N2 C9 S1 123.19(18)
O1 C10 N2 123.0(3)
O1 C10 C11 121.6(2)
N2 C10 C11 115.4(2)
C10 C11 Cl1 109.2(2)
C10 C11 H11A 109.8
Cl1 C11 H11A 109.8
C10 C11 H11B 109.8
Cl1 C11 H11B 109.8
H11A C11 H11B 108.3
C8' S1' C9' 88.18(13)
C9' N1' C7' 110.5(2)
C10' N2' C9' 124.7(2)
C10' N2' H2' 117.6
C9' N2' H2' 117.6
C6' C1' C2' 121.0(3)
C6' C1' H1' 119.5
C2' C1' H1' 119.5
C3' C2' C1' 120.1(3)
C3' C2' H2'1 119.9
C1' C2' H2'1 119.9
C4' C3' C2' 119.8(3)
C4' C3' H3' 120.1
C2' C3' H3' 120.1
C3' C4' C5' 120.9(3)
C3' C4' H4' 119.5
C5' C4' H4' 119.5
C4' C5' C6' 120.5(3)
C4' C5' H5' 119.7
C6' C5' H5' 119.7
C1' C6' C5' 117.6(3)
C1' C6' C7' 121.8(2)
C5' C6' C7' 120.6(3)
C7' C8' S1' 111.8(2)
C7' C8' H8' 124.1
S1' C8' H8' 124.1
C8' C7' N1' 114.1(2)
C8' C7' C6' 126.6(2)
N1' C7' C6' 119.3(2)
N1' C9' N2' 121.4(2)
N1' C9' S1' 115.38(19)
N2' C9' S1' 123.22(18)
O1' C10' N2' 122.7(2)
O1' C10' C11' 121.6(2)
N2' C10' C11' 115.7(2)
C10' C11' Cl1' 108.7(2)
C10' C11' H11C 110.0
Cl1' C11' H11C 110.0
C10' C11' H11D 110.0
Cl1' C11' H11D 110.0
H11C C11' H11D 108.3
loop_
_geom_bond_atom_site_label_1
_geom_bond_atom_site_label_2
_geom_bond_distance
S1 C8 1.712(3)
S1 C9 1.720(2)
O1 C10 1.222(3)
N1 C9 1.294(3)
N1 C7 1.383(3)
N2 C10 1.338(3)
N2 C9 1.393(3)
N2 H2 0.8600
Cl1 C11 1.780(4)
C1 C2 1.384(4)
C1 C6 1.392(4)
C1 H1 0.9300
C2 C3 1.370(5)
C2 H2A 0.9300
C3 C4 1.375(5)
C3 H3 0.9300
C4 C5 1.367(4)
C4 H4 0.9300
C5 C6 1.391(4)
C5 H5 0.9300
C6 C7 1.470(3)
C7 C8 1.359(4)
C8 H8 0.9300
C10 C11 1.510(4)
C11 H11A 0.9700
C11 H11B 0.9700
S1' C8' 1.708(3)
S1' C9' 1.737(2)
O1' C10' 1.222(3)
N1' C9' 1.298(3)
N1' C7' 1.389(3)
N2' C10' 1.344(3)
N2' C9' 1.381(3)
N2' H2' 0.8600
Cl1' C11' 1.774(3)
C1' C6' 1.373(4)
C1' C2' 1.397(4)
C1' H1' 0.9300
C2' C3' 1.358(5)
C2' H2'1 0.9300
C3' C4' 1.352(5)
C3' H3' 0.9300
C4' C5' 1.381(4)
C4' H4' 0.9300
C5' C6' 1.395(4)
C5' H5' 0.9300
C6' C7' 1.473(4)
C8' C7' 1.354(4)
C8' H8' 0.9300
C10' C11' 1.500(4)
C11' H11C 0.9700
C11' H11D 0.9700
loop_
_geom_hbond_atom_site_label_D
_geom_hbond_atom_site_label_H
_geom_hbond_atom_site_label_A
_geom_hbond_site_symmetry_A
_geom_hbond_distance_DH
_geom_hbond_distance_HA
_geom_hbond_distance_DA
_geom_hbond_angle_DHA
C11 H11A N1' 1_545 0.97 2.62 3.565(4) 165
N2' H2' O1 1_565 0.86 1.98 2.835(3) 172
C11' H11C O1 1_565 0.97 2.48 3.329(3) 146
N2 H2 O1' . 0.86 1.98 2.825(3) 168
C1 H1 N1 . 0.93 2.54 2.869(4) 101
C1' H1' N1' . 0.93 2.56 2.880(4) 101
C11 H11B O1' . 0.97 2.55 3.204(3) 125
loop_
_geom_torsion_atom_site_label_1
_geom_torsion_atom_site_label_2
_geom_torsion_atom_site_label_3
_geom_torsion_atom_site_label_4
_geom_torsion
C6 C1 C2 C3 0.4(5)
C1 C2 C3 C4 -0.3(5)
C2 C3 C4 C5 -0.4(5)
C3 C4 C5 C6 0.9(4)
C4 C5 C6 C1 -0.8(4)
C4 C5 C6 C7 180.0(2)
C2 C1 C6 C5 0.2(4)
C2 C1 C6 C7 179.4(3)
C9 N1 C7 C8 1.1(3)
C9 N1 C7 C6 -177.7(2)
C5 C6 C7 C8 -1.3(4)
C1 C6 C7 C8 179.5(3)
C5 C6 C7 N1 177.4(2)
C1 C6 C7 N1 -1.8(4)
N1 C7 C8 S1 -0.6(3)
C6 C7 C8 S1 178.07(19)
C9 S1 C8 C7 0.0(2)
C7 N1 C9 N2 178.7(2)
C7 N1 C9 S1 -1.1(3)
C10 N2 C9 N1 -172.1(2)
C10 N2 C9 S1 7.7(4)
C8 S1 C9 N1 0.7(2)
C8 S1 C9 N2 -179.2(2)
C9 N2 C10 O1 -6.9(4)
C9 N2 C10 C11 173.0(2)
O1 C10 C11 Cl1 100.9(3)
N2 C10 C11 Cl1 -79.0(3)
C6' C1' C2' C3' -1.5(5)
C1' C2' C3' C4' 1.0(5)
C2' C3' C4' C5' -0.2(5)
C3' C4' C5' C6' 0.0(5)
C2' C1' C6' C5' 1.3(5)
C2' C1' C6' C7' -179.1(3)
C4' C5' C6' C1' -0.5(4)
C4' C5' C6' C7' 179.9(3)
C9' S1' C8' C7' -0.1(2)
S1' C8' C7' N1' 0.5(3)
S1' C8' C7' C6' -179.2(2)
C9' N1' C7' C8' -0.7(3)
C9' N1' C7' C6' 179.0(2)
C1' C6' C7' C8' -173.7(3)
C5' C6' C7' C8' 5.9(4)
C1' C6' C7' N1' 6.6(4)
C5' C6' C7' N1' -173.8(2)
C7' N1' C9' N2' -178.8(2)
C7' N1' C9' S1' 0.7(3)
C10' N2' C9' N1' 176.0(2)
C10' N2' C9' S1' -3.5(4)
C8' S1' C9' N1' -0.3(2)
C8' S1' C9' N2' 179.1(2)
C9' N2' C10' O1' 3.0(4)
C9' N2' C10' C11' -176.5(2)
O1' C10' C11' Cl1' -71.5(3)
N2' C10' C11' Cl1' 108.1(2)

_cod_database_fobs_code 1543425
