#------------------------------------------------------------------------------
#$Date: 2016-04-28 05:20:28 +0300 (Thu, 28 Apr 2016) $
#$Revision: 182319 $
#$URL: svn://www.crystallography.net/cod/cif/1/54/31/1543179.cif $
#------------------------------------------------------------------------------
#
# This file is available in the Crystallography Open Database (COD),
# http://www.crystallography.net/. The original data for this entry
# were provided by IUCr Journals, http://journals.iucr.org/.
#
# The file may be used within the scientific community so long as
# proper attribution is given to the journal article from which the
# data were obtained.
#
data_1543179
loop_
_publ_author_name
'Mague, Joel T.'
'Akkurt, Mehmet'
'Mohamed, Shaaban K.'
'Bakhite, Etify A.'
'Albayati, Mustafa R.'
_publ_section_title
;
 Piperidinium
 4-(4-chlorophenyl)-3-cyano-5-ethoxycarbonyl-6-methylpyridine-2-thiolate
;
_journal_coeditor_code           XU4007
_journal_issue                   4
_journal_name_full               IUCrData
_journal_page_first              x160651
_journal_paper_doi               10.1107/S2414314616006519
_journal_volume                  1
_journal_year                    2016
_chemical_formula_iupac          'C5 H12 N +, C16 H12 Cl N2 O2 S -'
_chemical_formula_moiety         'C5 H12 N +, C16 H12 Cl N2 O2 S -'
_chemical_formula_sum            'C21 H24 Cl N3 O2 S'
_chemical_formula_weight         417.94
_chemical_name_common
;
Piperidinium
4-(4-chlorophenyl)-3-cyano-5-ethoxycarbonyl-6-methylpyridine-2-thiolate
;
_chemical_name_systematic
'Piperidin-1-ium [4-(4-chlorophenyl)-3-cyano-5-(ethoxycarbonyl)-6-methylpyridin-2-yl]sulfanide'
_space_group_crystal_system      monoclinic
_space_group_IT_number           14
_space_group_name_Hall           '-P 2ybc'
_space_group_name_H-M_alt        'P 1 21/c 1'
_symmetry_space_group_name_Hall  '-P 2ybc'
_symmetry_space_group_name_H-M   'P 1 21/c 1'
_atom_sites_solution_hydrogens   geom
_atom_sites_solution_primary     direct
_atom_sites_solution_secondary   difmap
_audit_creation_method           SHELXL-2014/7
_cell_angle_alpha                90
_cell_angle_beta                 105.6030(10)
_cell_angle_gamma                90
_cell_formula_units_Z            4
_cell_length_a                   7.2363(2)
_cell_length_b                   24.2600(7)
_cell_length_c                   12.9049(4)
_cell_measurement_reflns_used    9892
_cell_measurement_temperature    150.(2)
_cell_measurement_theta_max      74.3122
_cell_measurement_theta_min      3.6439
_cell_volume                     2182.00(11)
_computing_cell_refinement
;
<i>SAINT</i> (Bruker, 2016)
;
_computing_data_collection
;
<i>APEX3</i> (Bruker, 2016)
;
_computing_data_reduction
;
<i>SAINT</i> (Bruker, 2016)
;
_computing_molecular_graphics
;
<i>DIAMOND</i> (Brandenburg & Putz, 2012)
;
_computing_publication_material
;
<i>SHELXTL</i> (Sheldrick, 2008)
;
_computing_structure_refinement
;
<i>SHELXL2014</i> (Sheldrick, 2015b)
;
_computing_structure_solution
;
<i>SHELXT</i> (Sheldrick, 2015a)
;
_diffrn_ambient_temperature      150(2)
_diffrn_detector_area_resol_mean 10.4167
_diffrn_measured_fraction_theta_full 0.991
_diffrn_measured_fraction_theta_max 0.975
_diffrn_measurement_device_type  'Bruker D8 VENTURE PHOTON 100 CMOS'
_diffrn_measurement_method       '\w scans'
_diffrn_radiation_monochromator  mirror
_diffrn_radiation_type           CuK\a
_diffrn_radiation_wavelength     1.54178
_diffrn_reflns_av_R_equivalents  0.0277
_diffrn_reflns_limit_h_max       8
_diffrn_reflns_limit_h_min       -9
_diffrn_reflns_limit_k_max       29
_diffrn_reflns_limit_k_min       -30
_diffrn_reflns_limit_l_max       16
_diffrn_reflns_limit_l_min       -16
_diffrn_reflns_number            16665
_diffrn_reflns_theta_full        68.500
_diffrn_reflns_theta_max         74.546
_diffrn_reflns_theta_min         3.644
_exptl_absorpt_coefficient_mu    2.611
_exptl_absorpt_correction_T_max  0.72
_exptl_absorpt_correction_T_min  0.61
_exptl_absorpt_correction_type   multi-scan
_exptl_absorpt_process_details
;
(<i>SADABS</i>; Bruker, 2016)
;
_exptl_crystal_colour            colourless
_exptl_crystal_density_diffrn    1.272
_exptl_crystal_density_method    'not measured'
_exptl_crystal_description       block
_exptl_crystal_F_000             880
_exptl_crystal_size_max          0.264
_exptl_crystal_size_mid          0.140
_exptl_crystal_size_min          0.132
_refine_diff_density_max         0.263
_refine_diff_density_min         -0.458
_refine_ls_extinction_method     none
_refine_ls_goodness_of_fit_ref   1.036
_refine_ls_hydrogen_treatment    mixed
_refine_ls_matrix_type           full
_refine_ls_number_parameters     263
_refine_ls_number_reflns         4350
_refine_ls_number_restraints     0
_refine_ls_restrained_S_all      1.036
_refine_ls_R_factor_all          0.0396
_refine_ls_R_factor_gt           0.0364
_refine_ls_shift/su_max          0.001
_refine_ls_shift/su_mean         0.000
_refine_ls_structure_factor_coef Fsqd
_refine_ls_weighting_details
'w=1/[\s^2^(Fo^2^)+(0.0538P)^2^+0.8348P] where P=(Fo^2^+2Fc^2^)/3'
_refine_ls_weighting_scheme      calc
_refine_ls_wR_factor_gt          0.0948
_refine_ls_wR_factor_ref         0.0974
_reflns_number_gt                3985
_reflns_number_total             4350
_reflns_threshold_expression     'I > 2\s(I)'
_cod_data_source_file            xu4007sup1.cif
_cod_data_source_block           I
_cod_database_code               1543179
_shelx_space_group_comment
;
The symmetry employed for this shelxl refinement is uniquely defined
by the following loop, which should always be used as a source of
symmetry information in preference to the above space-group names.
They are only intended as comments.
;
_shelx_estimated_absorpt_t_min   0.546
_shelx_estimated_absorpt_t_max   0.724
_shelx_hkl_file
;
   1   0   0    3.80    0.14
  -1   0   0    4.12    0.14
  -2   0   0    4.70    0.18
   2   0   0    4.70    0.18
   3   0   0  255.14    8.22
  -3   0   0  263.40    8.21
   3   0   0  248.92    8.21
   4   0   0   27.99    1.01
   4   0   0   27.99    0.98
   5   0   0  230.41    7.51
   5   0   0  232.15    7.51
   5   0   0  233.49    7.52
   6   0   0   11.05    0.50
   6   0   0   11.18    0.56
   6   0   0   11.25    0.53
   7   0   0   18.43    0.74
   7   0   0   19.77    0.77
   8   0   0   42.33    1.48
   8   0   0   45.35    1.50
  -1  -1   0   22.65    0.71
   1  -1   0   21.59    0.72
   1   1   0   21.13    0.71
  -1   1   0   22.20    0.72
   2  -1   0    3.46    0.15
  -2  -1   0    3.42    0.14
  -2   1   0    3.61    0.15
   2   1   0    3.40    0.14
   3  -1   0   78.45    2.49
  -3  -1   0   77.87    2.49
   3  -1   0   73.69    2.50
  -3   1   0   77.34    2.50
   3   1   0   75.88    2.50
   3   1   0   76.14    2.48
   4  -1   0   19.53    0.73
   4  -1   0   20.00    0.72
   4   1   0   20.25    0.73
  -4   1   0   20.24    0.77
   5  -1   0    4.30    0.35
   5  -1   0    4.51    0.27
   5  -1   0    4.55    0.37
   5   1   0    4.40    0.35
   5   1   0    4.16    0.26
   5   1   0    4.16    0.39
   6  -1   0   25.19    0.97
   6  -1   0   24.44    0.95
   6  -1   0   25.48    0.93
   6   1   0   24.45    0.95
   6   1   0   25.74    0.93
   6   1   0   24.45    0.97
   7  -1   0    1.63    0.28
   7  -1   0    1.00    0.21
   7   1   0    0.95    0.21
   7   1   0    0.93    0.20
   8  -1   0    3.95    0.27
   8  -1   0    4.29    0.27
   8   1   0    3.82    0.27
   8   1   0    3.61    0.29
   0  -2   0  185.38    6.17
   0   2   0  197.82    6.18
   1  -2   0   72.58    2.28
  -1  -2   0   75.00    2.27
   1   2   0   64.35    2.27
  -1   2   0   70.43    2.28
   2  -2   0   62.32    2.01
  -2  -2   0   62.27    1.99
  -2   2   0   61.92    2.01
   2   2   0   60.26    1.99
   3  -2   0    1.28    0.12
   3  -2   0    0.92    0.15
  -3  -2   0    0.98    0.11
   3   2   0    1.39    0.15
   3   2   0    1.18    0.10
  -3   2   0    1.01    0.13
   4  -2   0   54.17    1.71
   4  -2   0   50.33    1.72
   4   2   0   52.35    1.71
  -4   2   0   47.26    1.73
   5  -2   0    4.70    0.38
   5  -2   0    4.86    0.37
   5  -2   0    5.53    0.29
   5   2   0    5.18    0.43
   5   2   0    5.13    0.37
   5   2   0    5.42    0.30
   6  -2   0    0.87    0.21
   6  -2   0    0.80    0.20
   6  -2   0    1.14    0.28
   6   2   0    0.62    0.20
   6   2   0    0.76    0.22
   6   2   0    0.97    0.21
   7  -2   0    0.53    0.17
   7  -2   0    0.07    0.14
   7   2   0    0.03    0.13
   7   2   0    0.05    0.19
   8  -2   0    4.05    0.27
   8  -2   0    4.06    0.28
   8   2   0    3.83    0.28
   8   2   0    3.85    0.32
   0  -3   0    0.23    0.03
   1  -3   0   59.66    2.00
  -1   3   0   62.53    2.00
   1   3   0   62.97    1.99
  -2  -3   0   99.31    3.02
   2  -3   0   86.03    3.04
   2   3   0   94.91    3.02
  -2   3   0   95.42    3.04
   3  -3   0  166.06    5.35
   3  -3   0  161.30    5.35
  -3  -3   0  166.63    5.32
  -3   3   0  165.73    5.36
   3   3   0  164.04    5.32
   3   3   0  170.48    5.35
   4  -3   0    0.10    0.15
  -4   3   0    0.24    0.19
   5  -3   0   34.61    1.26
   5  -3   0   35.74    1.24
   5  -3   0   35.58    1.27
   5   3   0   34.96    1.26
   5   3   0   36.39    1.25
   5   3   0   35.30    1.29
   6  -3   0   15.02    0.61
   6  -3   0   14.13    0.64
   6  -3   0   14.38    0.65
   6   3   0   14.72    0.68
   6   3   0   15.08    0.61
   6   3   0   15.16    0.64
   7  -3   0    2.04    0.28
   7  -3   0    1.41    0.22
   7   3   0    1.38    0.23
   8  -3   0   14.63    0.58
   8  -3   0   14.44    0.56
   8   3   0   15.30    0.58
   8   3   0   13.39    0.60
   0  -4   0  251.71    8.14
   0   4   0  252.18    8.12
   1  -4   0  604.32   19.51
   1   4   0  583.85   19.42
  -1   4   0  627.49   19.48
   2  -4   0   16.83    0.59
  -2  -4   0   16.94    0.56
  -2   4   0   16.97    0.59
   2   4   0   15.98    0.56
   3  -4   0   33.30    1.13
   3  -4   0   34.00    1.15
  -3  -4   0   35.18    1.11
   3   4   0   32.44    1.13
   3   4   0   32.84    1.11
  -3   4   0   33.25    1.15
   4  -4   0  186.31    5.82
   4  -4   0  181.16    5.84
   4   4   0  185.02    5.82
  -4   4   0  166.08    5.84
   5  -4   0   71.24    2.39
   5  -4   0   72.36    2.40
   5  -4   0   71.58    2.38
   5   4   0   71.59    2.38
   5   4   0   72.67    2.40
   5   4   0   67.40    2.41
   6  -4   0   85.60    2.90
   6  -4   0   85.15    2.91
   6  -4   0   95.68    3.05
   6   4   0   84.60    2.91
   6   4   0   84.01    2.91
   6   4   0   86.41    2.94
   7  -4   0    3.83    0.30
   7  -4   0    3.01    0.26
   7   4   0    3.10    0.38
   7   4   0    2.98    0.27
   8  -4   0   -0.01    0.13
   8  -4   0   -0.01    0.12
   8   4   0    0.10    0.14
   0   5   0    0.04    0.03
   1  -5   0   95.74    3.18
   1   5   0  100.57    3.17
  -1   5   0  103.47    3.19
   1   5   0   93.63    3.17
   2  -5   0    0.03    0.04
   2   5   0    0.06    0.04
  -2   5   0    0.09    0.05
   3  -5   0    5.78    0.27
   3  -5   0    6.07    0.29
   3   5   0    6.16    0.25
   3   5   0    5.60    0.28
  -3   5   0    6.13    0.31
   4  -5   0    1.12    0.34
   4  -5   0    0.64    0.19
   4  -5   0    0.82    0.15
   4   5   0    1.11    0.16
  -4   5   0    0.97    0.28
   5  -5   0    0.33    0.16
   5  -5   0    0.04    0.10
   5  -5   0   -0.02    0.16
   5   5   0    0.32    0.25
   5   5   0    0.07    0.15
   5   5   0    0.05    0.12
   6  -5   0   69.60    2.38
   6  -5   0   70.11    2.36
   6   5   0   71.58    2.37
   6   5   0   68.72    2.38
   7  -5   0    5.90    0.34
   7  -5   0    6.60    0.39
   7   5   0    6.25    0.35
   7   5   0    6.37    0.44
   8  -5   0    3.19    0.26
   8  -5   0    3.43    0.24
   8   5   0    3.64    0.27
   0   6   0   33.12    1.10
   1  -6   0    1.85    0.12
   1   6   0    2.21    0.11
   1   6   0    2.01    0.11
  -1   6   0    2.17    0.13
   2  -6   0  110.82    3.56
  -2   6   0  110.33    3.57
   2   6   0  107.42    3.53
   3  -6   0    5.94    0.30
   3  -6   0    5.34    0.26
   3   6   0    6.12    0.28
  -3   6   0    5.36    0.32
   3   6   0    5.54    0.24
   4  -6   0    9.84    0.40
   4  -6   0    8.94    0.48
   4  -6   0    9.11    0.56
   4   6   0    9.33    0.40
   5  -6   0   29.96    1.01
   5  -6   0   26.74    1.03
   5  -6   0   27.38    1.04
   5   6   0   28.23    1.04
   5   6   0   27.90    1.01
   5   6   0   26.70    1.08
   6  -6   0    1.01    0.21
   6  -6   0    1.05    0.27
   6  -6   0    1.75    0.30
   6   6   0    1.48    0.32
   6   6   0    0.64    0.29
   6   6   0    0.89    0.21
   7  -6   0    0.12    0.13
   7   6   0    0.11    0.13
   7   6   0    0.28    0.26
   8  -6   0    0.26    0.15
   8  -6   0    0.37    0.12
  -8  -6   0    0.24    0.10
  -8   6   0    0.08    0.11
   8   6   0    0.37    0.15
   0   7   0    0.03    0.05
   1  -7   0  399.53   13.19
   1   7   0  438.12   13.15
  -1   7   0  403.49   13.15
   1   7   0  399.22   13.19
   2  -7   0   23.54    0.80
   2  -7   0   21.20    0.77
  -2   7   0   22.88    0.80
   2   7   0   22.03    0.76
   2   7   0   20.97    0.78
   2   7   0   23.52    0.77
   3  -7   0  111.43    3.63
   3  -7   0  114.53    3.67
   3   7   0  111.09    3.61
   3   7   0  114.95    3.64
  -3   7   0  108.93    3.68
   3   7   0  109.02    3.61
   4  -7   0   66.79    2.17
   4  -7   0   66.34    2.20
   4  -7   0   62.12    2.25
   4   7   0   63.68    2.20
   4   7   0   67.35    2.18
   5  -7   0    9.14    0.50
   5  -7   0    9.52    0.42
   5  -7   0    8.95    0.48
   5   7   0    9.23    0.50
   5   7   0    8.86    0.42
   6  -7   0   15.99    0.65
   6  -7   0   15.58    0.65
   6  -7   0   14.15    0.61
   6   7   0   15.92    0.66
   6   7   0   14.05    0.77
   6   7   0   14.23    0.62
   7  -7   0   24.27    0.90
   7  -7   0   23.69    0.89
   7   7   0   24.44    0.90
   8  -7   0   16.46    0.63
   8  -7   0   16.82    0.62
   8   7   0   16.83    0.64
  -8   7   0   16.99    0.61
   0   8   0  487.48   15.71
   1  -8   0   43.62    1.45
  -1   8   0   45.36    1.46
   1   8   0   40.87    1.43
   2  -8   0    2.89    0.19
   2  -8   0    3.12    0.20
   2   8   0    3.01    0.20
   2   8   0    3.31    0.19
  -2   8   0    2.75    0.22
   2   8   0    2.98    0.18
   3  -8   0    6.82    0.30
   3  -8   0    6.43    0.36
   3   8   0    6.45    0.30
   3   8   0    6.58    0.30
   3   8   0    6.17    0.32
   4  -8   0   59.78    2.09
   4  -8   0   58.86    2.01
   4  -8   0   60.37    2.04
   4  -8   0   66.43    2.24
   4   8   0   56.03    2.03
   4   8   0   58.94    2.01
   5  -8   0    1.67    0.30
   5  -8   0    1.88    0.37
   5  -8   0    2.54    0.22
   5   8   0    1.99    0.22
   5   8   0    2.01    0.36
   6  -8   0    2.70    0.30
   6  -8   0    2.15    0.23
   6   8   0    2.33    0.25
   7  -8   0    7.26    0.38
   7  -8   0    7.26    0.37
   7   8   0    7.23    0.38
  -8  -8   0    0.28    0.12
   8  -8   0    0.35    0.11
   8  -8   0    0.14    0.15
  -8   8   0    0.22    0.15
   8   8   0    0.23    0.17
   0   9   0    0.08    0.06
   1  -9   0    7.17    0.32
   1  -9   0    7.91    0.33
  -1   9   0    7.88    0.34
   1   9   0    8.02    0.33
   1   9   0    7.77    0.32
   2  -9   0   41.81    1.42
   2  -9   0   44.58    1.46
  -2   9   0   42.25    1.47
   2   9   0   41.35    1.42
   2   9   0   43.07    1.43
   2   9   0   41.56    1.42
   3  -9   0   29.96    1.03
   3  -9   0   29.82    1.09
   3   9   0   28.66    1.02
   3   9   0   29.88    1.03
   4  -9   0   51.85    1.66
  -4  -9   0   44.83    1.69
   4  -9   0   52.08    1.69
   4   9   0   48.49    1.66
   4   9   0   47.34    1.70
   5  -9   0   18.99    0.71
   5  -9   0   18.75    0.74
   5   9   0   16.15    0.87
   5   9   0   19.01    0.72
   6  -9   0   15.39    0.64
   6  -9   0   14.74    0.61
   6   9   0   14.15    0.61
   7  -9   0    0.80    0.19
   7  -9   0    0.66    0.15
   7   9   0    0.79    0.16
  -8  -9   0    0.46    0.15
   0 -10   0   83.01    2.73
   0  10   0   84.74    2.76
   1 -10   0    0.84    0.14
   1  10   0    1.02    0.16
  -1  10   0    1.00    0.18
   1  10   0    1.04    0.15
   2 -10   0   29.23    0.99
   2 -10   0   28.75    1.03
   2  10   0   27.29    1.00
  -2  10   0   30.49    1.11
   2  10   0   28.84    1.01
   2  10   0   28.50    1.00
   3 -10   0    2.92    0.20
   3 -10   0    2.67    0.34
   3  10   0    2.75    0.21
   4 -10   0    0.53    0.20
   4 -10   0    0.26    0.10
  -4 -10   0    0.22    0.20
   4  10   0    0.68    0.17
   4  10   0    0.32    0.29
  -5 -10   0   38.43    1.58
   5 -10   0   42.73    1.48
   5 -10   0   40.26    1.48
   5 -10   0   44.01    1.47
   5  10   0   43.72    1.49
   5  10   0   42.06    1.47
   6 -10   0    1.01    0.20
   6 -10   0    1.03    0.19
   6  10   0    0.99    0.21
   7 -10   0    3.72    0.27
   7 -10   0    4.09    0.26
   7  10   0    3.75    0.28
   0 -11   0    0.02    0.08
   0  11   0    0.02    0.10
   1 -11   0    0.59    0.14
  -1  11   0    0.78    0.21
   1  11   0    0.97    0.17
   1  11   0    0.87    0.19
   2 -11   0  120.36    3.99
   2 -11   0  121.65    4.05
   2  11   0  121.46    4.02
   2  11   0  128.18    4.01
  -3 -11   0   34.27    1.27
   3 -11   0   36.97    1.24
   3  11   0   37.00    1.25
   4 -11   0   57.45    1.94
   4 -11   0   58.45    1.93
  -4 -11   0   54.13    1.93
   4  11   0   57.67    1.93
   5 -11   0   -0.35    0.16
  -5 -11   0    0.12    0.22
   5 -11   0    0.02    0.12
   5  11   0    0.06    0.12
   6 -11   0    8.38    0.42
   6 -11   0    7.52    0.39
   6  11   0    7.57    0.40
   7 -11   0    4.56    0.28
  -7 -11   0    4.20    0.29
   7 -11   0    4.43    0.29
   7  11   0    4.06    0.37
   0 -12   0  162.84    5.19
   0  12   0  158.14    5.24
   1 -12   0    0.37    0.10
   1  12   0    0.01    0.11
   1  12   0    0.22    0.14
   2 -12   0    0.02    0.08
   2  12   0    0.00    0.10
   2  12   0    0.10    0.17
   2  12   0    0.03    0.19
  -3 -12   0   19.75    0.75
   3 -12   0   19.78    0.70
   3 -12   0   16.45    0.79
   3  12   0   19.43    0.71
   4 -12   0   22.01    0.86
   4 -12   0   22.50    0.82
  -4 -12   0   21.78    0.85
   4  12   0   22.79    0.84
  -5 -12   0   41.41    1.52
   5 -12   0   42.85    1.52
   5 -12   0   44.17    1.51
   5  12   0   45.53    1.53
   6 -12   0    0.75    0.19
   6 -12   0    0.85    0.17
   6  12   0    0.44    0.15
   7 -12   0    3.54    0.26
   7 -12   0    3.82    0.26
   7  12   0    3.61    0.27
   0 -13   0    0.18    0.09
   1 -13   0    6.86    0.31
   1  13   0    6.79    0.40
  -2 -13   0   23.54    0.89
   2 -13   0   24.58    0.85
   2  13   0   24.72    0.87
   2  13   0   23.21    0.95
  -3 -13   0    8.80    0.45
   3 -13   0    9.79    0.41
   3 -13   0    8.64    0.55
   3  13   0    9.31    0.41
   4 -13   0    8.11    0.48
  -4 -13   0    8.89    0.46
   4 -13   0    9.22    0.41
   4  13   0    9.13    0.43
   5 -13   0    3.25    0.25
  -5 -13   0    3.12    0.34
   5 -13   0    3.52    0.33
   5  13   0    2.80    0.27
   6 -13   0    5.40    0.33
   6 -13   0    3.80    0.28
   6  13   0    4.31    0.29
   7 -13   0    0.46    0.13
   7 -13   0    0.44    0.13
   7  13   0    0.43    0.15
   0 -14   0   65.05    2.15
   1 -14   0   43.08    1.46
   1  14   0   42.73    1.54
  -2 -14   0   35.44    1.23
   2 -14   0   32.35    1.24
   2 -14   0   36.70    1.21
   2  14   0   33.78    1.39
   2  14   0   36.90    1.23
  -3 -14   0    9.08    0.44
   3 -14   0    7.94    0.54
   3 -14   0    9.12    0.39
   3  14   0    8.34    0.40
   4 -14   0   21.42    0.80
   4 -14   0   20.20    0.83
  -4 -14   0   21.71    0.82
   4  14   0   21.57    0.82
  -5 -14   0   21.14    0.78
   5 -14   0   18.87    0.75
   5 -14   0   20.32    0.78
   5  14   0   18.67    0.77
   6 -14   0   -0.02    0.12
   6 -14   0   -0.16    0.15
   6  14   0    0.03    0.12
   7 -14   0    0.59    0.15
   7  14   0    0.46    0.15
   0 -15   0    0.01    0.08
   0 -15   0    0.07    0.15
  -1 -15   0    8.03    0.45
  -1 -15   0    7.54    0.42
   1 -15   0    7.93    0.43
   1 -15   0    8.64    0.36
   1  15   0    7.60    0.59
  -2 -15   0    0.17    0.21
  -2 -15   0    0.22    0.16
   2 -15   0    0.26    0.20
   2 -15   0    0.09    0.09
   2  15   0   -0.07    0.10
   3 -15   0   40.93    1.37
   3 -15   0   39.82    1.42
  -3 -15   0   40.27    1.38
   3 -15   0   35.55    1.41
   3  15   0   41.20    1.39
   4 -15   0    0.76    0.19
  -4 -15   0    0.16    0.15
   4 -15   0    0.42    0.21
   4  15   0    0.17    0.14
   5 -15   0    0.35    0.18
   5 -15   0    0.44    0.14
  -5 -15   0    0.53    0.17
   5  15   0    0.36    0.15
   6 -15   0    0.28    0.12
   6 -15   0   -0.03    0.15
  -6 -15   0    0.03    0.25
   6  15   0    0.12    0.13
   7 -15   0    0.03    0.13
   7  15   0    0.06    0.15
   0 -16   0   79.91    2.64
   0 -16   0   80.57    2.66
   0 -16   0   79.10    2.65
   1 -16   0   44.02    1.49
   1 -16   0   44.98    1.51
  -1 -16   0   42.03    1.50
  -1 -16   0   43.04    1.50
   2 -16   0    0.32    0.11
  -2 -16   0    0.11    0.15
   2 -16   0    0.29    0.18
   2  16   0    0.19    0.12
   3 -16   0   29.32    0.99
  -3 -16   0   27.25    1.00
  -3 -16   0   24.59    1.05
   3 -16   0   26.32    1.04
   3  16   0   28.23    1.00
   4 -16   0   11.00    0.48
   4 -16   0    9.69    0.54
  -4 -16   0   10.06    0.48
   4  16   0   10.38    0.49
   5 -16   0   12.01    0.53
  -5 -16   0   13.02    0.55
   5 -16   0   12.41    0.56
   5  16   0   11.96    0.54
   6 -16   0    0.29    0.12
  -6 -16   0    0.13    0.20
   6  16   0    0.32    0.14
   0 -17   0    0.95    0.23
   0 -17   0    0.31    0.11
   0 -17   0    0.27    0.19
  -1 -17   0   14.02    0.62
  -1 -17   0   14.43    0.61
   1 -17   0   14.70    0.58
   1 -17   0   15.46    0.62
  -2 -17   0   42.96    1.50
   2 -17   0   43.24    1.50
  -2 -17   0   42.31    1.52
   2 -17   0   43.72    1.52
   2  17   0   45.35    1.52
   3 -17   0   52.25    1.80
   3 -17   0   54.05    1.78
  -3 -17   0   50.12    1.78
   3  17   0   51.70    1.79
   4 -17   0   14.56    0.60
  -4 -17   0   15.55    0.62
   4  17   0   14.35    0.62
  -5 -17   0   11.08    0.48
   5 -17   0    9.64    0.45
   5  17   0    9.29    0.51
  -6 -17   0    0.22    0.18
   6 -17   0    0.38    0.22
   6  17   0   -0.12    0.14
   0 -18   0   29.91    1.08
   0 -18   0   29.44    1.07
   1 -18   0    0.47    0.16
  -1 -18   0    0.33    0.17
   1 -18   0    0.32    0.11
  -1 -18   0    0.17    0.15
   2 -18   0    1.04    0.19
   2 -18   0    1.32    0.34
  -2 -18   0    0.67    0.15
   2  18   0    1.12    0.21
  -3 -18   0    6.71    0.51
   3 -18   0    6.97    0.36
   3 -18   0    6.69    0.46
  -3 -18   0    7.32    0.38
   3  18   0    6.56    0.38
   4 -18   0   19.02    0.75
  -4 -18   0   20.95    0.77
   4  18   0   19.07    0.77
   5 -18   0    0.80    0.19
  -5 -18   0    0.10    0.13
   5  18   0    0.14    0.14
  -6 -18   0    1.05    0.23
   6 -18   0    1.20    0.20
   6  18   0    1.14    0.22
   0 -19   0    0.60    0.20
   0 -19   0   -0.16    0.19
   1 -19   0   33.60    1.16
   1 -19   0   33.61    1.18
  -1 -19   0   31.53    1.16
  -1 -19   0   32.18    1.18
  -2 -19   0    4.24    0.36
   2 -19   0    4.62    0.36
  -2 -19   0    4.10    0.31
   2 -19   0    4.43    0.28
   2  19   0    4.73    0.32
   3 -19   0   12.41    0.55
  -3 -19   0   13.75    0.56
  -3 -19   0   12.94    0.63
   3 -19   0   13.95    0.62
   3  19   0   12.71    0.57
  -4 -19   0    2.44    0.26
   4 -19   0    2.26    0.22
   4  19   0    1.98    0.24
   5 -19   0    0.35    0.12
  -5 -19   0    0.09    0.13
   5  19   0    0.15    0.13
  -6 -19   0    0.40    0.18
   6 -19   0    0.40    0.13
   6  19   0    0.35    0.15
   0 -20   0   19.59    0.79
   0 -20   0   20.35    0.78
  -1 -20   0   31.18    1.12
  -1 -20   0   31.11    1.13
   1 -20   0   30.52    1.13
   1 -20   0   32.01    1.12
   2 -20   0    3.58    0.27
   2 -20   0    4.06    0.34
  -2 -20   0    3.29    0.34
  -2 -20   0    3.40    0.28
   2  20   0    3.94    0.30
   3 -20   0    1.57    0.21
   3 -20   0    2.38    0.36
  -3 -20   0    2.12    0.25
  -3 -20   0    2.19    0.39
   3  20   0    2.65    0.26
  -4 -20   0    4.35    0.30
   4 -20   0    3.47    0.26
   4  20   0    4.11    0.32
  -5 -20   0   23.19    0.81
   5 -20   0   21.14    0.81
   5  20   0   21.89    0.83
   6 -20   0   14.03    0.53
  -6 -20   0   12.45    0.54
   6  20   0   13.49    0.55
   0 -21   0    0.02    0.18
   0 -21   0   -0.02    0.14
   1 -21   0    5.10    0.35
  -1 -21   0    4.94    0.33
  -1 -21   0    5.13    0.35
   1 -21   0    4.59    0.33
  -2 -21   0    5.54    0.34
  -2 -21   0    4.89    0.42
   2 -21   0    5.30    0.37
   2 -21   0    5.32    0.31
   2  21   0    5.52    0.35
  -3 -21   0   11.88    0.57
   3 -21   0   11.66    0.51
   3 -21   0   12.69    0.57
  -3 -21   0   12.74    0.53
   3  21   0   11.30    0.53
  -4 -21   0   15.77    0.63
   4 -21   0   16.25    0.63
   4  21   0   15.10    0.64
   5 -21   0   21.72    0.80
  -5 -21   0   22.49    0.79
   5  21   0   21.87    0.82
   0 -22   0    0.36    0.18
   0 -22   0    0.35    0.15
  -1 -22   0   28.09    1.03
   1 -22   0   29.52    1.04
  -1 -22   0   28.61    1.04
   1  22   0   25.69    1.03
  -2 -22   0   20.67    0.79
  -2 -22   0   20.70    0.77
   2 -22   0   20.86    0.79
   2 -22   0   18.32    0.76
   2  22   0   19.49    0.79
   3 -22   0    0.07    0.11
  -3 -22   0    0.12    0.12
   3  22   0   -0.05    0.15
  -4 -22   0    2.61    0.23
   4 -22   0    2.75    0.23
   4  22   0    2.50    0.25
   5 -22   0    1.44    0.21
  -5 -22   0    1.27    0.17
   5  22   0    1.22    0.23
   0 -23   0    0.24    0.14
   0 -23   0    0.39    0.18
  -1 -23   0    1.90    0.28
  -1 -23   0    1.87    0.27
   1 -23   0    1.34    0.26
   1  23   0    1.12    0.23
  -2 -23   0    9.76    0.46
  -2 -23   0    9.97    0.45
   2 -23   0    9.95    0.47
   2 -23   0    8.69    0.43
   2  23   0    9.01    0.46
  -3 -23   0   11.66    0.54
   3 -23   0   11.67    0.51
  -3 -23   0   12.37    0.51
   3 -23   0   12.92    0.53
   3  23   0   11.58    0.53
  -4 -23   0   11.91    0.48
   4  23   0   12.17    0.55
  -5 -23   0    0.01    0.11
   5 -23   0    0.09    0.13
   5  23   0    0.01    0.15
   0 -24   0   36.78    1.27
   0 -24   0   34.75    1.25
  -1 -24   0   16.32    0.65
  -1 -24   0   16.67    0.65
   1 -24   0   16.08    0.65
   1  24   0   14.89    0.65
  -2 -24   0    0.26    0.14
   2 -24   0    0.02    0.13
   2  24   0    0.16    0.13
   3 -24   0    0.17    0.15
  -3 -24   0    0.00    0.19
  -3 -24   0    0.19    0.11
   3 -24   0    0.29    0.13
   3  24   0    0.12    0.13
   4 -24   0    8.06    0.36
  -4 -24   0    7.24    0.34
   4  24   0    7.87    0.38
  -5 -24   0   13.99    0.51
   0 -25   0   -0.23    0.16
   0  25   0   -0.13    0.14
  -1 -25   0    8.08    0.39
  -1 -25   0    7.40    0.38
   1 -25   0    8.24    0.39
   1  25   0    7.68    0.40
  -2 -25   0    3.85    0.26
  -2 -25   0    4.10    0.28
   2 -25   0    4.10    0.28
   2  25   0    4.42    0.29
  -3 -25   0    4.41    0.36
   3 -25   0    4.92    0.32
  -3 -25   0    4.80    0.26
   3  25   0    5.35    0.31
  -4 -25   0   11.66    0.46
   4  25   0   12.44    0.51
   0 -26   0    7.88    0.38
   0 -26   0    8.10    0.41
   0  26   0    8.23    0.40
  -1 -26   0    0.22    0.11
   1 -26   0    0.22    0.11
  -1 -26   0    0.14    0.12
   1  26   0    0.47    0.15
  -2 -26   0   -0.14    0.12
   2 -26   0   -0.10    0.12
  -2 -26   0    0.03    0.10
   2  26   0    0.13    0.16
  -3 -26   0    3.11    0.20
   3 -26   0    2.69    0.28
   3  26   0    3.36    0.26
  -4 -26   0    1.25    0.14
   0 -27   0    0.16    0.20
   0 -27   0    0.01    0.10
   0  27   0    0.07    0.14
  -1 -27   0   11.69    0.47
  -1 -27   0   11.56    0.47
   1 -27   0   11.38    0.47
  -1  27   0   11.43    0.50
   1  27   0   11.32    0.50
   2 -27   0    7.01    0.32
  -2 -27   0    6.42    0.31
  -2 -27   0    6.50    0.32
   2  27   0    6.88    0.35
  -3 -27   0   25.60    0.87
   3  27   0   24.93    0.90
   0 -28   0    6.84    0.31
   0  28   0    6.60    0.36
  -1 -28   0   10.70    0.44
   1 -28   0   11.01    0.45
  -1  28   0   11.90    0.49
   1  28   0   12.00    0.49
   2 -28   0    2.73    0.22
  -2 -28   0    2.94    0.31
  -2 -28   0    2.83    0.22
   2  28   0    3.01    0.27
  -2  28   0    3.08    0.28
  -3 -28   0    1.21    0.14
   0 -29   0   -0.02    0.09
   0  29   0   -0.05    0.17
  -1 -29   0    0.12    0.15
   1 -29   0    0.23    0.14
  -1 -29   0    0.23    0.10
  -2 -29   0   -0.03    0.10
   2 -29   0   -0.06    0.11
   0 -30   0    1.48    0.15
   1 -30   0    0.41    0.09
  -1 -30   0    0.20    0.10
   8   0  -1    0.11    0.13
   8   0  -1    0.03    0.16
   7   0  -1    0.02    0.13
   7   0  -1    0.17    0.18
   6   0  -1    0.04    0.12
   6   0  -1   -0.07    0.17
   6   0  -1    0.25    0.20
   5   0  -1   -0.11    0.09
   5   0  -1   -0.01    0.19
   5   0  -1    0.11    0.21
   4   0  -1   -0.10    0.13
   4   0  -1    0.04    0.09
  -4   0   1    0.04    0.15
  -3   0   1    0.03    0.06
   3   0  -1   -0.07    0.08
   3   0  -1    0.17    0.06
   2   0  -1    0.00    0.03
  -2   0   1   -0.01    0.03
   1   0  -1    0.01    0.02
  -1   0   1    0.02    0.02
   0   0   1    0.01    0.01
  -1   0  -1    0.23    0.02
   2   0   1    0.03    0.03
  -2   0  -1    0.04    0.03
   3   0   1    0.00    0.05
  -3   0  -1    0.05    0.05
   3   0   1    0.03    0.09
   4   0   1    0.09    0.09
   5   0   1    0.21    0.20
   5   0   1    0.05    0.10
   5   0   1    0.20    0.18
   6   0   1   -0.04    0.17
   6   0   1   -0.16    0.19
   6   0   1   -0.04    0.22
   7   0   1    0.46    0.14
   8   0   1   -0.08    0.13
   8   0   1    0.02    0.14
   8  -1  -1    0.30    0.16
   8  -1  -1    0.56    0.14
   8   1  -1    0.87    0.21
   8   1  -1    0.36    0.18
   7  -1  -1   17.73    0.72
   7  -1  -1   19.06    0.75
   7   1  -1   18.95    0.76
   7   1  -1   18.48    0.73
   6  -1  -1    0.27    0.20
   6  -1  -1    0.41    0.13
   6  -1  -1    0.13    0.18
   6   1  -1    0.09    0.17
   6   1  -1    0.13    0.21
   6   1  -1    0.21    0.13
   5  -1  -1    0.21    0.10
   5  -1  -1    0.48    0.20
   5  -1  -1    0.16    0.21
   5   1  -1    0.11    0.22
   5   1  -1    0.20    0.20
   5   1  -1    0.05    0.10
   4  -1  -1  105.97    3.32
  -4  -1   1   98.30    3.32
   4  -1  -1   91.98    3.36
   4   1  -1  107.51    3.32
   4   1  -1  104.52    3.32
  -4   1   1  100.95    3.34
  -3  -1   1  124.47    3.97
   3  -1  -1  121.54    3.95
   3  -1  -1  120.03    3.95
  -3   1   1  123.64    3.95
   3   1  -1  119.03    3.94
   3   1  -1  122.53    3.94
  -2  -1   1  103.45    3.28
   2  -1  -1   99.65    3.28
   2   1  -1   99.14    3.28
  -2   1   1  104.40    3.29
   1  -1  -1   18.66    0.64
  -1  -1   1   19.80    0.64
  -1   1   1   19.92    0.64
   1   1  -1   18.73    0.64
   0  -1   1   50.20    1.58
   0   1  -1   45.91    1.58
   0   1   1   51.37    1.58
   1  -1   1  176.53    5.77
  -1   1  -1  182.25    5.77
  -2  -1  -1   63.04    1.99
   2  -1   1   61.17    2.00
  -2   1  -1   61.53    2.00
   3  -1   1    0.48    0.11
  -3  -1  -1    0.50    0.08
   3  -1   1    0.46    0.09
   3   1   1    0.55    0.14
  -3   1  -1    0.42    0.11
   4  -1   1    4.97    0.63
   4  -1   1    4.73    0.27
   4   1   1    5.15    0.27
   4   1   1    7.07    0.65
   5  -1   1    4.87    0.37
   5  -1   1    5.20    0.30
   5  -1   1    5.90    0.39
   5   1   1    5.31    0.38
   5   1   1    5.87    0.41
   5   1   1    5.28    0.30
   6  -1   1    0.78    0.19
   6  -1   1    0.75    0.19
   6  -1   1    0.94    0.23
   6   1   1    1.26    0.28
   6   1   1    1.11    0.26
   6   1   1    1.00    0.22
   7  -1   1   36.12    1.26
   7   1   1   33.70    1.25
   7   1   1   36.36    1.33
   8  -1   1    3.72    0.25
   8  -1   1    3.21    0.28
   8   1   1    3.50    0.27
   8  -2  -1    6.29    0.32
   8   2  -1    5.57    0.38
   8   2  -1    5.95    0.33
   7  -2  -1   52.43    1.83
   7  -2  -1   54.90    1.83
   7   2  -1   55.13    1.83
   7   2  -1   50.80    1.83
   6  -2  -1    1.86    0.33
   6  -2  -1    2.41    0.32
   6  -2  -1    1.93    0.23
   6   2  -1    1.92    0.38
   6   2  -1    2.57    0.32
   6   2  -1    1.64    0.23
   5  -2  -1    5.40    0.39
   5  -2  -1    5.34    0.40
   5  -2  -1    5.84    0.30
   5   2  -1    5.58    0.31
   5   2  -1    5.21    0.39
   5   2  -1    5.70    0.47
   4  -2  -1    0.37    0.14
  -4  -2   1    0.82    0.25
   4  -2  -1    0.57    0.15
   4   2  -1    0.49    0.10
  -4   2   1    0.58    0.18
   4   2  -1    0.40    0.13
   3  -2  -1   14.81    0.53
  -3  -2   1   14.90    0.52
   3  -2  -1   13.33    0.52
   3   2  -1   14.84    0.52
  -3   2   1   14.09    0.53
   3   2  -1   13.53    0.52
  -2  -2   1  158.36    5.02
   2  -2  -1  151.48    5.03
   2   2  -1  157.10    5.02
  -2   2   1  158.19    5.03
   1  -2  -1    0.30    0.04
  -1  -2   1    0.32    0.04
  -1   2   1    0.39    0.04
   0  -2  -1  112.02    3.74
   0   2   1  121.37    3.73
   0   2  -1  114.26    3.75
   1  -2   1   23.41    0.78
  -1   2  -1   23.77    0.78
   2  -2   1    0.25    0.07
  -2   2  -1    0.33    0.06
   3  -2   1    6.69    0.28
   3  -2   1    6.37    0.29
  -3   2  -1    6.72    0.28
   3   2   1    6.37    0.29
   4  -2   1   13.85    0.55
   4  -2   1   14.50    0.68
   4  -2   1   16.25    0.76
   4   2   1   14.09    0.65
   4   2   1   14.32    0.56
   5  -2   1   27.61    0.99
   5  -2   1   26.96    1.01
   5   2   1   26.70    0.99
   5   2   1   27.82    1.04
   5   2   1   27.62    1.02
   6  -2   1   14.50    0.61
   6  -2   1   13.89    0.60
   6  -2   1   14.32    0.63
   6   2   1   14.08    0.64
   6   2   1   14.48    0.62
   6   2   1   12.94    0.59
   7  -2   1    1.42    0.22
   7   2   1    1.49    0.29
   7   2   1    1.51    0.24
   8  -2   1    1.67    0.20
   8  -2   1    1.53    0.24
   8   2   1    1.32    0.19
   8   2   1    1.73    0.24
   8  -3  -1    6.29    0.33
   8  -3  -1    6.49    0.33
   8   3  -1    6.19    0.34
   7  -3  -1   23.89    0.90
   7  -3  -1   24.83    0.91
   7   3  -1   22.66    0.89
   7   3  -1   24.24    0.92
   6  -3  -1   25.74    1.02
   6  -3  -1   28.23    1.00
   6  -3  -1   26.46    1.01
   6   3  -1   27.21    1.02
   6   3  -1   26.38    1.04
   6   3  -1   27.97    1.00
   5  -3  -1   13.82    0.56
   5  -3  -1   13.13    0.61
   5  -3  -1   13.93    0.63
   5   3  -1   13.35    0.68
   5   3  -1   14.41    0.61
   5   3  -1   14.76    0.56
   4  -3  -1    6.82    0.36
  -4  -3   1    6.16    0.35
   4  -3  -1    6.32    0.30
  -4   3   1    5.98    0.42
   4   3  -1    7.07    0.31
   4   3  -1    6.29    0.33
   3  -3  -1   28.32    0.99
   3  -3  -1   28.70    0.98
  -3  -3   1   29.42    0.98
  -3   3   1   28.79    1.00
   3   3  -1   29.58    0.98
   3   3  -1   28.37    0.99
   2  -3  -1  228.45    7.55
  -2  -3   1  235.79    7.54
  -2   3   1  246.02    7.56
   2   3  -1  230.54    7.54
   1  -3  -1  830.91   28.59
  -1  -3   1  941.23   28.60
   1   3  -1  896.71   28.59
  -1   3   1  894.56   28.63
   0  -3  -1    8.56    0.30
   0   3   1    8.79    0.30
   1  -3   1  687.13   22.55
  -1   3  -1  664.47   22.56
   1   3   1  754.01   22.46
   2  -3   1   46.26    1.51
  -2   3  -1   45.94    1.51
   3  -3   1  191.74    6.26
   3  -3   1  191.63    6.26
  -3   3  -1  198.38    6.27
   3   3   1  196.17    6.27
   4  -3   1    2.59    0.19
   4  -3   1    3.18    0.38
   4  -3   1    2.44    0.33
   4   3   1    2.03    0.35
   4   3   1    2.14    0.20
   5  -3   1   25.87    0.97
   5  -3   1   26.68    0.95
   5  -3   1   25.61    0.98
   5   3   1   26.29    0.98
   5   3   1   26.22    0.95
   5   3   1   25.76    1.00
   6  -3   1   22.96    0.91
   6  -3   1   25.02    0.93
   6  -3   1   25.52    0.95
   6   3   1   24.98    0.95
   6   3   1   25.20    0.94
   6   3   1   23.17    0.91
   7  -3   1   -0.08    0.24
   7  -3   1   -0.05    0.13
   7   3   1    0.10    0.18
   7   3   1    0.07    0.13
   8  -3   1    0.16    0.15
   8  -3   1    0.15    0.12
   8   3   1    0.07    0.21
   8   3   1    0.32    0.15
   8  -4  -1    1.60    0.22
   8  -4  -1    1.73    0.22
   8   4  -1    1.77    0.22
   7  -4  -1    5.26    0.32
   7  -4  -1    5.92    0.36
   7   4  -1    5.09    0.32
   7   4  -1    6.63    0.49
   6  -4  -1   96.75    3.15
   6  -4  -1   91.69    3.16
   6  -4  -1   95.64    3.16
   6   4  -1   98.08    3.17
   6   4  -1   92.15    3.17
   6   4  -1   95.06    3.16
   5  -4  -1   18.91    0.76
   5  -4  -1   19.37    0.77
   5  -4  -1   19.21    0.72
   5   4  -1   19.04    0.72
   5   4  -1   19.12    0.76
   5   4  -1   18.39    0.84
   4  -4  -1   65.07    2.16
   4  -4  -1   64.93    2.12
  -4   4   1   58.48    2.18
   4   4  -1   64.20    2.12
   4   4  -1   66.57    2.15
  -3  -4   1   91.81    3.30
   3  -4  -1  105.47    3.29
   3  -4  -1   98.76    3.27
   3   4  -1  103.54    3.28
  -3   4   1  101.99    3.30
   3   4  -1  102.69    3.27
  -2  -4   1   46.30    1.41
   2  -4  -1   43.01    1.42
   2   4  -1   41.51    1.40
  -2   4   1   39.95    1.44
   1  -4  -1  927.92   30.65
  -1  -4   1  975.30   30.65
   1   4  -1  914.21   30.63
  -1   4   1 1000.00   30.67
   0  -4  -1   30.46    1.03
   0   4   1   32.53    1.03
   1  -4   1   17.25    0.61
   1   4   1   17.16    0.59
  -1   4  -1   17.96    0.62
   1   4   1   19.77    0.60
   2  -4   1   27.13    0.93
  -2   4  -1   27.73    0.93
   3  -4   1   69.96    2.29
   3  -4   1   69.27    2.28
   3   4   1   70.38    2.29
  -3   4  -1   68.70    2.30
   4  -4   1  102.72    3.41
   4  -4   1  101.36    3.40
   4  -4   1  105.83    3.38
   4   4   1  102.80    3.38
   4   4   1  103.50    3.41
   5  -4   1    6.56    0.40
   5  -4   1    6.29    0.34
   5  -4   1    6.39    0.41
   5   4   1    6.40    0.41
   5   4   1    6.23    0.34
   5   4   1    6.23    0.47
   6  -4   1    7.34    0.38
   6  -4   1    7.32    0.42
   6  -4   1    7.22    0.43
   6   4   1    7.18    0.38
   6   4   1    7.09    0.47
   6   4   1    7.70    0.43
   7  -4   1   -0.21    0.12
   7  -4   1   -0.21    0.13
   7   4   1   -0.08    0.13
   7   4   1   -0.08    0.19
   8  -4   1    0.02    0.11
   8  -4   1   -0.09    0.15
   8   4   1    0.29    0.16
  -8  -5   1    5.68    0.28
   8  -5  -1    5.30    0.30
   8  -5  -1    5.27    0.29
   8   5  -1    5.59    0.31
  -8   5   1    5.27    0.28
   7  -5  -1    0.20    0.13
   7  -5  -1    0.38    0.17
   7   5  -1   -0.01    0.29
   7   5  -1    0.08    0.13
   6  -5  -1   13.20    0.61
   6  -5  -1   14.32    0.58
   6   5  -1   12.78    0.68
   6   5  -1   13.86    0.58
   5  -5  -1   34.02    1.20
   5  -5  -1   32.90    1.19
   5  -5  -1   33.66    1.16
   5   5  -1   33.25    1.17
   5   5  -1   29.18    1.25
   5   5  -1   34.18    1.20
   4  -5  -1   58.02    1.96
   4  -5  -1   56.93    1.92
   4   5  -1   55.92    1.91
   3  -5  -1  126.58    4.18
  -3  -5   1  133.70    4.18
   3  -5  -1  122.15    4.21
  -3   5   1  129.93    4.22
   3   5  -1  131.35    4.18
   3   5  -1  131.51    4.19
   2  -5  -1  216.59    7.08
  -2  -5   1  235.48    7.07
  -2   5   1  228.31    7.09
   2   5  -1  199.33    7.06
   1  -5  -1   10.40    0.40
  -1   5   1   12.31    0.41
   1   5  -1   11.39    0.40
   0  -5  -1  184.58    6.39
   0   5  -1  203.36    6.40
   0   5   1  210.16    6.45
  -1   5  -1   48.70    1.58
   1   5   1   44.78    1.56
   1   5   1   50.53    1.56
   2  -5   1  315.96    9.92
  -2   5  -1  300.85    9.89
   2   5   1  307.70    9.85
   4  -5   1    6.95    0.43
   4  -5   1    7.48    0.33
   4  -5   1    6.54    0.45
   4   5   1    7.52    0.45
   4   5   1    7.29    0.34
   5  -5   1    0.70    0.21
   5  -5   1    0.53    0.13
   5  -5   1    0.67    0.18
   5   5   1    0.67    0.20
   5   5   1    0.85    0.20
   5   5   1    1.20    0.26
   6  -5   1    0.29    0.18
   6  -5   1    0.32    0.13
   6  -5   1    0.37    0.18
   6   5   1    0.23    0.17
   6   5   1    0.54    0.23
   6   5   1    0.23    0.14
   7  -5   1   11.91    0.52
   7  -5   1   12.31    0.53
   7   5   1   12.45    0.53
   7   5   1   12.31    0.56
   8  -5   1    0.51    0.12
   8  -5   1    0.42    0.18
   8   5   1    0.92    0.26
  -8  -6   1    0.04    0.11
   8  -6  -1    0.25    0.14
   8  -6  -1    0.20    0.12
  -8   6   1   -0.07    0.11
   8   6  -1    0.16    0.14
   7  -6  -1    2.36    0.23
   7  -6  -1    3.05    0.29
   7   6  -1    2.82    0.25
   6  -6  -1   74.23    2.61
   6  -6  -1   75.99    2.51
   6   6  -1   74.47    2.52
   6   6  -1   71.83    2.62
   5  -6  -1   41.08    1.43
   5  -6  -1   40.76    1.45
   5  -6  -1   42.09    1.46
   5   6  -1   40.66    1.43
   5   6  -1   42.13    1.46
   4  -6  -1   28.81    1.10
   4  -6  -1   29.61    1.13
   4  -6  -1   31.36    1.05
   4   6  -1   31.18    1.06
   3  -6  -1   31.62    1.07
   3  -6  -1   30.21    1.04
   3   6  -1   29.19    1.04
   3   6  -1   31.83    1.05
  -3   6   1   29.21    1.08
   2  -6  -1  145.15    4.81
  -2   6   1  153.30    4.83
   2   6  -1  147.97    4.80
   1  -6  -1  552.46   18.08
   1   6  -1  553.99   18.02
  -1   6   1  572.66   18.06
   0  -6  -1   10.24    0.38
   0   6  -1   10.58    0.38
   0   6   1   10.49    0.38
   1   6   1  217.42    7.30
   1   6   1  238.32    7.31
   2  -6   1    2.79    0.17
   2  -6   1    2.53    0.20
   2   6   1    2.93    0.13
  -2   6  -1    2.73    0.19
   2   6   1    2.92    0.13
   3  -6   1   22.11    0.79
   3  -6   1   21.73    0.76
   3   6   1   21.53    0.77
  -3   6  -1   20.90    0.81
   4  -6   1   47.29    1.58
   4  -6   1   47.59    1.61
   4  -6   1   44.76    1.61
   4   6   1   46.54    1.62
   4   6   1   46.96    1.59
   5  -6   1   63.03    2.31
   5  -6   1   70.70    2.26
   5  -6   1   64.83    2.27
   5   6   1   67.83    2.30
   5   6   1   68.23    2.27
   5   6   1   68.45    2.28
   6  -6   1    4.71    0.35
   6  -6   1    3.97    0.35
   6  -6   1    3.77    0.28
   6   6   1    4.27    0.29
   6   6   1    3.81    0.44
   6   6   1    3.89    0.35
   7  -6   1    0.37    0.14
   7  -6   1    0.23    0.14
   7   6   1    0.42    0.24
   7   6   1    0.48    0.14
   8  -6   1    0.35    0.11
   8  -7  -1    1.46    0.19
   8  -7  -1    1.66    0.21
  -8  -7   1    1.61    0.18
   8   7  -1    1.23    0.24
  -8   7   1    1.78    0.20
   7  -7  -1    1.36    0.22
   7  -7  -1    1.42    0.35
   7   7  -1    1.57    0.23
   6  -7  -1   27.87    1.01
   6  -7  -1   26.22    1.00
   6   7  -1   26.23    1.01
   5  -7  -1    7.95    0.37
   5  -7  -1    8.04    0.44
   5  -7  -1    6.61    0.47
   5   7  -1    7.57    0.37
   5   7  -1    7.72    0.48
   4  -7  -1    3.47    0.44
   4  -7  -1    3.35    0.36
   4  -7  -1    3.57    0.23
   4   7  -1    3.74    0.23
   3  -7  -1  132.29    4.25
   3  -7  -1  138.48    4.30
   3   7  -1  130.86    4.26
  -3   7   1  124.70    4.30
   3   7  -1  129.88    4.26
   2  -7  -1    3.49    0.19
   2   7  -1    3.47    0.22
   2   7  -1    3.34    0.18
  -1   7   1  166.91    5.23
   1   7  -1  156.72    5.22
   0  -7  -1    7.68    0.30
   0   7   1    8.37    0.30
   0   7  -1    6.97    0.33
   1   7   1   22.54    0.83
   1   7   1   26.69    0.83
   2  -7   1    0.29    0.09
   2  -7   1    0.36    0.12
  -2   7  -1    0.39    0.10
   2   7   1    0.33    0.10
   2   7   1    0.43    0.09
   3  -7   1    0.90    0.15
   3   7   1    1.43    0.17
  -3   7  -1    1.21    0.26
   4  -7   1   36.71    1.26
   4  -7   1   35.41    1.30
   4  -7   1   36.21    1.29
   4   7   1   36.47    1.26
   4   7   1   37.26    1.31
   5  -7   1    0.73    0.19
   5  -7   1    0.62    0.13
   5   7   1    0.71    0.21
   5   7   1    0.45    0.13
   5   7   1    0.35    0.28
   6  -7   1    1.74    0.29
   6  -7   1    1.75    0.22
   6  -7   1    2.22    0.31
   6   7   1    1.95    0.23
   6   7   1    1.53    0.30
   6   7   1    2.38    0.33
   7  -7   1    0.05    0.12
   7  -7   1    0.01    0.13
   7   7   1    0.08    0.13
  -8  -7  -1    0.59    0.12
  -8   7  -1    0.35    0.13
   8  -8  -1    0.19    0.11
   8  -8  -1    0.02    0.13
   8   8  -1    0.10    0.14
  -8   8   1    0.05    0.15
   7  -8  -1    6.95    0.36
   7  -8  -1    6.42    0.37
   7   8  -1    6.59    0.36
   6  -8  -1   56.39    2.01
   6  -8  -1   61.94    2.03
   6   8  -1   59.35    2.03
   5  -8  -1  100.38    3.37
   5  -8  -1   98.19    3.46
   5  -8  -1  105.57    3.37
   5   8  -1  101.62    3.38
   5   8  -1  104.58    3.38
   4  -8  -1   16.39    0.61
   4  -8  -1   15.98    0.67
   4   8  -1   15.90    0.62
   3  -8  -1   34.26    1.18
   3  -8  -1   35.76    1.23
   3   8  -1   33.40    1.19
   3   8  -1   35.33    1.19
   2  -8  -1  382.93   12.00
   2  -8  -1  369.68   11.96
  -2   8   1  374.84   12.00
   2   8  -1  364.03   11.98
   2   8  -1  374.58   11.97
   1  -8  -1  973.13   31.32
   1   8  -1  991.71   31.26
   1   8  -1  949.92   31.24
  -1   8   1  971.48   31.30
   0  -8  -1   39.03    1.36
   0   8   1   42.24    1.36
   0   8  -1   40.92    1.37
   1   8   1   15.11    0.53
   1   8   1   14.06    0.53
  -1   8  -1   15.42    0.56
   2  -8   1    0.11    0.08
  -2   8  -1    0.24    0.11
   2   8   1    0.22    0.07
   2   8   1    0.06    0.06
   2   8   1    0.10    0.10
   3  -8   1    9.72    0.41
   3   8   1   10.40    0.42
   4  -8   1  162.04    5.23
  -4  -8  -1  147.87    5.22
   4  -8   1  155.41    5.22
   4  -8   1  163.57    5.21
   4   8   1  161.55    5.23
   4   8   1  171.84    5.23
   5  -8   1   67.12    2.28
   5  -8   1   69.37    2.28
   5  -8   1   69.32    2.30
   5   8   1   69.69    2.29
   5   8   1   66.70    2.28
   5   8   1   63.19    2.32
   6  -8   1    4.01    0.36
   6  -8   1    4.09    0.28
   6  -8   1    3.99    0.33
   6   8   1    3.65    0.29
   6   8   1    3.92    0.36
   7  -8   1    0.78    0.20
   7  -8   1    0.21    0.14
   7   8   1    0.27    0.14
  -8  -8  -1    2.65    0.21
   8  -8   1    2.54    0.19
  -8  -9   1    4.22    0.25
   8  -9  -1    3.85    0.28
  -8   9   1    3.44    0.31
   8   9  -1    4.22    0.29
   7  -9  -1    1.98    0.22
   7  -9  -1    2.15    0.25
   7   9  -1    2.12    0.24
   6  -9  -1   22.94    0.89
   6  -9  -1   25.09    0.91
   6   9  -1   22.87    0.89
   5  -9  -1    1.26    0.20
   5  -9  -1    1.39    0.29
   4  -9  -1   22.16    0.84
   4  -9  -1   22.98    0.79
  -4  -9   1   19.84    0.86
   4   9  -1   20.43    0.89
   4   9  -1   21.79    0.79
   3  -9  -1    0.84    0.15
   3  -9  -1    0.76    0.25
   3   9  -1    0.87    0.21
   3   9  -1    0.89    0.27
   3   9  -1    1.08    0.17
   2  -9  -1   22.77    0.81
   2  -9  -1   21.70    0.77
   2   9  -1   21.79    0.78
  -2   9   1   22.10    0.83
   2   9  -1   22.84    0.80
   2   9  -1   21.67    0.79
   1  -9  -1    3.18    0.19
  -1   9   1    3.16    0.20
   1   9  -1    3.55    0.20
   1   9  -1    3.05    0.19
   0   9   1    0.81    0.13
   1  -9   1  139.61    4.75
   1   9   1  146.45    4.76
  -1   9  -1  150.92    4.79
   1   9   1  152.17    4.76
   2  -9   1    1.48    0.15
   2   9   1    1.27    0.18
   2   9   1    1.33    0.15
  -2   9  -1    1.38    0.23
   2   9   1    1.32    0.17
   3   9   1   91.05    3.01
   4  -9   1    3.04    0.44
   4  -9   1    2.99    0.22
  -4  -9  -1    2.37    0.37
   4  -9   1    3.09    0.35
   4   9   1    2.96    0.23
   4   9   1    3.10    0.42
   5  -9   1    2.29    0.37
  -5  -9  -1    2.78    0.52
   5  -9   1    2.86    0.32
   5  -9   1    2.58    0.24
   5   9   1    2.87    0.25
   5   9   1    2.68    0.36
   6  -9   1    0.60    0.17
   6  -9   1    0.23    0.13
   6   9   1    0.40    0.14
   6   9   1    0.38    0.20
   7  -9   1   16.61    0.65
   7  -9   1   16.78    0.65
   7   9   1   16.84    0.66
  -8 -10   1    0.03    0.17
   7 -10  -1    3.85    0.26
   7 -10  -1    3.95    0.28
  -7  10   1    3.90    0.31
   7  10  -1    3.98    0.28
   6 -10  -1    3.96    0.28
   6 -10  -1    4.24    0.33
   6  10  -1    3.85    0.29
   5 -10  -1    1.08    0.29
   5 -10  -1    1.35    0.20
  -5 -10   1    1.51    0.27
   5  10  -1    0.90    0.20
   4 -10  -1    0.37    0.11
  -4 -10   1    0.58    0.23
   4  10  -1    0.36    0.11
   3 -10  -1   14.27    0.65
   3 -10  -1   14.02    0.55
   3  10  -1   15.14    0.59
   3  10  -1   13.72    0.60
   2 -10  -1    0.30    0.11
   2 -10  -1    0.38    0.09
  -2  10   1    0.21    0.21
   2  10  -1    0.11    0.18
   2  10  -1    0.46    0.14
   2  10  -1    0.06    0.09
   1 -10  -1   10.58    0.42
   1 -10  -1    9.52    0.40
   1  10  -1    9.85    0.42
  -1  10   1   10.36    0.44
   1  10  -1   10.19    0.43
   0 -10   1    0.18    0.09
   0 -10  -1    0.16    0.09
   0  10   1    0.23    0.09
   0  10  -1    0.11    0.08
   1 -10   1    2.89    0.19
   1  10   1    3.23    0.20
  -1  10  -1    2.88    0.24
   1  10   1    3.20    0.22
   2 -10   1    6.33    0.28
   2  10   1    5.58    0.29
   2  10   1    5.72    0.29
   2  10   1    5.89    0.31
   3 -10   1    4.36    0.24
   3  10   1    4.30    0.25
   4 -10   1   41.24    1.39
   4 -10   1   41.90    1.42
  -4 -10  -1   39.02    1.41
   4  10   1   38.22    1.43
   4  10   1   40.80    1.40
   5 -10   1    5.25    0.37
   5 -10   1    5.55    0.32
  -5 -10  -1    5.20    0.45
   5 -10   1    6.02    0.46
   5  10   1    5.06    0.44
   5  10   1    6.06    0.34
   6 -10   1    7.56    0.41
   6 -10   1    7.09    0.38
   6  10   1    7.47    0.39
   7 -10   1   -0.01    0.12
   7 -10   1    0.07    0.12
   7  10   1   -0.02    0.14
   7 -11  -1    0.12    0.13
  -7 -11   1    0.03    0.15
   7 -11  -1   -0.21    0.11
   7  11  -1   -0.09    0.13
   6 -11  -1   29.50    1.02
   6 -11  -1   26.47    1.00
   6  11  -1   25.92    1.01
   5 -11  -1    5.72    0.33
  -5 -11   1    5.23    0.44
   5 -11  -1    6.44    0.39
   5  11  -1    6.14    0.35
   4 -11  -1   26.33    0.99
   4 -11  -1   27.55    0.97
  -4 -11   1   25.90    1.00
   4  11  -1   27.99    0.98
   3 -11  -1   36.98    1.24
   3  11  -1   36.51    1.25
   3  11  -1   35.33    1.32
   2 -11  -1   40.63    1.39
   2 -11  -1   42.48    1.45
   2  11  -1   39.97    1.44
   2  11  -1   41.76    1.40
   2  11  -1   41.47    1.43
   1 -11  -1   98.16    3.29
   1 -11  -1  100.56    3.33
   1  11  -1  103.71    3.33
   1  11  -1  101.95    3.33
   0 -11  -1   14.72    0.53
   0 -11   1   14.08    0.53
   0  11  -1   14.31    0.58
   0  11   1   14.64    0.58
   1 -11   1   13.96    0.52
   1  11   1   14.75    0.56
   1  11   1   13.78    0.54
  -1  11  -1   13.48    0.59
   2 -11   1   91.61    2.99
   2  11   1   89.85    3.00
   2  11   1   88.78    3.00
   2  11   1   95.03    3.00
   3 -11   1    1.04    0.16
   3 -11   1    0.46    0.31
  -3 -11  -1    1.29    0.29
   3  11   1    1.30    0.18
  -4 -11  -1    7.00    0.44
   4 -11   1    7.86    0.46
   4 -11   1    8.04    0.37
   4  11   1    8.13    0.38
   4  11   1    7.19    0.58
  -5 -11  -1   11.62    0.58
   5 -11   1   12.60    0.52
   5 -11   1   11.75    0.55
   5  11   1   11.36    0.61
   5  11   1   12.38    0.53
   6 -11   1    9.41    0.45
   6 -11   1   10.54    0.47
   6  11   1   10.05    0.47
   7 -11   1   12.23    0.49
   7 -11   1   11.72    0.50
   7  11   1   12.46    0.51
   7 -12  -1   20.37    0.81
  -7 -12   1   21.02    0.78
   7 -12  -1   22.33    0.78
   7  12  -1   20.86    0.83
   6 -12  -1   26.93    1.02
   6 -12  -1   30.23    1.04
   6  12  -1   26.95    1.03
   5 -12  -1   70.20    2.40
   5 -12  -1   74.06    2.40
  -5 -12   1   67.04    2.39
   5  12  -1   73.73    2.42
  -4 -12   1   14.95    0.64
   4 -12  -1   15.19    0.63
   4 -12  -1   15.02    0.59
   4  12  -1   14.94    0.61
  -3 -12   1   64.99    2.16
   3 -12  -1   65.08    2.14
   3 -12  -1   61.22    2.17
   3  12  -1   66.08    2.15
   2 -12  -1   25.78    0.98
   2 -12  -1   27.12    0.91
   2  12  -1   23.80    1.00
   2  12  -1   27.23    0.93
   2  12  -1   26.16    0.98
   1 -12  -1  108.29    3.51
   1 -12  -1  108.15    3.56
   1  12  -1  104.02    3.56
   1  12  -1  110.92    3.56
   0 -12   1  123.67    4.02
   0 -12  -1  124.06    4.02
   0  12  -1  117.46    4.16
   0  12   1  121.74    4.07
   0  12  -1  132.46    4.08
   1 -12   1  112.94    3.60
   1  12   1  109.61    3.63
   1  12   1  109.32    3.64
   2  12   1    1.20    0.18
   3 -12   1  204.43    6.63
   3 -12   1  197.28    6.64
  -3 -12  -1  205.76    6.63
   3  12   1  211.72    6.64
  -4 -12  -1   67.63    2.31
   4 -12   1   67.14    2.32
   4 -12   1   70.85    2.31
   4  12   1   69.78    2.32
   5 -12   1    4.55    0.29
   5 -12   1    4.90    0.35
  -5 -12  -1    4.70    0.39
   5  12   1    4.11    0.30
   6 -12   1   19.70    0.77
   6 -12   1   21.78    0.78
   6  12   1   19.49    0.78
   7 -12   1    1.07    0.20
   7 -12   1    1.22    0.19
   7  12   1    0.82    0.17
   7 -13  -1    0.30    0.13
   7  13  -1    0.07    0.12
   6 -13  -1    1.71    0.21
   6 -13  -1    2.08    0.27
   6  13  -1    1.21    0.22
   5 -13  -1   55.17    1.87
  -5 -13   1   54.03    1.87
   4 -13  -1   27.20    1.03
  -4 -13   1   27.68    1.02
   4 -13  -1   28.22    1.00
   4  13  -1   28.16    1.02
   3 -13  -1   46.98    1.51
  -3 -13   1   42.55    1.52
   3 -13  -1   41.03    1.54
   3  13  -1   45.74    1.52
   2 -13  -1   35.60    1.17
  -2 -13   1   31.70    1.23
   2  13  -1   34.69    1.18
   2  13  -1   33.53    1.26
   1 -13  -1    1.20    0.16
   1  13  -1    0.84    0.28
   0 -13   1   11.17    0.45
   0 -13  -1   11.20    0.45
   0  13  -1   11.69    0.52
   1 -13   1    7.69    0.34
   1  13   1    6.94    0.49
   1  13   1    8.21    0.42
  -2 -13  -1    5.96    0.36
   2 -13   1    6.20    0.29
   2  13   1    5.89    0.31
  -3 -13  -1    4.53    0.33
   3 -13   1    4.55    0.26
   3 -13   1    4.12    0.47
   3  13   1    3.86    0.27
  -4 -13  -1   19.79    0.78
   4 -13   1   19.66    0.76
   4 -13   1   20.19    0.80
   4  13   1   20.36    0.77
   5 -13   1    0.84    0.19
   5 -13   1    0.85    0.19
  -5 -13  -1    0.48    0.19
   5  13   1    0.78    0.20
   6 -13   1   30.44    1.06
   6 -13   1   28.96    1.06
   6  13   1   29.06    1.07
   7 -13   1   15.50    0.57
   7 -13   1   14.78    0.59
   7  13   1   15.17    0.60
   7 -14  -1    1.11    0.21
   6 -14  -1    0.96    0.19
   6  14  -1    1.17    0.22
  -5 -14   1    1.77    0.31
   5 -14  -1    1.15    0.20
   5 -14  -1    1.19    0.30
   5  14  -1    0.99    0.22
   4 -14  -1   31.99    1.20
   4 -14  -1   34.43    1.18
  -4 -14   1   32.31    1.19
   4  14  -1   34.53    1.20
  -3 -14   1   -0.26    0.16
   3 -14  -1    0.07    0.25
   3 -14  -1    0.38    0.23
   3 -14  -1    0.41    0.11
   3  14  -1    0.20    0.12
  -2 -14   1    5.76    0.36
  -2 -14   1    4.42    0.67
   2 -14  -1    5.90    0.43
   2 -14  -1    6.04    0.29
   2  14  -1    6.37    0.58
   2  14  -1    5.32    0.31
   1  14  -1    0.46    0.21
   0 -14   1    5.01    0.26
   0 -14  -1    4.89    0.26
   0  14  -1    5.33    0.41
   1 -14   1   14.30    0.54
   1  14   1   13.88    0.66
   2 -14   1    0.20    0.23
  -2 -14  -1   -0.06    0.23
  -2 -14  -1    0.10    0.16
   2 -14   1    0.17    0.10
   2  14   1    0.06    0.10
   3 -14   1   17.40    0.64
  -3 -14  -1   16.56    0.66
   3 -14   1   14.96    0.73
   3  14   1   16.38    0.65
  -4 -14  -1   24.05    0.92
   4 -14   1   24.78    0.90
   4 -14   1   23.52    0.93
   4  14   1   25.07    0.92
   5 -14   1    0.19    0.12
  -5 -14  -1    0.01    0.17
   5 -14   1    0.11    0.18
   5  14   1   -0.09    0.13
   6 -14   1    3.61    0.28
   6 -14   1    3.10    0.25
   6  14   1    3.24    0.28
   7 -14   1    0.49    0.14
   7  14   1   -0.02    0.16
   7 -15  -1   12.13    0.50
   7  15  -1   12.24    0.51
  -6 -15   1    2.85    0.40
   6 -15  -1    2.94    0.25
   6  15  -1    2.70    0.26
   5 -15  -1    4.62    0.36
  -5 -15   1    5.18    0.35
   5 -15  -1    4.50    0.29
   5  15  -1    4.85    0.32
   4 -15  -1   30.01    1.14
  -4 -15   1   32.05    1.13
   4 -15  -1   31.02    1.12
   4  15  -1   31.85    1.14
   3 -15  -1    1.49    0.25
  -3 -15   1    0.88    0.27
  -3 -15   1    0.75    0.16
   3 -15  -1    0.96    0.18
   3 -15  -1    1.75    0.42
   3  15  -1    0.74    0.20
   2 -15  -1  146.41    4.84
  -2 -15   1  144.10    4.85
   2 -15  -1  147.96    4.85
  -2 -15   1  152.40    4.85
   2  15  -1  152.60    4.86
  -1 -15   1    4.13    0.35
  -1 -15   1    3.91    0.32
   1 -15  -1    3.79    0.23
   1 -15  -1    3.44    0.33
   0 -15   1   17.10    0.72
   0 -15   1   19.28    0.68
   0 -15  -1   19.28    0.68
   0 -15  -1   17.79    0.72
  -1 -15  -1   44.20    1.52
   1 -15   1   45.36    1.49
   1 -15   1   43.32    1.52
  -1 -15  -1   43.37    1.51
   1  15   1   42.61    1.61
  -2 -15  -1   36.16    1.23
   2 -15   1   34.61    1.21
  -2 -15  -1   33.66    1.24
   2 -15   1   33.02    1.25
   2  15   1   36.26    1.23
  -3 -15  -1  206.29    6.84
   3 -15   1  214.24    6.84
   3  15   1  212.69    6.86
   4 -15   1    3.13    0.25
  -4 -15  -1    3.32    0.30
   4 -15   1    1.96    0.38
   4  15   1    3.28    0.27
   5 -15   1    8.78    0.43
   5 -15   1   10.30    0.48
  -5 -15  -1    9.64    0.46
   5  15   1    8.85    0.45
   6 -15   1   41.38    1.40
   6 -15   1   40.87    1.41
   6  15   1   40.24    1.42
   7 -16  -1    2.26    0.23
   7  16  -1    2.17    0.25
  -6 -16   1    0.17    0.20
   6 -16  -1    0.31    0.12
   6  16  -1    0.28    0.14
  -5 -16   1    7.58    0.40
   5 -16  -1    6.62    0.36
   5  16  -1    6.34    0.37
  -4 -16   1    0.24    0.15
   4 -16  -1    0.11    0.12
   4  16  -1   -0.09    0.12
   3 -16  -1    7.30    0.36
  -3 -16   1    6.71    0.52
   3 -16  -1    6.66    0.48
   3  16  -1    7.35    0.38
   2 -16  -1   67.01    2.21
  -2 -16   1   63.39    2.21
   2 -16  -1   66.51    2.19
  -2 -16   1   65.12    2.20
   2  16  -1   65.26    2.21
   1 -16  -1   49.92    1.68
  -1 -16   1   47.77    1.68
   1 -16  -1   52.07    1.66
  -1 -16   1   46.27    1.67
   0 -16   1    5.71    0.43
   0 -16  -1    6.75    0.32
   0 -16   1    6.72    0.32
   0 -16  -1    6.05    0.38
   0 -16   1    6.37    0.39
   0 -16  -1    6.45    0.41
   1 -16   1    8.42    0.38
   1 -16   1    8.09    0.44
  -1 -16  -1    8.26    0.42
  -1 -16  -1    8.33    0.44
   2 -16   1   23.90    0.93
  -2 -16  -1   24.08    0.89
   2 -16   1   24.72    0.88
  -2 -16  -1   23.58    0.92
   2  16   1   24.19    0.89
   3 -16   1   12.34    0.51
  -3 -16  -1   12.60    0.53
   3 -16   1   11.08    0.61
   3  16   1   11.66    0.53
  -4 -16  -1   27.83    0.99
   4 -16   1   26.11    0.98
   4 -16   1   27.21    1.02
   4  16   1   26.54    1.00
   5 -16   1   28.89    1.04
   5 -16   1   27.82    1.03
  -5 -16  -1   30.75    1.03
   5  16   1   26.37    1.04
  -6 -16  -1    2.63    0.32
   6  16   1    2.51    0.31
  -6 -17   1   11.23    0.50
   6 -17  -1   10.96    0.47
   6  17  -1   10.99    0.48
  -5 -17   1    0.09    0.16
   5 -17  -1    0.08    0.12
   5  17  -1   -0.11    0.13
  -4 -17   1    2.79    0.29
   4 -17  -1    2.86    0.25
   4  17  -1    3.00    0.27
   3 -17  -1    0.25    0.11
  -3 -17   1    0.34    0.14
   3 -17  -1    1.46    0.36
   3  17  -1    0.44    0.15
  -2 -17   1    0.44    0.18
   2 -17  -1    0.14    0.14
   2 -17  -1    0.19    0.11
  -2 -17   1    0.14    0.13
   2  17  -1   -0.03    0.12
  -1 -17   1   27.32    1.02
   1 -17  -1   28.40    1.01
  -1 -17   1   27.71    1.01
   1 -17  -1   27.72    0.99
   0 -17  -1    6.74    0.37
   0 -17  -1    6.62    0.41
   0 -17   1    6.57    0.32
   0 -17   1    6.09    0.41
   0 -17   1    6.19    0.38
   1 -17   1    0.21    0.28
  -1 -17  -1   -0.11    0.15
   1 -17   1    0.09    0.17
   1 -17   1    0.09    0.10
  -1 -17  -1    0.25    0.15
   2 -17   1   11.61    0.56
   2 -17   1   12.35    0.50
  -2 -17  -1   11.07    0.55
  -2 -17  -1   12.03    0.53
   2  17   1   11.88    0.52
  -3 -17  -1   83.93    2.82
   3 -17   1   81.59    2.83
  -3 -17  -1   84.79    2.99
   3 -17   1   85.82    2.82
   3  17   1   86.95    2.84
   4 -17   1   -0.14    0.11
   4 -17   1   -0.17    0.25
  -4 -17  -1   -0.23    0.14
   4  17   1   -0.11    0.13
   5 -17   1   14.33    0.57
   5 -17   1   13.76    0.60
   5  17   1   13.82    0.59
  -6 -17  -1    2.90    0.32
   6 -17   1    3.06    0.24
   6  17   1    2.59    0.27
   6 -18  -1    0.09    0.12
  -6 -18   1    0.30    0.18
   6  18  -1    0.19    0.14
   5 -18  -1    7.23    0.37
   5  18  -1    7.27    0.39
   4 -18  -1    1.05    0.20
  -4 -18   1    1.26    0.26
   4  18  -1    1.34    0.23
  -3 -18   1    1.41    0.25
   3 -18  -1    1.38    0.34
  -3 -18   1    1.22    0.24
   3 -18  -1    1.36    0.20
   3  18  -1    1.43    0.23
  -2 -18   1   24.25    1.06
   2 -18  -1   29.09    0.98
   2 -18  -1   26.41    1.03
  -2 -18   1   26.52    0.98
   2  18  -1   27.76    1.00
  -1 -18   1    0.51    0.18
   1 -18  -1    0.36    0.15
   1 -18  -1    0.18    0.11
  -1 -18   1    0.23    0.17
   0 -18   1    1.63    0.27
   0 -18  -1    1.24    0.26
   0 -18   1    1.58    0.21
   0 -18  -1    2.29    0.32
   0 -18   1    2.33    0.33
   1 -18   1   23.21    0.88
   1 -18   1   21.99    0.91
  -1 -18  -1   23.22    0.86
   1 -18   1   23.84    0.85
  -2 -18  -1    6.65    0.37
   2 -18   1    6.21    0.42
  -2 -18  -1    6.54    0.44
   2 -18   1    6.74    0.34
   2  18   1    6.84    0.37
  -3 -18  -1   11.36    0.62
   3 -18   1   13.11    0.53
   3 -18   1   12.09    0.60
  -3 -18  -1   12.79    0.54
   3  18   1   12.15    0.55
  -4 -18  -1    8.78    0.41
   4 -18   1    8.00    0.39
   4  18   1    7.57    0.41
   5 -18   1    0.08    0.11
  -5 -18  -1    0.11    0.13
   5  18   1    0.00    0.13
  -6 -18  -1    4.42    0.34
   6 -18   1    5.50    0.30
   6  18   1    5.51    0.33
  -6 -19   1    6.14    0.40
   6 -19  -1    5.49    0.31
   6  19  -1    5.38    0.32
  -5 -19   1   25.24    0.89
   5 -19  -1   23.52    0.89
   5  19  -1   24.17    0.91
   4 -19  -1   18.74    0.77
  -4 -19   1   22.16    0.79
   4  19  -1   20.08    0.80
   3 -19  -1   23.94    0.89
  -3 -19   1   22.99    0.86
  -3 -19   1   21.18    0.88
   2 -19  -1   61.95    2.09
  -2 -19   1   59.00    2.09
   2 -19  -1   62.69    2.10
  -2 -19   1   62.17    2.10
   2  19  -1   62.69    2.11
  -1 -19   1   32.33    1.15
   1 -19  -1   31.44    1.16
   1 -19  -1   32.67    1.15
  -1 -19   1   32.51    1.17
   0 -19   1   12.50    0.56
   0 -19  -1   12.06    0.56
   0 -19   1   12.00    0.56
   1 -19   1   47.56    1.58
   1 -19   1   45.61    1.59
  -1 -19  -1   44.79    1.58
   1 -19   1   43.46    1.59
  -1 -19  -1   46.74    1.58
   2 -19   1  175.92    5.72
  -2 -19  -1  170.49    5.72
   2 -19   1  175.55    5.72
  -2 -19  -1  173.76    5.71
   2  19   1  181.94    5.74
   3 -19   1    3.09    0.24
  -3 -19  -1    3.21    0.28
  -3 -19  -1    2.59    0.44
   3 -19   1    2.89    0.37
   3  19   1    2.90    0.28
   4 -19   1    0.74    0.19
  -4 -19  -1    1.01    0.21
   4  19   1    0.67    0.16
  -5 -19  -1    0.98    0.20
   5 -19   1    1.32    0.20
   5  19   1    1.34    0.23
   6 -19   1   12.17    0.50
   6  19   1   11.86    0.51
   6 -20  -1   -0.01    0.13
  -6 -20   1    0.20    0.17
   6  20  -1   -0.18    0.14
   5 -20  -1    1.81    0.21
  -5 -20   1    1.65    0.22
   5  20  -1    1.79    0.23
  -4 -20   1    0.58    0.15
   4 -20  -1    0.44    0.13
   4  20  -1    0.33    0.14
   3 -20  -1    4.57    0.37
  -3 -20   1    4.67    0.30
  -3 -20   1    3.56    0.39
   3 -20  -1    4.34    0.28
   3  20  -1    3.87    0.31
  -2 -20   1    0.07    0.17
  -2 -20   1    0.33    0.15
   2 -20  -1    0.06    0.11
   2 -20  -1    0.21    0.16
   2  20  -1    0.31    0.15
   1 -20  -1    0.29    0.14
   1 -20  -1    0.36    0.13
  -1 -20   1    0.24    0.16
  -1 -20   1    0.19    0.15
   0 -20   1   14.83    0.62
   0 -20  -1   14.17    0.61
   0 -20   1   14.93    0.63
   0 -20  -1   14.04    0.62
   1 -20   1   16.12    0.81
  -1 -20  -1   18.95    0.74
  -1 -20  -1   17.91    0.72
   1 -20   1   20.13    0.73
   1 -20   1   18.79    0.75
   1  20   1   19.48    0.75
  -2 -20  -1    1.71    0.31
   2 -20   1    1.91    0.31
  -2 -20  -1    1.91    0.25
  -3 -20  -1   10.32    0.47
   3 -20   1   10.11    0.46
   3 -20   1   11.31    0.54
  -3 -20  -1   10.41    0.55
   3  20   1   10.47    0.49
  -4 -20  -1    0.24    0.13
   4 -20   1    0.43    0.13
   4  20   1    0.26    0.13
   5 -20   1   20.21    0.76
  -5 -20  -1   19.21    0.71
   5  20   1   18.53    0.73
   5 -21  -1    0.53    0.13
  -5 -21   1    0.56    0.12
   5  21  -1    0.58    0.14
   4 -21  -1    0.51    0.13
   4  21  -1    0.30    0.14
  -3 -21   1    0.66    0.21
   3 -21  -1    0.31    0.13
   3 -21  -1    0.57    0.19
  -3 -21   1    0.46    0.15
   3  21  -1    0.33    0.15
   2 -21  -1    3.82    0.28
   2 -21  -1    4.53    0.34
  -2 -21   1    3.38    0.33
  -2 -21   1    3.98    0.30
   2  21  -1    4.00    0.31
   1 -21  -1   19.93    0.77
  -1 -21   1   19.12    0.75
   1 -21  -1   18.72    0.75
  -1 -21   1   18.32    0.75
   0 -21   1    0.66    0.17
   0 -21  -1    0.37    0.16
   0 -21  -1    0.73    0.19
   0 -21   1    0.46    0.19
  -1 -21  -1    3.35    0.29
   1 -21   1    3.25    0.31
  -1 -21  -1    3.16    0.30
   2 -21   1    1.49    0.29
  -2 -21  -1    1.08    0.19
  -2 -21  -1    1.49    0.23
   2 -21   1    1.38    0.20
   2  21   1    1.32    0.24
   3 -21   1    1.66    0.22
  -3 -21  -1    1.81    0.24
  -3 -21  -1    1.78    0.38
   3 -21   1    1.99    0.33
   3  21   1    1.95    0.25
   4 -21   1    0.55    0.13
  -4 -21  -1    0.64    0.14
   4  21   1    0.64    0.15
  -5 -21  -1    0.02    0.11
   5 -21   1    0.02    0.12
   5  21   1    0.06    0.14
  -5 -22   1    0.39    0.12
   5 -22  -1    0.79    0.20
   5  22  -1    0.88    0.21
  -4 -22   1    1.61    0.21
   4 -22  -1    1.75    0.21
   4  22  -1    2.08    0.24
   3 -22  -1    1.96    0.22
  -3 -22   1    1.81    0.33
  -3 -22   1    1.73    0.24
   3 -22  -1    1.83    0.30
   3  22  -1    2.00    0.25
  -2 -22   1    0.22    0.15
   2 -22  -1    0.54    0.16
   2 -22  -1    0.42    0.13
  -2 -22   1    0.49    0.15
   2  22  -1    0.33    0.15
  -1 -22   1    0.25    0.15
   1 -22  -1    0.54    0.16
  -1 -22   1    0.49    0.17
   1  22  -1    0.43    0.16
   0 -22  -1    0.02    0.13
   0 -22   1    0.16    0.18
   0 -22   1    0.16    0.14
   0 -22  -1    0.04    0.18
  -1 -22  -1    0.45    0.16
   1 -22   1    0.46    0.16
  -1 -22  -1    0.44    0.15
   1  22   1    0.95    0.23
  -2 -22  -1    2.84    0.30
   2 -22   1    2.61    0.29
  -2 -22  -1    1.87    0.24
   2 -22   1    2.58    0.24
   2  22   1    2.54    0.27
  -3 -22  -1    0.07    0.12
   3 -22   1    0.53    0.19
   3 -22   1    0.24    0.13
  -3 -22  -1   -0.32    0.21
   3  22   1    0.12    0.14
   4 -22   1    0.93    0.20
  -4 -22  -1    0.58    0.12
   4  22   1    1.14    0.22
  -5 -22  -1    0.24    0.10
   5 -22   1    0.17    0.13
   5  22   1    0.13    0.15
   5 -23  -1    3.00    0.25
  -5 -23   1    3.69    0.21
  -4 -23   1    3.17    0.23
   4 -23  -1    3.23    0.24
   4  23  -1    2.99    0.25
  -3 -23   1    6.40    0.39
  -3 -23   1    5.84    0.44
   3 -23  -1    6.39    0.37
   3 -23  -1    6.29    0.34
   3  23  -1    5.93    0.35
  -2 -23   1    1.60    0.25
   2 -23  -1    1.87    0.23
  -2 -23   1    2.56    0.28
   2 -23  -1    2.62    0.28
   2  23  -1    2.26    0.26
  -1 -23   1    0.66    0.16
  -1 -23   1    0.55    0.15
   1 -23  -1    0.74    0.17
   1  23  -1    0.55    0.15
   0 -23   1   11.76    0.53
   0 -23  -1   12.03    0.52
   0 -23  -1   11.33    0.53
   0 -23   1   10.47    0.52
  -1 -23  -1    1.15    0.23
  -1 -23  -1    1.31    0.25
   1 -23   1    1.35    0.24
   1  23   1    1.31    0.24
   2 -23   1    1.97    0.22
   2 -23   1    2.03    0.27
  -2 -23  -1    1.84    0.25
  -2 -23  -1    2.23    0.28
   2  23   1    1.76    0.25
  -3 -23  -1    5.57    0.40
   3 -23   1    5.38    0.31
   3 -23   1    5.36    0.37
  -3 -23  -1    5.57    0.30
   3  23   1    5.43    0.33
   4 -23   1    1.58    0.20
  -4 -23  -1    1.72    0.19
   4  23   1    1.96    0.24
  -5 -23  -1    1.47    0.16
  -5 -24   1    1.79    0.17
  -4 -24   1    4.33    0.24
   4 -24  -1    4.20    0.27
   4  24  -1    3.99    0.29
  -3 -24   1    0.17    0.17
  -3 -24   1    0.18    0.11
   3 -24  -1    0.03    0.14
   3 -24  -1    0.14    0.13
   3  24  -1   -0.01    0.13
   2 -24  -1    0.20    0.20
   2  24  -1    0.10    0.14
   1 -24  -1    1.33    0.24
  -1 -24   1    1.20    0.23
  -1 -24   1    1.06    0.24
   1  24  -1    0.69    0.17
   0 -24   1    0.17    0.13
   0 -24   1    0.23    0.18
   0 -24  -1    0.43    0.15
   0 -24  -1    0.09    0.17
   1 -24   1    6.38    0.36
  -1 -24  -1    5.50    0.35
  -1 -24  -1    6.17    0.35
   1  24   1    5.92    0.36
  -2 -24  -1    0.91    0.20
   2 -24   1    0.50    0.14
  -2 -24  -1    0.30    0.14
   2  24   1    0.43    0.15
  -3 -24  -1    7.35    0.35
   3 -24   1    8.18    0.41
   3 -24   1    7.38    0.37
  -3 -24  -1    7.61    0.50
   3  24   1    7.47    0.39
  -4 -24  -1    6.94    0.32
   4 -24   1    7.34    0.35
   4  24   1    7.68    0.38
  -5 -24  -1    0.10    0.10
  -5 -25   1    1.95    0.17
  -4 -25   1    1.22    0.15
   4  25  -1    1.37    0.23
  -3 -25   1    2.52    0.29
  -3 -25   1    3.28    0.22
   3 -25  -1    3.28    0.26
   3  25  -1    3.05    0.30
  -2 -25   1   10.06    0.44
   2 -25  -1   10.26    0.45
  -2 -25   1   10.51    0.45
   2  25  -1    9.72    0.46
  -1 -25   1    1.14    0.20
   1 -25  -1    0.76    0.15
  -1 -25   1    0.48    0.15
   1  25  -1    0.41    0.15
   0 -25  -1    1.90    0.28
   0 -25   1    1.86    0.28
   0  25   1    1.75    0.25
  -1 -25  -1    4.55    0.30
   1 -25   1    5.45    0.31
  -1 -25  -1    5.19    0.31
   1  25   1    4.89    0.33
   2 -25   1   51.22    1.72
  -2 -25  -1   50.94    1.71
  -2 -25  -1   50.19    1.71
   2  25   1   49.88    1.73
  -3 -25  -1    0.37    0.10
   3 -25   1    0.68    0.17
   3  25   1    0.35    0.14
  -4 -25  -1    2.32    0.17
  -4 -26   1    0.01    0.11
   3 -26  -1    0.56    0.16
  -3 -26   1    0.65    0.18
  -3 -26   1    0.46    0.10
   3  26  -1    0.87    0.22
  -2 -26   1    4.02    0.27
  -2 -26   1    3.95    0.24
   2 -26  -1    4.13    0.26
  -1 -26   1   -0.12    0.12
  -1 -26   1    0.00    0.11
   1 -26  -1   -0.11    0.10
   1  26  -1   -0.09    0.13
   0 -26   1    1.17    0.19
   0 -26  -1    1.56    0.27
   0 -26  -1    1.07    0.20
   0 -26   1    1.48    0.27
   0  26   1    1.51    0.23
   0  26  -1    1.36    0.23
   1 -26   1    0.24    0.11
  -1 -26  -1   -0.04    0.11
  -1 -26  -1    0.11    0.13
   1  26   1    0.07    0.14
   2 -26   1    2.80    0.24
  -2 -26  -1    2.61    0.24
  -2 -26  -1    2.76    0.21
   2  26   1    2.64    0.26
   3 -26   1    0.35    0.21
  -3 -26  -1    0.35    0.10
   3  26   1    0.37    0.16
  -4 -26  -1    0.06    0.08
  -4 -27   1    1.90    0.15
  -3 -27   1    1.04    0.15
   3 -27  -1    0.72    0.17
   3  27  -1    1.40    0.24
   2 -27  -1    0.25    0.11
  -2 -27   1    0.23    0.10
  -2 -27   1    0.01    0.11
   2  27  -1    0.09    0.13
  -1 -27   1    2.20    0.22
  -1 -27   1    2.13    0.20
   1 -27  -1    2.16    0.19
  -1  27   1    2.07    0.25
   1  27  -1    2.20    0.24
   0 -27  -1    0.05    0.10
   0 -27   1    0.18    0.18
   0 -27   1    0.12    0.10
   0  27  -1   -0.19    0.12
   0  27   1   -0.04    0.14
  -1 -27  -1    1.31    0.18
   1 -27   1    1.22    0.18
  -1 -27  -1    1.15    0.21
   1  27   1    1.54    0.24
  -2 -27  -1    1.27    0.17
   2 -27   1    1.33    0.20
  -2 -27  -1    1.18    0.20
   2  27   1    1.46    0.24
  -3 -28   1    0.13    0.08
   2 -28  -1    0.14    0.15
  -2 -28   1    0.05    0.13
  -2 -28   1    0.04    0.11
  -2  28   1    0.12    0.16
   2  28  -1   -0.02    0.15
   1 -28  -1    9.09    0.37
  -1 -28   1    8.46    0.37
  -1  28   1    8.91    0.41
   1  28  -1    8.92    0.41
   0 -28  -1    6.64    0.32
   0 -28   1    6.75    0.32
   0  28  -1    7.41    0.36
   0  28   1    7.29    0.37
   1 -28   1    0.28    0.10
  -1 -28  -1    0.57    0.14
  -1 -28  -1    0.60    0.16
   1  28   1    0.91    0.24
  -1  28  -1    0.34    0.15
   2 -28   1    0.26    0.12
  -2 -28  -1    0.44    0.10
  -2 -28  -1    0.24    0.13
  -2  28  -1    0.12    0.18
  -3 -28  -1    1.80    0.16
  -2 -29   1    2.91    0.22
   2 -29  -1    3.09    0.21
  -2 -29   1    2.63    0.19
  -1 -29   1    0.39    0.13
  -1 -29   1    0.43    0.17
   0 -29   1    1.80    0.17
   0 -29  -1    2.03    0.17
   0  29  -1    2.40    0.36
  -1 -29  -1    2.19    0.18
   1 -29   1    2.12    0.17
  -2 -29  -1    6.86    0.30
  -1 -30   1    1.27    0.15
   1 -30  -1    1.11    0.15
   0 -30  -1    0.09    0.09
   0 -30   1   -0.05    0.08
  -1 -30  -1    0.92    0.17
   1 -30   1    0.57    0.15
   8   0  -2    2.60    0.29
   8   0  -2    2.56    0.24
   7   0  -2  330.05   11.07
   7   0  -2  356.45   11.07
   6   0  -2  110.60    3.74
   6   0  -2  115.61    3.74
   5   0  -2    0.40    0.11
   5   0  -2    0.59    0.21
  -4   0   2    0.02    0.16
   4   0  -2    0.13    0.13
   4   0  -2    0.01    0.09
   3   0  -2  248.76    7.98
  -3   0   2  250.45    8.00
   3   0  -2  246.27    8.00
  -2   0   2  209.61    6.44
   2   0  -2  190.90    6.43
   1   0  -2   41.47    1.40
  -1   0   2   44.23    1.40
   0   0  -2  158.81    5.28
   0   0   2  169.59    5.31
  -1   0  -2    2.36    0.10
  -1   0  -2    2.75    0.10
   3   0   2  384.79   12.34
   4   0   2  247.21    8.14
   4   0   2  253.90    8.14
   4   0   2  253.77    8.11
   5   0   2   36.90    1.38
   5   0   2   39.72    1.34
   6   0   2    7.08    0.39
   6   0   2    7.60    0.44
   6   0   2    7.42    0.42
   7   0   2    2.26    0.27
   7   0   2    2.34    0.25
   7   0   2    2.48    0.27
   8   0   2   43.29    1.44
   8  -1  -2   18.88    0.73
   8  -1  -2   19.81    0.74
   8   1  -2   19.46    0.73
   8   1  -2   19.51    0.74
   7   1  -2    0.44    0.21
   7   1  -2    0.30    0.13
   6  -1  -2   49.78    1.76
   6  -1  -2   52.99    1.74
   6   1  -2   48.72    1.76
   6   1  -2   50.48    1.74
   5  -1  -2   -0.05    0.23
   5  -1  -2   -0.02    0.10
   5  -1  -2    0.28    0.19
   5   1  -2    0.20    0.26
   5   1  -2    0.46    0.19
   5   1  -2    0.28    0.11
   4  -1  -2    1.13    0.16
  -4  -1   2    0.91    0.28
   4  -1  -2    1.10    0.24
   4   1  -2    0.94    0.23
   4   1  -2    0.87    0.16
  -4   1   2    1.02    0.26
  -3  -1   2    2.88    0.19
   3  -1  -2    2.54    0.19
   3  -1  -2    3.13    0.18
  -3   1   2    2.97    0.19
   3   1  -2    2.81    0.20
   3   1  -2    2.94    0.17
   2  -1  -2    1.39    0.10
  -2  -1   2    1.51    0.10
  -2   1   2    1.58    0.11
   2   1  -2    1.39    0.10
   1  -1  -2   78.75    2.65
   1   1  -2   82.36    2.65
  -1   1   2   84.89    2.65
   0  -1  -2  139.90    4.67
   0  -1   2  149.34    4.70
   0   1   2  152.27    4.69
   0   1  -2  137.28    4.65
  -1   1  -2  231.51    7.21
  -1   1  -2  215.50    7.20
  -2   1  -2    0.27    0.05
   3  -1   2    2.36    0.20
   3   1   2    2.15    0.20
  -3   1  -2    2.28    0.14
   4  -1   2    8.33    0.45
   4  -1   2    7.79    0.46
   4  -1   2    8.35    0.36
   4   1   2    6.76    0.46
   4   1   2    7.78    0.36
   5  -1   2    6.85    0.36
   5  -1   2    6.16    0.51
   5   1   2    7.13    0.43
   5   1   2    6.99    0.36
   6  -1   2   11.60    0.55
   6  -1   2   11.77    0.53
   6  -1   2   12.17    0.56
   6   1   2   12.52    0.57
   6   1   2   11.37    0.52
   6   1   2   12.07    0.55
   7  -1   2   14.24    0.59
   7  -1   2   14.29    0.58
   7  -1   2   14.44    0.58
   7   1   2   13.76    0.58
   7   1   2   13.39    0.58
   7   1   2   14.66    0.60
   8  -1   2    3.52    0.22
   8   1   2    2.58    0.25
  -8  -2   2   10.43    0.42
   8  -2  -2    9.96    0.44
   8  -2  -2    9.97    0.45
   8   2  -2    9.77    0.45
  -8   2   2    9.68    0.42
   7  -2  -2   20.64    0.78
   7  -2  -2   18.63    0.75
   7   2  -2   20.53    0.80
   7   2  -2   18.34    0.75
   6  -2  -2    0.23    0.19
   6  -2  -2    0.29    0.14
   6   2  -2    0.22    0.14
   6   2  -2    0.47    0.24
   5  -2  -2   11.74    0.48
   5  -2  -2   11.62    0.55
   5  -2  -2   11.31    0.57
   5   2  -2   11.07    0.63
   5   2  -2   11.70    0.55
   5   2  -2   11.68    0.48
  -4  -2   2    1.96    0.29
   4  -2  -2    1.65    0.25
   4  -2  -2    2.04    0.18
   4   2  -2    1.61    0.23
   4   2  -2    1.87    0.18
  -4   2   2    1.40    0.32
   3  -2  -2    7.92    0.35
  -3  -2   2    8.57    0.35
   3  -2  -2    8.73    0.35
   3   2  -2    8.13    0.35
   3   2  -2    8.87    0.35
  -3   2   2    8.61    0.36
   2  -2  -2   69.69    2.38
  -2  -2   2   75.82    2.38
   2   2  -2   71.99    2.38
  -2   2   2   75.12    2.39
  -1  -2   2   36.77    1.18
   1  -2  -2   34.85    1.18
   1   2  -2   34.82    1.18
  -1   2   2   36.86    1.18
   0  -2   2  296.49    9.37
   0  -2  -2  284.55    9.37
   0   2  -2  281.18    9.40
   0   2   2  301.43    9.39
  -1   2  -2  435.82   13.54
  -1   2  -2  405.26   13.52
  -2   2  -2   16.61    0.57
   3  -2   2   12.43    0.48
   3   2   2   12.58    0.48
  -3   2  -2   12.67    0.46
   4  -2   2   34.90    1.19
   4  -2   2   34.50    1.23
   4  -2   2   33.73    1.23
   4   2   2   33.13    1.24
   4   2   2   35.21    1.19
   5  -2   2    0.10    0.12
   5   2   2    0.09    0.12
   5   2   2    0.20    0.20
   6  -2   2    0.15    0.13
   6  -2   2    0.25    0.16
   6  -2   2    0.58    0.18
   6   2   2    0.74    0.19
   6   2   2    0.18    0.14
   6   2   2    0.38    0.17
   7  -2   2    5.92    0.33
   7  -2   2    4.95    0.32
   7  -2   2    5.52    0.32
   7   2   2    4.72    0.32
   7   2   2    5.74    0.34
   7   2   2    4.92    0.32
   8  -2   2    1.41    0.18
   8   2   2    1.07    0.26
   8  -3  -2    1.01    0.21
   8  -3  -2    0.91    0.22
  -8  -3   2    1.03    0.18
   8   3  -2    0.89    0.21
  -8   3   2    0.78    0.17
   7  -3  -2    3.52    0.33
   7  -3  -2    2.32    0.26
   7   3  -2    3.24    0.41
   7   3  -2    2.82    0.26
   6  -3  -2    0.48    0.18
   6  -3  -2    0.18    0.12
   6   3  -2    0.43    0.25
   6   3  -2    0.49    0.14
   5  -3  -2   76.00    2.56
   5  -3  -2   75.92    2.56
   5  -3  -2   78.01    2.54
   5   3  -2   77.01    2.54
   5   3  -2   79.97    2.56
   5   3  -2   71.20    2.58
   4  -3  -2   19.57    0.69
  -4  -3   2   17.24    0.74
   4  -3  -2   19.69    0.75
  -4   3   2   20.42    0.86
   4   3  -2   18.59    0.72
   4   3  -2   19.31    0.70
   3  -3  -2    1.08    0.15
   3  -3  -2    1.35    0.15
  -3  -3   2    1.35    0.16
   3   3  -2    1.19    0.16
  -3   3   2    1.57    0.17
   3   3  -2    1.45    0.13
   2  -3  -2    3.55    0.17
  -2  -3   2    3.52    0.17
   2   3  -2    3.54    0.17
  -2   3   2    3.47    0.17
   1  -3  -2    2.71    0.13
  -1  -3   2    2.74    0.13
  -1   3   2    2.83    0.13
   1   3  -2    2.62    0.13
   0  -3  -2    0.88    0.06
   0   3   2    1.00    0.06
   0   3  -2    0.90    0.07
  -1   3  -2   24.09    0.81
  -2   3  -2   54.26    1.78
   3  -3   2   85.61    2.81
   3   3   2   87.06    2.82
  -3   3  -2   85.85    2.81
   4  -3   2   16.83    0.71
   4  -3   2   17.20    0.65
   4  -3   2   17.31    0.71
   4   3   2   17.14    0.74
   4   3   2   17.25    0.71
   4   3   2   17.31    0.65
   5  -3   2    2.83    0.45
   5  -3   2    3.88    0.36
   5  -3   2    4.47    0.28
   5   3   2    4.25    0.42
   5   3   2    3.97    0.28
   5   3   2    3.87    0.37
   6  -3   2   58.91    1.93
   6  -3   2   54.52    1.90
   6  -3   2   54.82    1.91
   6   3   2   56.84    1.92
   6   3   2   55.45    1.91
   6   3   2   53.68    1.90
   7  -3   2    3.46    0.28
   7  -3   2    3.71    0.28
   7  -3   2    3.64    0.27
   7   3   2    3.08    0.28
   7   3   2    3.61    0.29
   7   3   2    3.26    0.30
   8  -3   2    4.45    0.25
   8   3   2    4.15    0.40
   8  -4  -2    6.83    0.34
   8  -4  -2    6.55    0.35
  -8  -4   2    6.48    0.32
   8   4  -2    6.71    0.35
  -8   4   2    6.30    0.32
   7  -4  -2    0.63    0.15
   7  -4  -2    0.40    0.17
   7   4  -2    0.83    0.21
   7   4  -2   -0.22    0.26
   6  -4  -2   86.57    2.93
   6  -4  -2   89.35    2.91
   6   4  -2   87.60    2.92
   6   4  -2   86.17    2.93
   5  -4  -2   16.26    0.69
   5  -4  -2   16.92    0.69
   5  -4  -2   16.49    0.63
   5   4  -2   14.11    0.79
   5   4  -2   17.08    0.64
   5   4  -2   16.85    0.69
   4  -4  -2    1.03    0.16
  -4  -4   2    0.90    0.19
   4  -4  -2    1.04    0.28
   4   4  -2    0.97    0.16
   4   4  -2    1.26    0.24
   3  -4  -2    2.76    0.19
   3  -4  -2    2.65    0.18
  -3  -4   2    2.82    0.19
   3   4  -2    2.85    0.18
  -3   4   2    2.62    0.21
   3   4  -2    3.01    0.20
   2  -4  -2  803.35   26.73
  -2  -4   2  841.67   26.71
   2   4  -2  834.59   26.70
  -2   4   2  837.37   26.72
  -1  -4   2  261.35    8.68
   1  -4  -2  262.97    8.76
  -1   4   2  295.73    8.76
   1   4  -2  262.78    8.71
   0  -4  -2  489.71   15.88
   0   4  -2  468.34   15.91
   0   4   2  524.03   15.93
  -1   4  -2    3.84    0.17
  -2   4  -2  253.07    8.13
   3  -4   2   16.67    0.61
   3   4   2   17.48    0.62
  -3   4  -2   15.94    0.62
   4  -4   2   26.45    0.94
   4  -4   2   26.44    0.99
   4  -4   2   25.00    0.99
   4   4   2   27.41    0.95
   4   4   2   26.77    1.03
   4   4   2   27.04    1.00
   5  -4   2   79.96    2.73
   5  -4   2   81.28    2.70
   5  -4   2   79.91    2.72
   5   4   2   84.48    2.71
   5   4   2   80.25    2.72
   6  -4   2    0.63    0.17
   6  -4   2    0.41    0.18
   6  -4   2    0.39    0.15
   6   4   2    0.48    0.16
   6   4   2    0.74    0.21
   6   4   2    0.38    0.17
   7  -4   2    5.85    0.34
   7  -4   2    5.70    0.34
   7   4   2    5.66    0.34
   7   4   2    6.53    0.37
   8  -4   2    2.52    0.20
  -8  -5   2    5.86    0.29
   8  -5  -2    5.25    0.31
   8  -5  -2    5.68    0.31
  -8   5   2    5.78    0.29
   8   5  -2    5.58    0.33
   7  -5  -2    0.72    0.18
   7  -5  -2    0.58    0.15
   7   5  -2    1.00    0.22
   6  -5  -2    1.18    0.22
   6  -5  -2    0.60    0.18
   6   5  -2    0.86    0.16
   6   5  -2    0.87    0.31
   5  -5  -2   52.71    1.77
   5  -5  -2   52.47    1.80
   5   5  -2   51.77    1.78
   4  -5  -2    1.29    0.16
   4  -5  -2    1.21    0.32
  -4  -5   2    1.02    0.22
   4   5  -2    1.17    0.27
   4   5  -2    1.44    0.18
   3  -5  -2   88.59    2.84
  -3  -5   2   84.04    2.82
   3  -5  -2   86.49    2.80
  -3   5   2   83.30    2.85
   3   5  -2   86.16    2.82
   3   5  -2   87.36    2.81
  -2  -5   2   43.24    1.40
   2  -5  -2   43.16    1.41
   2   5  -2   40.25    1.40
  -2   5   2   41.70    1.41
  -1  -5   2  101.07    3.24
   1  -5  -2   96.48    3.24
   1   5  -2   98.92    3.25
  -1   5   2  104.12    3.25
   0  -5  -2   15.75    0.53
   0   5   2   16.20    0.54
   0   5  -2   14.85    0.54
  -1   5  -2    4.19    0.20
   1   5   2    4.41    0.16
  -2   5  -2    3.82    0.21
   3  -5   2    5.58    0.28
   3   5   2    6.82    0.30
  -3   5  -2    5.54    0.33
   4  -5   2   10.09    0.42
   4  -5   2    9.98    0.52
   4  -5   2    9.47    0.49
   4   5   2   10.55    0.52
   4   5   2   10.41    0.43
   4   5   2    9.42    0.59
   5  -5   2    9.18    0.47
   5  -5   2    9.57    0.48
   5  -5   2    9.23    0.43
   5   5   2    9.10    0.44
   5   5   2    8.98    0.48
   6  -5   2   19.92    0.80
   6  -5   2   20.74    0.83
   6  -5   2   21.66    0.82
   6   5   2   21.33    0.84
   6   5   2   21.54    0.83
   6   5   2   20.06    0.80
   7  -5   2    2.48    0.25
   7  -5   2    2.55    0.24
   7   5   2    2.70    0.26
   7   5   2    2.32    0.30
   8  -5   2    0.60    0.16
   8  -6  -2    2.18    0.22
  -8  -6   2    2.71    0.20
   8  -6  -2    2.37    0.24
  -8   6   2    2.70    0.22
   8   6  -2    1.91    0.25
   7  -6  -2    2.03    0.23
   7  -6  -2    2.18    0.28
   7   6  -2    2.45    0.25
   6  -6  -2    3.43    0.34
   6  -6  -2    4.18    0.29
   6   6  -2    4.42    0.30
   5  -6  -2    4.26    0.34
   5  -6  -2    4.02    0.26
   5   6  -2    4.42    0.27
   4  -6  -2    7.68    0.34
   4  -6  -2    8.24    0.47
   4  -6  -2    7.13    0.45
   4   6  -2    7.62    0.35
   4   6  -2    7.27    0.43
   3  -6  -2    0.28    0.09
  -3  -6   2    0.24    0.11
   3  -6  -2    0.18    0.09
  -3   6   2    0.26    0.12
   3   6  -2    0.15    0.10
   3   6  -2    0.20    0.10
  -2  -6   2   70.55    2.30
   2  -6  -2   70.99    2.31
   2   6  -2   67.98    2.30
  -2   6   2   70.40    2.31
   1  -6  -2   32.70    1.10
  -1   6   2   33.85    1.11
   1   6  -2   31.79    1.10
   0  -6  -2   49.15    1.64
   0   6  -2   49.50    1.65
   0   6   2   51.34    1.64
  -1   6  -2   86.93    2.84
   1   6   2   87.10    2.80
   2  -6   2  114.82    3.79
   2   6   2  118.31    3.80
  -2   6  -2  118.14    3.81
   3  -6   2    4.41    0.24
  -3   6  -2    4.17    0.32
   3   6   2    4.65    0.26
   4  -6   2   32.17    1.22
   4  -6   2   35.65    1.22
  -4  -6  -2   31.10    1.23
   4  -6   2   34.98    1.18
   4   6   2   32.84    1.26
   4   6   2   34.37    1.18
   4   6   2   35.32    1.23
   5  -6   2   13.42    0.59
   5  -6   2   13.18    0.59
   5  -6   2   12.80    0.55
   5   6   2   13.29    0.66
   5   6   2   13.92    0.61
   5   6   2   14.47    0.57
   6  -6   2   -0.05    0.13
   6  -6   2    0.05    0.17
   6  -6   2    0.22    0.17
   6   6   2    0.29    0.22
   6   6   2    0.18    0.14
   6   6   2    0.38    0.18
   7  -6   2    0.79    0.20
   7  -6   2    0.88    0.21
   7   6   2    1.00    0.22
   7   6   2    0.74    0.21
   8  -6   2    1.29    0.17
  -8   6  -2    1.13    0.19
   8  -7  -2   20.22    0.76
  -8  -7   2   20.68    0.74
  -8   7   2   21.93    0.74
   8   7  -2   20.01    0.77
   7  -7  -2    0.74    0.17
   7  -7  -2    0.41    0.14
   7   7  -2    1.28    0.22
   6  -7  -2    9.76    0.50
   5  -7  -2   20.86    0.82
   5  -7  -2   20.88    0.78
   5   7  -2   20.88    0.79
   4  -7  -2   51.32    1.66
   4  -7  -2   48.15    1.69
   4  -7  -2   47.21    1.75
   4   7  -2   50.00    1.66
   3  -7  -2  425.37   13.49
   3  -7  -2  408.37   13.54
   3   7  -2  426.04   13.50
  -3   7   2  423.67   13.56
   2  -7  -2    0.20    0.08
  -2   7   2    0.14    0.07
   2   7  -2    0.10    0.06
   1  -7  -2   19.92    0.70
   1   7  -2   19.40    0.70
  -1   7   2   20.94    0.71
   0  -7  -2  322.54    9.96
   0   7   2  315.50    9.90
   0   7  -2  297.02    9.91
   0   7  -2  299.27    9.91
   1   7   2  103.06    3.30
  -1   7  -2  101.61    3.34
   2  -7   2  286.44    9.17
  -2   7  -2  282.17    9.20
   2   7   2  287.77    9.17
   3  -7   2    4.32    0.24
   3   7   2    4.77    0.26
  -3   7  -2    4.20    0.40
   4  -7   2   10.81    0.55
  -4  -7  -2    9.29    0.55
   4  -7   2   10.25    0.51
   4  -7   2   10.92    0.45
   4   7   2   10.84    0.45
   4   7   2   10.64    0.64
   4   7   2   10.24    0.54
   5  -7   2   50.42    1.78
   5  -7   2   52.13    1.76
   5  -7   2   49.22    1.76
   5   7   2   53.12    1.78
   5   7   2   52.88    1.77
   5   7   2   50.43    1.80
   6  -7   2    0.97    0.21
   6  -7   2    1.00    0.25
   6  -7   2    1.18    0.29
   6   7   2    1.41    0.29
   6   7   2    0.92    0.22
   6   7   2    0.88    0.25
   7  -7   2    8.01    0.38
   7   7   2    8.14    0.44
   7   7   2    7.76    0.68
   8  -7   2    1.47    0.17
  -8  -7  -2    1.32    0.19
   8  -8  -2    0.12    0.13
  -8  -8   2    0.12    0.12
   8   8  -2    0.06    0.14
   7  -8  -2   11.86    0.52
   7  -8  -2   12.99    0.64
   7   8  -2   11.91    0.53
   6  -8  -2    5.55    0.32
   6  -8  -2    5.74    0.38
   6   8  -2    5.42    0.33
   5  -8  -2    0.60    0.17
   5  -8  -2    0.89    0.19
   5   8  -2    0.91    0.19
   4  -8  -2    1.59    0.32
   4  -8  -2    2.35    0.19
   4   8  -2    2.29    0.20
   3  -8  -2  226.79    7.27
   3  -8  -2  223.93    7.33
   3   8  -2  219.95    7.30
   3   8  -2  232.51    7.28
   2  -8  -2   74.73    2.49
   2  -8  -2   78.79    2.52
   2   8  -2   76.23    2.51
   2   8  -2   75.15    2.50
  -2   8   2   75.88    2.53
   1  -8  -2    1.08    0.11
  -1   8   2    1.14    0.13
   1   8  -2    1.03    0.13
   0  -8  -2   30.64    1.05
   0   8  -2   30.54    1.06
   0   8  -2   31.42    1.07
   0   8   2   31.39    1.05
   1   8   2    0.37    0.10
  -1   8  -2    0.70    0.14
   2  -8   2    0.20    0.09
  -2   8  -2   -0.17    0.13
   2   8   2    0.23    0.11
   3  -8   2   12.99    0.56
   3   8   2   13.81    0.53
   4  -8   2   26.08    1.02
   4  -8   2   27.74    1.01
   4  -8   2   28.44    0.97
  -4  -8  -2   26.30    1.01
   4   8   2   24.77    1.09
   4   8   2   27.78    0.97
   4   8   2   27.61    1.03
   5  -8   2    1.28    0.32
   5  -8   2    1.38    0.30
   5  -8   2    1.14    0.20
   5   8   2    1.58    0.23
   5   8   2    1.39    0.29
   5   8   2    1.62    0.25
   6  -8   2    0.21    0.19
   6  -8   2    0.15    0.13
   6  -8   2   -0.13    0.15
   6   8   2   -0.37    0.26
   6   8   2    0.34    0.18
   6   8   2   -0.14    0.13
   7  -8   2   -0.04    0.12
   7  -8   2   -0.05    0.11
   7   8   2    0.11    0.15
   8  -8   2   11.06    0.41
   8  -9  -2    4.91    0.30
  -8  -9   2    5.03    0.27
  -8   9   2    4.97    0.33
   8   9  -2    5.08    0.30
  -7  -9   2   -0.01    0.14
   7  -9  -2    0.12    0.12
   7  -9  -2    0.29    0.14
  -7   9   2    0.01    0.16
   7   9  -2    0.26    0.14
   6  -9  -2    7.55    0.39
   6  -9  -2    7.25    0.43
   6   9  -2    7.75    0.40
   5  -9  -2   17.57    0.68
   5  -9  -2   17.31    0.73
   5   9  -2   18.05    0.70
  -4  -9   2   30.67    1.19
   4  -9  -2   31.89    1.16
   4  -9  -2   33.19    1.13
   4   9  -2   32.83    1.13
   3  -9  -2   51.99    1.73
   3  -9  -2   51.52    1.79
   3   9  -2   50.82    1.76
   3   9  -2   52.10    1.73
   2  -9  -2   94.84    3.06
   2  -9  -2   91.95    3.02
  -2   9   2   94.96    3.08
   2   9  -2   92.45    3.05
   2   9  -2   89.03    3.02
   1  -9  -2  120.78    3.93
   1   9  -2  119.02    3.93
   1   9  -2  121.73    3.93
  -1   9   2  120.37    3.93
   0  -9  -2   20.55    0.73
   0   9   2   20.82    0.73
   0   9  -2   20.34    0.75
   1  -9   2    5.22    0.25
   1   9   2    4.67    0.24
  -1   9  -2    5.04    0.28
   2  -9   2    0.14    0.09
   2   9   2    0.46    0.13
  -2   9  -2   -0.04    0.15
   2   9   2    0.06    0.10
   3  -9   2    1.16    0.16
   3   9   2    0.94    0.18
   4  -9   2    2.54    0.34
   4  -9   2    2.94    0.43
   4  -9   2    3.71    0.25
  -4  -9  -2    3.13    0.37
   4   9   2    3.52    0.43
   4   9   2    3.53    0.26
   4   9   2    3.04    0.57
  -5  -9  -2    0.72    0.25
   5  -9   2    0.24    0.13
   5  -9   2    0.10    0.17
   5  -9   2    0.58    0.22
   5   9   2    0.13    0.13
   5   9   2    0.56    0.30
   5   9   2   -0.17    0.19
   6  -9   2    4.13    0.32
   6  -9   2    3.99    0.29
   6  -9   2    4.28    0.36
   6   9   2    4.42    0.36
   6   9   2    3.89    0.30
   7  -9   2    3.71    0.27
   7  -9   2    3.83    0.25
   7   9   2    3.80    0.30
   8 -10  -2    1.25    0.24
  -8 -10   2    1.57    0.24
   8  10  -2    1.85    0.24
   7 -10  -2    0.06    0.13
  -7 -10   2    0.09    0.15
   7 -10  -2    0.22    0.13
  -7  10   2   -0.03    0.17
   7  10  -2    0.12    0.13
   6 -10  -2    4.45    0.29
   6 -10  -2    5.03    0.35
   6  10  -2    4.76    0.31
  -5 -10   2    0.25    0.25
   5 -10  -2    0.71    0.19
   5 -10  -2    0.36    0.14
   5  10  -2    0.46    0.14
   4 -10  -2   40.78    1.34
  -4 -10   2   35.75    1.36
   4 -10  -2   38.55    1.36
   4  10  -2   39.62    1.35
   3 -10  -2   22.66    0.78
   3 -10  -2   21.86    0.87
   3  10  -2   21.01    0.85
   3  10  -2   21.84    0.79
   2 -10  -2   65.75    2.16
   2 -10  -2   67.14    2.21
   2  10  -2   65.91    2.21
   2  10  -2   64.19    2.17
   1 -10  -2    1.34    0.15
   1 -10  -2    1.01    0.16
   1  10  -2    0.99    0.16
  -1  10   2    1.48    0.20
   1  10  -2    1.05    0.19
   0 -10  -2    1.08    0.17
   0 -10  -2    0.90    0.13
   0 -10   2    0.88    0.16
   0  10   2    0.99    0.17
   0  10  -2    0.61    0.17
   0  10  -2    0.89    0.15
   1 -10   2   10.21    0.39
   1  10   2    9.51    0.39
  -1  10  -2    8.72    0.43
   2 -10   2   35.79    1.22
   2  10   2   34.21    1.19
   2  10   2   37.40    1.23
  -3 -10  -2   14.10    0.60
   3 -10   2   13.30    0.66
   3 -10   2   14.86    0.56
   3  10   2   15.79    0.58
  -4 -10  -2    0.77    0.21
   4 -10   2    0.86    0.18
   4 -10   2    1.07    0.21
   4 -10   2    1.15    0.38
   4  10   2    0.80    0.27
   4  10   2    0.84    0.20
   5 -10   2   -0.03    0.23
   5 -10   2    0.33    0.17
  -5 -10  -2   -0.15    0.21
   5  10   2    0.26    0.23
   6 -10   2    1.14    0.25
   6 -10   2    1.03    0.22
   6  10   2    1.26    0.23
   7 -10   2    2.39    0.21
   7 -10   2    1.95    0.23
   7  10   2    1.99    0.27
   7 -11  -2    0.25    0.13
   7 -11  -2    0.52    0.14
  -7 -11   2    0.36    0.16
  -7  11   2    0.67    0.33
   7  11  -2    0.18    0.13
   6 -11  -2    2.02    0.23
   6 -11  -2    2.71    0.29
   6  11  -2    1.90    0.24
   5 -11  -2   10.03    0.49
   5 -11  -2   10.51    0.46
  -5 -11   2    8.42    0.55
   5  11  -2   10.33    0.47
   4 -11  -2    5.92    0.41
  -4 -11   2    6.02    0.42
   4 -11  -2    6.72    0.33
   4  11  -2    6.18    0.33
   3 -11  -2  205.61    6.39
   3  11  -2  202.38    6.39
   3  11  -2  184.62    6.44
   2 -11  -2   87.46    2.89
   2 -11  -2   88.32    2.83
   2  11  -2   79.65    2.88
   2  11  -2   88.23    2.89
   2  11  -2   88.66    2.84
   1 -11  -2   35.29    1.22
   1 -11  -2   37.85    1.26
   1  11  -2   34.86    1.27
   1  11  -2   37.30    1.27
  -1  11   2   35.19    1.28
   0 -11   2  109.82    3.61
   0 -11  -2  112.81    3.61
   0  11  -2  113.85    3.66
   0  11   2  111.14    3.64
   0  11  -2  107.48    3.66
   1 -11   2   67.49    2.21
   1  11   2   66.77    2.23
   2 -11   2   51.64    1.73
   2  11   2   51.90    1.74
  -3 -11  -2   25.04    0.96
   3 -11   2   24.97    1.01
   3 -11   2   27.14    0.94
   3  11   2   28.11    0.95
  -4 -11  -2   -0.02    0.17
   4 -11   2    0.26    0.11
   4 -11   2    0.29    0.21
   4  11   2    0.08    0.12
   4  11   2    0.17    0.27
   5 -11   2   18.18    0.73
  -5 -11  -2   17.29    0.73
   5 -11   2   18.05    0.79
   5 -11   2   17.13    0.69
   5  11   2   17.34    0.71
   5  11   2   18.77    0.75
   6 -11   2   21.72    0.83
   6  11   2   22.30    0.84
   7 -11   2    1.56    0.23
   7 -11   2    1.41    0.19
   7  11   2    1.48    0.26
  -7 -12   2    9.92    0.45
   7 -12  -2   10.61    0.45
   7  12  -2   10.38    0.46
   6 -12  -2    0.33    0.13
   6 -12  -2    0.58    0.17
  -6 -12   2    0.37    0.21
   6  12  -2    0.35    0.15
  -5 -12   2    4.20    0.40
   5 -12  -2    5.13    0.31
   5 -12  -2    4.70    0.36
   5  12  -2    4.87    0.32
  -4 -12   2    3.68    0.36
   4 -12  -2    3.94    0.35
   4 -12  -2    4.64    0.27
   4  12  -2    3.71    0.28
  -3 -12   2   40.73    1.40
   3 -12  -2   38.75    1.42
   3 -12  -2   42.21    1.38
   3  12  -2   37.91    1.49
   3  12  -2   41.72    1.39
   2 -12  -2   78.99    2.55
   2 -12  -2   78.30    2.63
   2  12  -2   77.11    2.62
   2  12  -2   76.23    2.56
   1 -12  -2    1.04    0.21
   1 -12  -2    0.60    0.16
   1  12  -2    1.12    0.24
   0 -12   2   37.01    1.29
   0 -12  -2   39.14    1.30
   0  12  -2   39.93    1.36
   0  12   2   37.17    1.35
   1 -12   2    4.46    0.24
   1  12   2    4.17    0.29
   1  12   2    4.22    0.34
  -1  12  -2    4.09    0.32
   2 -12   2   42.91    1.51
   2  12   2   46.33    1.52
   3 -12   2    2.47    0.21
   3 -12   2    2.60    0.42
  -3 -12  -2    2.96    0.31
   3  12   2    2.64    0.23
   4 -12   2    6.32    0.33
   4 -12   2    5.55    0.42
  -4 -12  -2    6.50    0.39
   4  12   2    6.77    0.36
  -5 -12  -2    2.40    0.34
   5 -12   2    2.08    0.22
   5 -12   2    2.18    0.30
   5  12   2    1.97    0.25
   5  12   2    2.35    0.42
   6 -12   2    0.29    0.16
   6 -12   2    0.46    0.14
   6  12   2    0.24    0.15
   7 -12   2    0.50    0.12
   7 -12   2    0.23    0.15
   7  12   2    1.20    0.27
   7 -13  -2    0.23    0.13
   7  13  -2    0.05    0.14
   6 -13  -2    5.29    0.32
   6 -13  -2    5.79    0.36
   6  13  -2    5.16    0.33
   5 -13  -2    0.73    0.19
  -5 -13   2    0.54    0.21
   5 -13  -2    1.11    0.20
   5  13  -2    0.52    0.15
   4 -13  -2    0.79    0.19
   4 -13  -2    0.76    0.21
  -4 -13   2    0.54    0.18
   4  13  -2    0.28    0.13
  -3 -13   2    4.31    0.33
   3 -13  -2    4.87    0.27
   3 -13  -2    3.91    0.41
   3 -13  -2    3.83    0.47
   3  13  -2    4.21    0.28
   2 -13  -2   62.89    2.11
  -2 -13   2   60.74    2.11
   2  13  -2   63.52    2.19
   2  13  -2   65.15    2.11
   1 -13  -2   32.50    1.08
   1 -13  -2   30.29    1.15
   1  13  -2   31.76    1.17
   0 -13  -2    0.49    0.11
   0 -13   2    0.31    0.09
   0  13  -2    1.04    0.27
   1 -13   2   14.82    0.55
  -1  13  -2   14.46    0.66
   1  13   2   13.67    0.66
   1  13   2   14.27    0.63
  -2 -13  -2   19.32    0.75
   2 -13   2   19.70    0.72
   2  13   2   20.05    0.74
   3 -13   2   18.80    0.69
   3 -13   2   16.51    0.78
  -3 -13  -2   17.69    0.71
   3  13   2   19.09    0.70
  -4 -13  -2    0.07    0.17
   4 -13   2    0.25    0.20
   4 -13   2    0.28    0.13
   4  13   2    0.19    0.14
   5 -13   2    5.49    0.32
   5 -13   2    5.96    0.38
  -5 -13  -2    5.65    0.38
   5  13   2    5.42    0.34
   6 -13   2    4.36    0.29
   6 -13   2    4.75    0.31
   6  13   2    4.95    0.32
   7 -14  -2   10.32    0.45
   7  14  -2   10.07    0.45
   6 -14  -2    2.07    0.22
   6  14  -2    1.66    0.23
  -5 -14   2    2.66    0.35
   5 -14  -2    3.28    0.25
   5 -14  -2    3.41    0.32
   5  14  -2    2.84    0.27
   4 -14  -2    3.91    0.36
  -4 -14   2    4.43    0.37
   4 -14  -2    4.19    0.27
   4  14  -2    3.64    0.29
   3 -14  -2    0.13    0.10
   3 -14  -2    0.05    0.22
  -3 -14   2    0.20    0.16
  -3 -14   2    0.29    0.27
   3  14  -2    0.21    0.12
   2 -14  -2    4.19    0.38
   2 -14  -2    4.61    0.25
  -2 -14   2    4.32    0.32
  -2 -14   2    3.93    0.40
   2  14  -2    4.09    0.27
   1 -14  -2    5.15    0.40
   1  14  -2    4.72    0.47
   0 -14   2    9.67    0.46
   0 -14  -2   10.32    0.43
   0  14  -2   12.25    0.65
  -1 -14  -2    2.69    0.37
   1 -14   2    3.22    0.21
   1 -14   2    1.88    0.35
  -1 -14  -2    2.94    0.30
   1  14   2    3.38    0.43
   2 -14   2   10.68    0.43
  -2 -14  -2    9.19    0.55
  -2 -14  -2   10.42    0.47
   2 -14   2    9.75    0.57
   2  14   2   10.73    0.46
  -3 -14  -2    1.94    0.26
   3 -14   2    1.76    0.20
   3  14   2    1.49    0.22
   4 -14   2   20.14    0.74
   4 -14   2   18.55    0.78
  -4 -14  -2   19.29    0.76
   4  14   2   18.64    0.75
  -5 -14  -2    0.33    0.17
   5 -14   2    0.61    0.16
   5 -14   2    0.69    0.19
   5  14   2    0.27    0.14
   6 -14   2    1.93    0.23
   6 -14   2    2.03    0.24
   6  14   2    2.11    0.26
   7 -15  -2    0.48    0.13
   7  15  -2    0.24    0.14
  -6 -15   2    2.02    0.48
   6 -15  -2    2.14    0.22
   6  15  -2    1.88    0.24
   5 -15  -2    2.28    0.23
  -5 -15   2    2.68    0.32
   5  15  -2    1.85    0.24
   4 -15  -2  104.99    3.40
  -4 -15   2  102.30    3.40
   4  15  -2  101.57    3.42
  -3 -15   2    2.12    0.42
  -3 -15   2    2.27    0.28
   3 -15  -2    1.96    0.39
   3 -15  -2    2.14    0.23
   3  15  -2    2.13    0.24
   2 -15  -2    1.30    0.20
   2 -15  -2    1.37    0.18
  -2 -15   2    1.32    0.26
  -2 -15   2    1.26    0.23
   2  15  -2    1.23    0.20
   1 -15  -2   18.20    0.65
  -1 -15   2   17.20    0.69
   1 -15  -2   16.80    0.69
  -1 -15   2   16.66    0.70
   0 -15   2    2.96    0.33
   0 -15  -2    2.85    0.31
   0 -15   2    3.23    0.22
   0 -15   2    2.87    0.38
   0 -15  -2    3.04    0.36
   0 -15  -2    2.89    0.22
   1 -15   2    9.33    0.39
   1 -15   2    8.40    0.47
  -1 -15  -2    9.04    0.46
  -1 -15  -2    9.43    0.45
  -2 -15  -2   19.30    0.81
  -2 -15  -2   20.62    0.77
   2 -15   2   19.91    0.74
   2 -15   2   19.23    0.81
   2  15   2   20.92    0.77
  -3 -15  -2    0.01    0.14
   3 -15   2   -0.15    0.11
   3  15   2   -0.17    0.12
  -4 -15  -2   33.50    1.20
   4 -15   2   31.52    1.21
   4 -15   2   32.73    1.24
   4  15   2   37.95    1.41
   5 -15   2   -0.45    0.17
   5 -15   2    0.13    0.13
  -5 -15  -2    0.06    0.16
   5  15   2   -0.23    0.13
   6 -15   2    4.44    0.29
   6 -15   2    3.70    0.27
   6  15   2    3.92    0.31
   7 -16  -2    5.64    0.32
   7  16  -2    5.87    0.33
   6 -16  -2   14.66    0.60
  -6 -16   2   15.89    0.64
   6  16  -2   14.56    0.61
   5 -16  -2   16.44    0.65
  -5 -16   2   17.12    0.67
   5  16  -2   14.80    0.66
   4 -16  -2   18.32    0.69
  -4 -16   2   17.25    0.70
   4  16  -2   16.38    0.70
   3 -16  -2    0.23    0.12
  -3 -16   2    0.09    0.23
   3 -16  -2   -0.09    0.19
   3  16  -2    0.13    0.12
   2 -16  -2   12.64    0.55
  -2 -16   2   12.23    0.53
   2 -16  -2   12.03    0.50
  -2 -16   2   11.59    0.58
   2  16  -2   12.26    0.52
   1 -16  -2   17.34    0.64
  -1 -16   2   16.84    0.69
   1 -16  -2   16.95    0.68
  -1 -16   2   16.45    0.67
   0 -16   2   70.23    2.49
   0 -16  -2   73.89    2.50
   0 -16   2   78.34    2.49
   0 -16  -2   76.22    2.50
   0 -16   2   75.88    2.51
   1 -16   2    0.34    0.18
   1 -16   2    0.57    0.27
  -1 -16  -2    0.27    0.15
  -1 -16  -2    0.52    0.17
   1 -16   2    0.35    0.10
   2 -16   2   17.13    0.65
  -2 -16  -2   16.85    0.70
   2 -16   2   16.32    0.71
  -2 -16  -2   16.21    0.67
   2  16   2   17.09    0.67
  -3 -16  -2  143.35    4.78
   3 -16   2  147.00    4.79
   3  16   2  149.03    4.80
   4 -16   2    5.13    0.31
   4 -16   2    4.19    0.45
  -4 -16  -2    5.37    0.34
   4  16   2    5.38    0.33
   5 -16   2   18.68    0.73
   5 -16   2   19.04    0.74
   5  16   2   19.20    0.74
   6 -16   2    3.49    0.26
   6  16   2    3.44    0.30
   6 -17  -2    1.02    0.20
  -6 -17   2    1.80    0.31
   6  17  -2    0.79    0.21
  -5 -17   2   13.12    0.54
   5 -17  -2   11.33    0.50
   5  17  -2   11.00    0.52
   4 -17  -2   32.11    1.18
  -4 -17   2   34.10    1.18
   4  17  -2   31.17    1.19
   3 -17  -2   69.59    2.38
   3 -17  -2   71.72    2.38
  -3 -17   2   70.95    2.38
   3  17  -2   71.22    2.40
  -2 -17   2   13.75    0.58
  -2 -17   2   13.85    0.61
   2 -17  -2   13.44    0.55
   2 -17  -2   13.51    0.59
   2  17  -2   13.53    0.58
  -1 -17   2    0.08    0.15
   1 -17  -2    0.19    0.11
  -1 -17   2    0.02    0.16
   1 -17  -2    0.05    0.15
   0 -17   2   25.37    0.90
   0 -17  -2   24.28    0.92
   0 -17   2   24.25    0.92
   0 -17  -2   24.59    0.91
   0 -17   2   24.80    0.92
  -1 -17  -2    3.07    0.30
  -1 -17  -2    2.68    0.30
   1 -17   2    2.16    0.43
   1 -17   2    2.87    0.32
   1 -17   2    2.85    0.22
  -2 -17  -2   29.21    1.07
   2 -17   2   30.02    1.06
   2 -17   2   29.84    1.11
  -2 -17  -2   28.70    1.09
   2  17   2   30.45    1.08
   3 -17   2   35.64    1.23
  -3 -17  -2   34.63    1.23
   3 -17   2   32.61    1.27
   3  17   2   36.22    1.25
   4 -17   2    4.81    0.30
  -4 -17  -2    4.95    0.32
   4  17   2    4.51    0.32
  -5 -17  -2   16.25    0.61
   5 -17   2   15.45    0.61
   5 -17   2   14.90    0.64
   5  17   2   15.03    0.62
   6 -17   2   11.67    0.48
   6  17   2   11.61    0.51
  -7  18   2    2.97    0.23
  -6 -18   2    0.17    0.18
   6 -18  -2   -0.03    0.12
   6  18  -2    0.05    0.14
  -5 -18   2    9.15    0.45
   5 -18  -2    8.16    0.40
   5  18  -2    7.51    0.41
   4 -18  -2    0.77    0.19
  -4 -18   2    1.03    0.26
   4  18  -2    1.02    0.22
  -3 -18   2   18.28    0.79
  -3 -18   2   19.03    0.75
   3 -18  -2   20.31    0.75
   3 -18  -2   19.37    0.78
   3  18  -2   19.14    0.76
   2 -18  -2   11.69    0.53
   2 -18  -2   12.40    0.51
  -2 -18   2   12.63    0.53
  -2 -18   2   10.13    0.75
   2  18  -2   12.54    0.54
  -1 -18   2   10.72    0.50
  -1 -18   2   10.32    0.50
   1 -18  -2   10.31    0.49
   1 -18  -2   10.92    0.46
   0 -18   2    5.18    0.31
   0 -18   2    5.02    0.35
   0 -18  -2    4.87    0.34
   0 -18   2    4.82    0.39
   0 -18  -2    5.27    0.37
   1 -18   2    1.36    0.26
  -1 -18  -2    0.73    0.16
  -1 -18  -2    1.18    0.24
   1 -18   2    0.53    0.27
   1 -18   2    0.92    0.20
  -2 -18  -2   38.82    1.39
   2 -18   2   38.14    1.37
   2 -18   2   38.57    1.39
  -2 -18  -2   39.54    1.37
   2  18   2   41.30    1.40
   3 -18   2    0.61    0.24
  -3 -18  -2    0.32    0.14
   3 -18   2    0.45    0.12
   3  18   2    0.62    0.17
  -4 -18  -2    6.20    0.34
   4 -18   2    5.75    0.33
   4  18   2    5.49    0.35
  -5 -18  -2    7.80    0.36
   5 -18   2    7.46    0.36
   5  18   2    6.66    0.37
   6 -18   2    1.00    0.24
  -6 -19   2   -0.01    0.24
   6 -19  -2    0.00    0.12
   6  19  -2    0.02    0.14
   5 -19  -2    1.65    0.21
  -5 -19   2    0.93    0.23
   5  19  -2    1.24    0.23
   4 -19  -2   10.58    0.49
  -4 -19   2   12.32    0.52
   4  19  -2   10.73    0.51
  -3 -19   2   11.07    0.57
   3 -19  -2   12.07    0.54
  -3 -19   2   11.18    0.52
  -2 -19   2    3.60    0.34
  -2 -19   2    3.34    0.30
   2 -19  -2    3.04    0.30
   2 -19  -2    3.10    0.26
   2  19  -2    3.65    0.29
   1 -19  -2    2.35    0.26
  -1 -19   2    2.50    0.30
  -1 -19   2    1.94    0.30
   1 -19  -2    1.80    0.22
   0 -19   2   10.77    0.57
   0 -19  -2   11.98    0.52
   0 -19   2   11.22    0.53
   1 -19   2    7.33    0.41
   1 -19   2    6.23    0.53
  -1 -19  -2    6.95    0.39
   1 -19   2    6.73    0.35
  -1 -19  -2    6.68    0.39
   1  19   2    7.19    0.39
   2 -19   2    8.33    0.41
  -2 -19  -2    8.26    0.46
  -2 -19  -2    8.52    0.42
   2 -19   2    8.22    0.46
   2  19   2    9.19    0.45
   3 -19   2    0.30    0.23
  -3 -19  -2   -0.33    0.12
   3 -19   2    0.00    0.11
   3  19   2   -0.17    0.13
  -4 -19  -2    0.12    0.13
   4 -19   2    0.00    0.12
   4  19   2    0.25    0.14
   5 -19   2    7.97    0.48
  -5 -19  -2    8.70    0.38
   5  19   2    7.79    0.40
   6 -20  -2   27.74    0.98
  -6 -20   2   28.38    0.97
  -6  20   2   26.74    0.97
   6  20  -2   28.19    0.99
   5 -20  -2    7.59    0.38
  -5 -20   2    7.80    0.37
  -5  20   2    7.93    0.42
   5  20  -2    7.53    0.40
  -4 -20   2    0.09    0.14
   4 -20  -2    0.14    0.13
   4  20  -2    0.16    0.14
   3 -20  -2    7.50    0.39
   3 -20  -2    8.45    0.45
  -3 -20   2    7.22    0.46
  -3 -20   2    8.25    0.42
   3  20  -2    8.21    0.42
  -2 -20   2   36.01    1.31
  -2 -20   2   35.95    1.31
   2 -20  -2   37.76    1.30
   2 -20  -2   37.12    1.31
   2  20  -2   37.36    1.33
   1 -20  -2   76.83    2.60
  -1 -20   2   75.74    2.59
   1 -20  -2   78.89    2.59
  -1 -20   2   78.80    2.61
   0 -20   2    4.83    0.37
   0 -20  -2    4.77    0.33
   0 -20  -2    4.69    0.36
   0 -20   2    5.65    0.36
   1 -20   2    2.81    0.30
   1 -20   2    3.10    0.25
   1 -20   2    3.26    0.42
  -1 -20  -2    2.98    0.30
  -1 -20  -2    2.79    0.29
   1  20   2    2.63    0.28
  -2 -20  -2  103.63    3.37
   2 -20   2   95.40    3.36
   2 -20   2  105.33    3.38
  -2 -20  -2  103.38    3.37
   2  20   2  101.60    3.39
   3 -20   2    4.88    0.30
  -3 -20  -2    5.09    0.32
   3 -20   2    4.99    0.43
   3  20   2    5.08    0.33
  -4 -20  -2   10.28    0.45
   4 -20   2   10.66    0.46
   4  20   2   10.36    0.48
   5 -20   2    4.22    0.28
  -5 -20  -2    4.49    0.26
   5  20   2    4.76    0.31
  -6 -21   2    8.37    0.40
  -5 -21   2    5.72    0.31
   5 -21  -2    6.53    0.33
   5  21  -2    5.26    0.44
   4 -21  -2   20.91    0.83
  -4 -21   2   24.14    0.94
   4  21  -2   22.20    0.85
   3 -21  -2    3.22    0.33
  -3 -21   2    3.38    0.29
  -3 -21   2    3.32    0.35
   3 -21  -2    2.83    0.26
   3  21  -2    2.96    0.29
   2 -21  -2   65.31    2.29
  -2 -21   2   67.82    2.29
  -2 -21   2   70.17    2.30
   2 -21  -2   72.07    2.30
   2  21  -2   64.46    2.31
  -1 -21   2   36.63    1.32
  -1 -21   2   37.19    1.31
   1 -21  -2   37.02    1.31
   0 -21   2   13.52    0.58
   0 -21  -2   13.08    0.57
   0 -21  -2   13.44    0.58
   0 -21   2   13.83    0.60
   1 -21   2   54.06    1.88
  -1 -21  -2   55.81    1.88
   1 -21   2   53.07    1.90
   1 -21   2   57.51    1.89
  -1 -21  -2   55.94    1.88
   1  21   2   53.51    1.89
   2 -21   2   33.96    1.14
  -2 -21  -2   31.17    1.12
  -2 -21  -2   31.79    1.12
   2 -21   2   28.29    1.10
   2  21   2   29.78    1.12
   3 -21   2   -0.08    0.12
  -3 -21  -2   -0.05    0.12
   3  21   2    0.01    0.14
  -4 -21  -2    3.80    0.25
   4 -21   2    3.72    0.27
   4  21   2    3.81    0.30
  -5 -21  -2    0.08    0.11
   5 -21   2   -0.12    0.14
   5  21   2    0.01    0.17
  -5 -22   2    0.15    0.11
   5 -22  -2   -0.02    0.13
   5  22  -2    0.01    0.13
  -4 -22   2   -0.07    0.11
   4 -22  -2    0.15    0.13
   4  22  -2    0.22    0.14
   3 -22  -2    0.39    0.14
   3 -22  -2    0.56    0.17
  -3 -22   2    0.63    0.19
  -3 -22   2    0.42    0.14
   3  22  -2    0.91    0.23
  -2 -22   2   26.26    0.96
   2 -22  -2   26.86    0.97
   2 -22  -2   24.68    0.96
  -2 -22   2   27.62    0.98
   2  22  -2   25.46    0.99
  -1 -22   2    0.77    0.17
  -1 -22   2    1.07    0.25
   1 -22  -2    0.97    0.25
   1  22  -2    0.42    0.15
   0 -22  -2    6.78    0.38
   0 -22   2    6.30    0.38
   0 -22   2    6.23    0.40
   0 -22  -2    6.04    0.40
  -1 -22  -2    6.93    0.37
   1 -22   2    6.78    0.38
  -1 -22  -2    6.67    0.37
   1  22   2    6.08    0.37
  -2 -22  -2    4.71    0.35
   2 -22   2    4.56    0.30
  -2 -22  -2    4.94    0.30
   2 -22   2    4.99    0.34
   2  22   2    4.72    0.33
   3 -22   2    0.84    0.21
   3 -22   2    0.80    0.20
   3  22   2    1.28    0.24
  -4 -22  -2    4.40    0.25
   4 -22   2    4.13    0.27
   4  22   2    4.19    0.31
  -5 -22  -2    0.20    0.12
  -5 -23   2    5.54    0.27
   5 -23  -2    5.19    0.31
   5  23  -2    5.57    0.32
  -4 -23   2    7.71    0.35
   4 -23  -2    7.67    0.38
   4  23  -2    7.26    0.38
   3 -23  -2   41.69    1.48
  -3 -23   2   37.13    1.58
  -3 -23   2   44.18    1.48
   3 -23  -2   47.24    1.48
   3  23  -2   43.11    1.50
   2 -23  -2    9.59    0.46
  -2 -23   2    9.45    0.46
  -2 -23   2    9.56    0.44
   2  23  -2    9.12    0.46
  -1 -23   2   15.73    0.63
  -1 -23   2   15.46    0.64
   1 -23  -2   15.75    0.63
   1  23  -2   14.58    0.64
   0 -23  -2    5.75    0.34
   0 -23   2    5.14    0.38
   0 -23  -2    5.09    0.36
   0 -23   2    5.37    0.34
   1 -23   2   41.99    1.45
  -1 -23  -2   42.32    1.44
  -1 -23  -2   41.61    1.43
   1  23   2   38.96    1.45
  -2 -23  -2   24.74    0.86
   2 -23   2   22.01    0.86
   2  23   2   22.79    0.88
   3 -23   2    1.45    0.21
  -3 -23  -2    1.45    0.19
   3 -23   2    1.46    0.31
   3  23   2    1.01    0.24
  -4 -23  -2    7.66    0.33
   4 -23   2    7.59    0.36
   4  23   2    7.20    0.39
  -5 -23  -2    1.68    0.16
  -5 -24   2    2.91    0.19
  -4 -24   2    0.50    0.11
   4 -24  -2    0.37    0.14
   4  24  -2    0.42    0.14
   3 -24  -2   13.58    0.55
  -3 -24   2   13.14    0.53
  -3 -24   2   12.84    0.56
   3  24  -2   13.10    0.56
  -2 -24   2   25.80    1.08
   2 -24  -2   28.15    1.03
   2  24  -2   25.24    0.98
  -1 -24   2   49.28    1.65
  -1 -24   2   49.76    1.64
   1 -24  -2   48.58    1.65
   1  24  -2   43.78    1.66
   0 -24   2    6.70    0.37
   0 -24  -2    6.58    0.36
   0  24   2    6.40    0.37
   1 -24   2    3.63    0.28
  -1 -24  -2    3.00    0.27
   1  24   2    3.32    0.29
  -2 -24  -2    2.63    0.24
  -2 -24  -2    3.20    0.28
   2 -24   2    3.43    0.28
   2  24   2    3.48    0.29
   3 -24   2   20.58    0.76
   3 -24   2   19.35    0.75
  -3 -24  -2   20.65    0.74
   3  24   2   19.90    0.76
   4 -24   2   12.74    0.52
  -4 -24  -2   13.38    0.49
   4  24   2   12.91    0.56
  -5 -25   2    4.72    0.23
  -4 -25   2    4.02    0.22
   4  25  -2    4.01    0.29
  -3 -25   2    8.21    0.37
  -3 -25   2    8.08    0.40
   3 -25  -2    8.25    0.39
   3  25  -2    8.28    0.41
  -2 -25   2    8.95    0.40
  -2 -25   2    8.49    0.42
   2 -25  -2    9.78    0.42
   2  25  -2    9.13    0.44
   1 -25  -2    1.52    0.21
  -1 -25   2    1.65    0.21
  -1 -25   2    1.66    0.24
   1  25  -2    1.32    0.23
   0 -25   2    2.58    0.24
   0 -25  -2    2.43    0.23
   0 -25   2    1.97    0.29
   0 -25  -2    1.96    0.28
   0  25   2    2.44    0.27
  -1 -25  -2   23.88    0.88
   1 -25   2   24.40    0.89
  -1 -25  -2   23.80    0.88
   1  25   2   24.65    0.91
  -2 -25  -2    2.71    0.25
  -2 -25  -2    2.79    0.23
   2 -25   2    3.12    0.26
  -3 -25  -2    1.05    0.16
   3  25   2    1.14    0.25
  -4 -25  -2    0.65    0.14
  -3 -26   2    0.14    0.09
   3 -26  -2    0.36    0.13
   3  26  -2    0.07    0.14
  -2 -26   2    0.12    0.11
  -2 -26   2    0.37    0.12
   2 -26  -2    0.27    0.12
   2  26  -2    0.47    0.18
   1 -26  -2    0.23    0.11
  -1 -26   2    0.17    0.11
  -1 -26   2   -0.02    0.12
  -1  26   2    0.00    0.15
   1  26  -2   -0.03    0.14
   0 -26  -2    2.67    0.22
   0 -26   2    2.91    0.23
   0 -26  -2    2.33    0.29
   0 -26   2    2.44    0.28
   0  26   2    2.70    0.27
   0  26  -2    2.87    0.26
  -1 -26  -2    0.15    0.13
   1 -26   2    0.34    0.12
  -1 -26  -2    0.12    0.12
   1  26   2    0.11    0.16
   2 -26   2    4.46    0.28
  -2 -26  -2    4.38    0.28
  -2 -26  -2    4.66    0.25
   2  26   2    4.78    0.32
  -3 -26  -2    0.30    0.09
  -4 -26  -2    2.43    0.16
  -4 -27   2   13.13    0.47
  -3 -27   2    8.23    0.47
   3 -27  -2    9.47    0.40
  -3 -27   2    9.16    0.36
   3  27  -2    9.06    0.42
  -2 -27   2    0.58    0.12
  -2 -27   2    0.62    0.16
   2 -27  -2    0.72    0.16
   2  27  -2    0.61    0.15
   1 -27  -2    1.78    0.18
  -1 -27   2    1.53    0.21
  -1 -27   2    1.69    0.19
  -1  27   2    1.48    0.25
   1  27  -2    2.05    0.25
   0 -27   2    4.96    0.27
   0 -27  -2    5.04    0.27
   0  27   2    4.84    0.32
   0  27  -2    4.26    0.30
   1 -27   2   20.56    0.74
  -1 -27  -2   19.60    0.72
  -1 -27  -2   20.62    0.73
  -1  27  -2   20.73    0.76
   1  27   2   19.41    0.76
  -2 -27  -2    3.74    0.25
  -2 -27  -2    3.69    0.21
   2  27   2    3.51    0.32
  -3 -27  -2    1.08    0.14
  -3 -28   2    0.09    0.08
   2 -28  -2    2.83    0.26
  -2 -28   2    2.60    0.22
   2  28  -2    2.41    0.26
   1 -28  -2   23.54    0.82
  -1 -28   2   22.38    0.82
  -1 -28   2   23.77    0.83
  -1  28   2   23.97    0.86
   1  28  -2   23.22    0.85
   0 -28   2    5.65    0.28
   0 -28  -2    5.66    0.27
   0  28  -2    6.01    0.33
   0  28   2    5.45    0.35
   1 -28   2    4.24    0.23
  -1 -28  -2    4.24    0.26
  -1 -28  -2    3.97    0.23
  -1  28  -2    3.46    0.29
   1  28   2    3.35    0.35
   2 -28   2    4.57    0.27
  -2 -28  -2    4.70    0.23
  -2 -28  -2    4.44    0.31
  -2 -29   2    0.13    0.12
   2 -29  -2    0.22    0.10
  -2 -29   2    0.04    0.11
  -1 -29   2    4.51    0.41
   1 -29  -2    5.41    0.26
  -1 -29   2    5.11    0.25
  -1 -29  -2    1.42    0.17
   1 -29   2    1.87    0.16
  -1 -30   2    0.60    0.15
   1 -30  -2    0.56    0.14
   0 -30  -2    2.68    0.18
   0 -30   2    2.96    0.17
  -9   0   3    0.05    0.09
  -8   0   3   -0.05    0.11
   8   0  -3    0.10    0.14
   7   0  -3   -0.14    0.12
   7   0  -3    0.26    0.21
   6   0  -3    0.06    0.12
   6   0  -3    0.28    0.22
   5   0  -3    0.35    0.25
   4   0  -3   -0.18    0.14
   4   0  -3   -0.03    0.09
   3   0  -3    0.05    0.06
  -3   0   3    0.09    0.08
   2   0  -3    0.04    0.04
  -2   0   3    0.00    0.05
   1   0  -3    0.01    0.03
  -1   0   3    0.05    0.04
   0   0  -3    0.04    0.03
   0   0   3    0.01    0.03
  -1   0  -3    0.03    0.03
   3   0   3    0.07    0.10
   4   0   3    0.14    0.19
   4   0   3    0.14    0.12
   4   0   3   -0.02    0.20
   5   0   3    0.45    0.17
   5   0   3    0.38    0.19
   5   0   3    0.02    0.14
   6   0   3   -0.06    0.15
   6   0   3    0.20    0.15
   6   0   3   -0.10    0.14
   7   0   3    0.11    0.13
   7   0   3   -0.05    0.16
   7   0   3    0.12    0.13
   8   0   3   -0.25    0.13
  -9  -1   3    0.12    0.09
  -9   1   3    0.13    0.09
   8  -1  -3    0.12    0.14
  -8  -1   3   -0.01    0.11
  -8   1   3    0.14    0.11
   8   1  -3    0.12    0.15
   7  -1  -3   20.35    0.80
   7  -1  -3   21.51    0.84
   7   1  -3   22.00    0.84
   7   1  -3   20.19    0.80
   6  -1  -3   16.14    0.70
   6  -1  -3   15.87    0.64
   6   1  -3   15.84    0.72
   6   1  -3   16.21    0.65
   5  -1  -3   37.23    1.28
   5  -1  -3   36.96    1.33
   5   1  -3   36.35    1.27
   5   1  -3   36.52    1.34
   4  -1  -3    8.56    0.42
  -4  -1   3    7.17    0.47
   4  -1  -3    8.46    0.36
   4   1  -3    8.54    0.42
   4   1  -3    8.37    0.36
  -3  -1   3   18.19    0.67
   3   1  -3   18.81    0.67
  -3   1   3   18.14    0.68
   2  -1  -3   19.49    0.69
  -2  -1   3   20.62    0.70
   2   1  -3   20.02    0.70
  -2   1   3   19.53    0.70
   1  -1  -3   13.34    0.47
  -1  -1   3   13.52    0.48
   1   1  -3   13.19    0.48
  -1   1   3   14.03    0.48
   0  -1  -3  597.34   20.39
   0  -1   3  661.33   20.43
   0   1  -3  615.92   20.44
   0   1   3  664.68   20.43
  -1  -1  -3  861.30   28.11
  -1   1  -3  925.10   28.20
  -1   1  -3  849.44   28.17
  -2   1  -3   27.34    0.90
  -2   1  -3   27.36    0.90
   3  -1   3   27.05    0.95
   3   1   3   27.64    0.95
   4  -1   3    0.36    0.12
   4  -1   3    0.57    0.21
   4  -1   3    0.11    0.17
   4   1   3    0.15    0.18
   4   1   3    0.11    0.12
   4   1   3    0.24    0.20
   5  -1   3   18.39    0.74
   5  -1   3   17.16    0.73
   5  -1   3   17.70    0.70
   5   1   3   17.54    0.75
   5   1   3   18.84    0.71
   5   1   3   18.18    0.74
   6  -1   3   20.97    0.83
   6  -1   3   21.53    0.84
   6  -1   3   22.81    0.86
   6   1   3   21.47    0.84
   6   1   3   23.45    0.86
   6   1   3   20.34    0.82
   7  -1   3    0.33    0.13
   7  -1   3   -0.02    0.16
   7  -1   3    0.08    0.13
   7   1   3    0.25    0.16
   7   1   3    0.33    0.15
   7   1   3    0.41    0.13
   8  -1   3    0.14    0.12
   8   1   3   -0.09    0.17
   8  -2  -3   12.49    0.52
  -8  -2   3   12.53    0.50
   8   2  -3   11.92    0.52
  -8   2   3   12.27    0.50
   7  -2  -3    4.27    0.30
   7  -2  -3    5.12    0.38
   7   2  -3    5.56    0.44
   7   2  -3    4.12    0.30
   6  -2  -3    0.77    0.15
   6  -2  -3    1.11    0.22
   6   2  -3    0.74    0.26
   6   2  -3    0.86    0.21
   5  -2  -3   42.78    1.50
   5  -2  -3   42.86    1.46
   5   2  -3   40.95    1.52
   5   2  -3   43.12    1.46
  -4  -2   3   44.85    1.72
   4  -2  -3   51.08    1.72
   4  -2  -3   51.39    1.67
   4   2  -3   51.19    1.67
   4   2  -3   50.89    1.72
   3  -2  -3   17.58    0.63
  -3  -2   3   16.95    0.63
  -3   2   3   16.63    0.64
   3   2  -3   17.45    0.63
   3   2  -3   16.58    0.62
   2  -2  -3   26.19    0.91
  -2  -2   3   27.17    0.91
  -2   2   3   26.29    0.92
   2   2  -3   27.05    0.91
  -1  -2   3   48.33    1.54
   1  -2  -3   44.46    1.53
   1   2  -3   45.51    1.54
  -1   2   3   48.38    1.54
   0  -2   3  601.57   19.52
   0  -2  -3  581.95   19.46
   0   2  -3  597.96   19.53
   0   2   3  641.33   19.49
  -1   2  -3  801.28   24.87
  -1   2  -3  746.65   24.86
  -2   2  -3   71.26    2.28
  -2   2  -3   69.46    2.28
   3  -2   3   48.23    1.60
   3   2   3   47.29    1.60
   4  -2   3    7.51    0.44
   4  -2   3    7.89    0.37
   4  -2   3    8.48    0.46
   4   2   3    7.72    0.37
   4   2   3    8.00    0.47
   4   2   3    7.87    0.46
   5  -2   3   32.56    1.21
   5  -2   3   32.50    1.20
   5  -2   3   32.96    1.18
   5   2   3   33.34    1.21
   5   2   3   33.13    1.22
   5   2   3   34.71    1.19
   6  -2   3   14.92    0.64
   6  -2   3   14.37    0.61
   6  -2   3   15.57    0.63
   6   2   3   14.69    0.63
   6   2   3   14.80    0.65
   6   2   3   14.34    0.61
   7  -2   3    5.82    0.32
   7  -2   3    5.74    0.32
   7  -2   3    5.21    0.34
   7   2   3    5.54    0.33
   7   2   3    5.54    0.31
   7   2   3    6.26    0.37
   8  -2   3    2.84    0.21
   8  -3  -3    5.86    0.33
  -8  -3   3    6.25    0.31
  -8   3   3    5.71    0.30
   8   3  -3    5.85    0.33
   7  -3  -3    3.28    0.34
   7  -3  -3    3.13    0.28
   7   3  -3    3.61    0.45
   7   3  -3    3.56    0.28
   6  -3  -3   15.50    0.68
   6  -3  -3   16.28    0.64
   6   3  -3   14.46    0.73
   6   3  -3   16.27    0.64
   5  -3  -3   13.62    0.53
   5  -3  -3   12.67    0.59
   5   3  -3   11.82    0.69
   5   3  -3   12.96    0.53
   4  -3  -3  171.64    5.32
  -4  -3   3  151.44    5.36
   4  -3  -3  165.14    5.37
   4   3  -3  164.69    5.32
   4   3  -3  168.67    5.36
   3  -3  -3   16.30    0.60
  -3  -3   3   16.36    0.60
   3  -3  -3   14.79    0.57
   3   3  -3   15.07    0.58
  -3   3   3   15.84    0.61
   3   3  -3   16.65    0.60
   2  -3  -3   16.81    0.60
  -2  -3   3   17.31    0.60
   2   3  -3   16.79    0.60
  -2   3   3   16.62    0.61
  -1  -3   3  257.41    8.05
   1  -3  -3  235.49    8.07
  -1   3   3  269.53    8.10
   1   3  -3  240.96    8.05
   0  -3  -3  114.33    3.88
   0  -3   3  124.04    3.89
   0   3   3  126.56    3.88
   0   3  -3  117.38    3.89
  -1   3  -3   89.97    2.85
  -1   3  -3   85.92    2.85
  -2   3  -3    5.98    0.24
  -2   3  -3    5.55    0.25
   3  -3   3    6.06    0.30
  -3   3  -3    6.53    0.34
   3   3   3    6.32    0.31
  -3   3  -3    5.88    0.29
   4  -3   3    1.33    0.20
   4  -3   3    1.42    0.29
   4  -3   3    1.50    0.32
   4   3   3    1.31    0.33
   4   3   3    1.36    0.36
   5  -3   3    6.59    0.41
   5  -3   3    6.23    0.35
   5  -3   3    6.58    0.40
   5   3   3    6.32    0.40
   5   3   3    6.93    0.37
   5   3   3    6.84    0.43
   6  -3   3    0.08    0.14
   6  -3   3    0.45    0.16
   6  -3   3    0.20    0.17
   6   3   3    0.05    0.15
   6   3   3    0.20    0.18
   6   3   3    0.20    0.16
   7  -3   3    7.68    0.40
   7  -3   3    7.16    0.37
   7  -3   3    7.35    0.36
   7   3   3    7.83    0.39
   7   3   3    7.47    0.37
   7   3   3    7.38    0.40
   8  -3   3    0.06    0.11
  -8  -4   3   23.36    0.84
   8  -4  -3   22.99    0.86
   8   4  -3   24.40    0.87
  -8   4   3   22.98    0.84
   7  -4  -3    8.75    0.43
   7  -4  -3    8.84    0.46
   7   4  -3    8.54    0.43
   7   4  -3    8.51    0.59
   6  -4  -3    7.03    0.41
   6  -4  -3    6.19    0.35
   6   4  -3    6.32    0.56
   6   4  -3    6.62    0.36
   5  -4  -3   31.50    1.14
   5  -4  -3   32.99    1.11
   5   4  -3   32.89    1.12
   5   4  -3   27.87    1.36
   4  -4  -3    3.93    0.24
   4  -4  -3    4.08    0.36
   4   4  -3    3.93    0.34
   4   4  -3    3.78    0.24
   3  -4  -3  188.90    5.95
   3  -4  -3  186.89    5.92
  -3  -4   3  185.54    5.95
   3   4  -3  168.03    5.98
  -3   4   3  189.06    5.97
   3   4  -3  183.52    5.92
  -2  -4   3  189.36    5.91
   2  -4  -3  178.33    5.90
   2   4  -3  175.10    5.91
  -2   4   3  189.37    5.92
   1  -4  -3   99.75    3.36
  -1   4   3  105.75    3.37
   1   4  -3  106.07    3.37
   0  -4  -3    0.60    0.06
   0   4   3    0.65    0.07
   0   4  -3    0.58    0.08
  -1   4  -3   10.88    0.41
  -1   4  -3   11.52    0.42
   2  -4   3  117.79    3.55
  -2   4  -3  109.65    3.50
  -2   4  -3   96.50    3.56
   3  -4   3   89.95    2.97
   3   4   3   90.21    2.97
  -3   4  -3   92.37    2.97
   4  -4   3   36.76    1.30
   4  -4   3   37.66    1.34
   4  -4   3   37.42    1.34
   4   4   3   39.03    1.35
   4   4   3   37.67    1.36
   4   4   3   37.85    1.31
   5  -4   3   11.94    0.56
   5  -4   3   12.22    0.57
   5  -4   3   11.74    0.52
   5   4   3   12.10    0.59
   5   4   3   12.91    0.57
   5   4   3   12.35    0.53
   6  -4   3    6.48    0.38
   6  -4   3    7.65    0.41
   6  -4   3    7.07    0.40
   6   4   3    6.45    0.38
   6   4   3    6.92    0.42
   6   4   3    7.22    0.40
   7  -4   3    1.80    0.22
   7  -4   3    1.98    0.22
   7  -4   3    1.77    0.26
   7   4   3    1.92    0.28
   7   4   3    1.96    0.26
   7   4   3    1.83    0.23
   8  -4   3    0.07    0.11
  -8  -5   3    1.96    0.20
   8  -5  -3    1.39    0.23
   8   5  -3    1.26    0.24
  -8   5   3    1.57    0.20
   7  -5  -3    5.60    0.34
   7  -5  -3    6.56    0.39
   7   5  -3    6.19    0.35
   6  -5  -3   14.62    0.58
   6  -5  -3   13.08    0.61
   6   5  -3   13.72    0.59
   5  -5  -3    8.80    0.48
   5  -5  -3    9.72    0.41
   5   5  -3    8.87    0.41
   4  -5  -3   37.34    1.37
   4  -5  -3   38.78    1.30
   4   5  -3   37.39    1.30
   4   5  -3   38.51    1.36
   3  -5  -3   26.94    0.92
   3  -5  -3   26.02    0.89
  -3  -5   3   24.73    0.92
   3   5  -3   26.53    0.92
   3   5  -3   24.94    0.89
  -3   5   3   25.22    0.94
   2  -5  -3    3.55    0.19
  -2  -5   3    3.64    0.20
   2   5  -3    3.70    0.20
   1  -5  -3  110.49    3.79
  -1  -5   3  124.51    3.80
  -1   5   3  117.40    3.80
   1   5  -3  116.16    3.80
   0  -5  -3    3.29    0.15
   0   5  -3    3.57    0.17
   0   5   3    3.50    0.16
  -1   5  -3   75.37    2.44
  -1   5  -3   71.59    2.44
   1   5   3   76.71    2.40
   2  -5   3    0.54    0.11
   2   5   3    0.46    0.13
  -2   5  -3    0.88    0.16
  -2   5  -3    0.50    0.13
   3  -5   3    2.69    0.21
  -3   5  -3    2.86    0.27
   3   5   3    3.00    0.23
   4  -5   3   29.86    1.13
   4  -5   3   30.68    1.09
   4  -5   3   31.39    1.13
   4   5   3   30.52    1.15
   4   5   3   31.15    1.14
   4   5   3   31.67    1.10
   5  -5   3   29.11    1.09
   5  -5   3   30.17    1.06
   5  -5   3   28.49    1.08
   5   5   3   28.68    1.08
   5   5   3   30.26    1.07
   5   5   3   28.75    1.10
   6  -5   3    5.07    0.33
   6  -5   3    5.47    0.36
   6  -5   3    4.85    0.35
   6   5   3    4.65    0.38
   6   5   3    4.72    0.33
   6   5   3    5.02    0.35
   7  -5   3   10.41    0.44
   7  -5   3    9.61    0.46
   7   5   3   10.13    0.47
   7   5   3    9.75    0.46
   8  -6  -3   15.01    0.60
  -8  -6   3   15.88    0.58
  -8   6   3   15.66    0.58
   8   6  -3   14.69    0.61
   7  -6  -3    1.49    0.22
   7  -6  -3    1.69    0.28
   7   6  -3    1.53    0.23
   6  -6  -3   16.49    0.72
   6  -6  -3   18.42    0.70
   6   6  -3   17.61    0.70
   5  -6  -3    5.84    0.32
   5  -6  -3    6.06    0.40
   5   6  -3    5.92    0.32
   4  -6  -3    0.28    0.19
   4  -6  -3   -0.11    0.16
   4  -6  -3    0.01    0.20
   4   6  -3    0.16    0.19
   4   6  -3   -0.01    0.11
  -3  -6   3    5.01    0.30
   3  -6  -3    5.26    0.29
   3  -6  -3    5.08    0.26
  -3   6   3    4.49    0.32
   3   6  -3    5.17    0.29
   3   6  -3    4.81    0.26
   2  -6  -3    3.59    0.21
  -2  -6   3    3.76    0.21
   2   6  -3    3.28    0.20
  -2   6   3    3.50    0.21
   1  -6  -3   30.66    1.03
   1   6  -3   29.84    1.04
  -1   6   3   31.06    1.04
   0  -6  -3    9.52    0.37
   0   6   3   10.83    0.38
   0   6  -3    9.90    0.39
   1   6   3   94.03    2.93
  -1   6  -3   87.15    2.97
  -1   6  -3   91.69    2.98
   2  -6   3  133.87    4.44
  -2   6  -3  136.78    4.47
   2   6   3  139.14    4.45
  -2   6  -3  139.99    4.47
   3  -6   3   12.61    0.50
   3   6   3   13.51    0.52
  -3   6  -3   12.43    0.56
   4  -6   3    0.89    0.20
   4  -6   3    0.53    0.22
   4  -6   3    0.69    0.18
  -4  -6  -3    0.49    0.24
   4   6   3    0.81    0.21
   4   6   3    1.05    0.26
   4   6   3    0.58    0.14
   5  -6   3    5.54    0.33
   5  -6   3    5.04    0.38
   5  -6   3    5.40    0.37
   5   6   3    5.05    0.34
   5   6   3    5.64    0.43
   5   6   3    5.53    0.39
   6  -6   3    0.38    0.17
   6  -6   3    0.51    0.17
   6  -6   3    0.45    0.16
   6   6   3    0.59    0.21
   6   6   3    0.57    0.17
   6   6   3    0.39    0.16
   7  -6   3    3.23    0.29
   7  -6   3    2.76    0.23
   7   6   3    2.59    0.30
   7   6   3    2.79    0.31
  -8  -7   3    2.03    0.19
   8  -7  -3    1.57    0.24
  -8   7   3    1.77    0.21
   8   7  -3    1.68    0.24
   7  -7  -3    6.28    0.37
  -7  -7   3    5.76    0.34
   7  -7  -3    5.27    0.33
   7   7  -3    5.31    0.34
  -7   7   3    6.34    0.35
   6  -7  -3    0.13    0.18
   6  -7  -3    0.81    0.21
   6   7  -3    0.62    0.17
   5  -7  -3   14.04    0.62
   5  -7  -3   14.70    0.59
   5   7  -3   15.25    0.59
   4  -7  -3    5.10    0.38
   4  -7  -3    5.42    0.28
   4   7  -3    4.89    0.45
   4   7  -3    5.83    0.29
  -3  -7   3  164.62    5.50
   3  -7  -3  169.88    5.46
   3  -7  -3  172.37    5.51
   3   7  -3  167.28    5.47
   3   7  -3  171.42    5.51
   2  -7  -3   35.03    1.19
  -2  -7   3   33.61    1.18
  -2   7   3   34.70    1.20
   1  -7  -3   51.21    1.71
  -1   7   3   52.47    1.72
   1   7  -3   51.24    1.73
   0  -7  -3    2.45    0.14
   0   7   3    2.67    0.15
   0   7  -3    2.46    0.16
  -1   7  -3    0.79    0.13
  -1   7  -3    1.01    0.14
   1   7   3    0.76    0.09
   2  -7   3   16.02    0.59
   2   7   3   16.19    0.60
  -2   7  -3   15.59    0.64
  -2   7  -3   16.27    0.62
   3  -7   3    8.70    0.53
   3   7   3   11.88    0.45
  -3   7  -3   10.30    0.55
   4  -7   3   13.65    0.55
  -4  -7  -3   12.65    0.61
   4  -7   3   12.99    0.62
   4  -7   3   13.53    0.60
   4   7   3   13.50    0.67
   4   7   3   14.01    0.55
   4   7   3   13.72    0.62
   5  -7   3    3.11    0.33
   5  -7   3    2.27    0.24
   5  -7   3    2.38    0.30
   5   7   3    2.60    0.27
   5   7   3    2.48    0.34
   5   7   3    2.43    0.39
   6  -7   3    9.07    0.44
   6  -7   3    9.99    0.46
   6  -7   3    8.68    0.46
   6   7   3    8.90    0.47
   6   7   3   10.08    0.51
   6   7   3    8.65    0.44
   7  -7   3    0.76    0.17
   7  -7   3    0.78    0.18
   7   7   3    0.69    0.28
   7   7   3    0.51    0.19
  -8  -8   3   18.28    0.67
   8  -8  -3   18.68    0.71
  -8   8   3   18.75    0.68
   8   8  -3   19.48    0.71
   7  -8  -3   44.82    1.48
   7  -8  -3   41.14    1.46
  -7  -8   3   45.64    1.57
   7   8  -3   40.94    1.47
  -7   8   3   38.34    1.48
   6  -8  -3    1.84    0.29
   6  -8  -3    1.73    0.25
   6   8  -3    1.90    0.25
   5  -8  -3    5.23    0.38
   5  -8  -3    6.12    0.32
   5   8  -3    5.65    0.32
   4  -8  -3    3.27    0.35
   4  -8  -3    3.62    0.24
   4   8  -3    4.49    0.26
   4   8  -3    3.41    0.49
   3  -8  -3   98.37    3.18
   3  -8  -3   96.28    3.12
   3   8  -3   94.59    3.17
   3   8  -3   93.11    3.13
   2  -8  -3  314.40   10.21
   2  -8  -3  313.32   10.17
   2   8  -3  318.65   10.18
   2   8  -3  317.40   10.21
  -2   8   3  320.76   10.22
   1  -8  -3   23.05    0.82
  -1   8   3   24.00    0.84
   0  -8  -3  321.31   10.69
   0   8  -3  334.75   10.72
   0   8  -3  332.10   10.72
   0   8   3  344.37   10.70
   1  -8   3  125.22    4.31
  -1   8  -3  133.31    4.35
   1   8   3  140.67    4.31
  -1   8  -3  134.55    4.36
   2  -8   3   98.28    3.18
   2   8   3  100.49    3.19
  -2   8  -3   91.45    3.23
  -2   8  -3   99.94    3.23
   3  -8   3  167.43    5.33
   3  -8   3  158.70    5.35
   3   8   3  168.94    5.33
  -3   8  -3  161.94    5.39
  -4  -8  -3   72.98    2.47
   4  -8   3   74.91    2.49
   4  -8   3   70.49    2.48
   4  -8   3   75.04    2.47
   4   8   3   72.18    2.48
   4   8   3   76.32    2.47
   4   8   3   75.28    2.51
   5  -8   3    8.36    0.44
  -5  -8  -3    8.12    0.51
   5  -8   3    8.38    0.46
   5   8   3    8.20    0.47
   5   8   3    7.65    0.52
   6  -8   3    7.87    0.42
   6  -8   3    9.50    0.45
   6   8   3    8.50    0.43
   6   8   3    9.10    0.45
   7  -8   3   12.58    0.54
   7  -8   3   12.77    0.51
   7   8   3   13.13    0.56
   8  -9  -3   -0.07    0.14
  -8   9   3    0.32    0.17
   8   9  -3   -0.01    0.15
   7  -9  -3    1.20    0.22
   7  -9  -3    1.31    0.27
  -7  -9   3    1.33    0.24
  -7   9   3    1.02    0.19
   7   9  -3    1.39    0.23
   6  -9  -3   20.93    0.82
   6  -9  -3   20.68    0.80
   6   9  -3   20.58    0.80
   5  -9  -3   36.92    1.27
   5  -9  -3   35.15    1.28
   5   9  -3   35.77    1.27
   4  -9  -3    0.93    0.21
  -4  -9   3    0.82    0.25
   4  -9  -3    0.74    0.17
   4   9  -3    0.89    0.19
   3  -9  -3    4.25    0.33
   3  -9  -3    4.77    0.25
   3   9  -3    4.07    0.27
   3   9  -3    4.49    0.36
   2  -9  -3    3.38    0.22
   2  -9  -3    3.38    0.22
  -2   9   3    3.36    0.28
   2   9  -3    3.07    0.25
   2   9  -3    3.15    0.23
   1  -9  -3   80.70    2.70
   1   9  -3   81.87    2.72
  -1   9   3   83.57    2.72
   0  -9  -3   93.69    3.14
   0  -9   3   94.82    3.15
   0   9  -3   94.66    3.17
   0   9  -3   98.93    3.18
   0   9   3   99.77    3.16
   1  -9   3   97.27    3.21
   1   9   3   99.18    3.20
  -1   9  -3   98.57    3.26
   1   9   3   97.05    3.21
  -1   9  -3  100.95    3.25
   2  -9   3   48.74    1.65
   2   9   3   49.81    1.66
  -2   9  -3   49.74    1.71
   3  -9   3   24.88    0.96
   3  -9   3   25.72    0.90
  -3   9  -3   23.72    1.06
   3   9   3   25.72    0.90
   4  -9   3    4.90    0.44
   4  -9   3    5.21    0.30
  -4  -9  -3    5.32    0.38
   4  -9   3    4.76    0.38
   4   9   3    4.85    0.44
   4   9   3    5.01    0.31
   4   9   3    4.88    0.52
   5  -9   3   77.01    2.45
   5  -9   3   70.49    2.43
  -5  -9  -3   70.48    2.43
   5  -9   3   71.32    2.43
   5   9   3   73.60    2.46
   5   9   3   73.61    2.44
   5   9   3   70.52    2.44
   6  -9   3   12.89    0.57
   6  -9   3   13.62    0.59
   6  -9   3   14.28    0.69
   6   9   3   13.63    0.58
   6   9   3   14.55    0.71
   6   9   3   14.03    0.65
   7  -9   3    7.10    0.33
   7  -9   3    7.20    0.39
   7   9   3    7.34    0.43
   8 -10  -3    0.65    0.17
  -8 -10   3    1.19    0.22
   8  10  -3    0.58    0.17
   7 -10  -3    0.03    0.12
  -7 -10   3    0.38    0.16
   7  10  -3    0.02    0.14
  -7  10   3    0.10    0.19
  -6 -10   3    3.20    0.32
   6 -10  -3    2.60    0.25
   6 -10  -3    2.91    0.31
   6  10  -3    2.68    0.27
  -6  10   3    2.79    0.37
   5 -10  -3    1.39    0.28
   5 -10  -3    0.51    0.14
  -5 -10   3    0.83    0.30
   5  10  -3    0.85    0.21
   4 -10  -3    0.38    0.12
  -4 -10   3    0.21    0.22
   4 -10  -3    0.55    0.19
   4  10  -3    0.38    0.12
   3 -10  -3   97.61    3.06
   3 -10  -3   91.49    2.91
   3  10  -3   83.15    2.92
   3  10  -3   83.21    2.98
   2 -10  -3   39.82    1.36
   2 -10  -3   40.76    1.41
   2  10  -3   40.54    1.42
   2  10  -3   40.99    1.38
   1 -10  -3    9.77    0.41
   1 -10  -3    9.48    0.40
   1  10  -3   10.49    0.44
   1  10  -3    9.30    0.44
  -1  10   3    9.68    0.44
   0 -10  -3    7.27    0.32
   0 -10  -3    6.97    0.32
   0 -10   3    6.66    0.31
   0  10   3    7.34    0.34
   0  10  -3    6.44    0.37
   1 -10   3  167.04    5.40
   1  10   3  164.44    5.41
   1  10   3  166.64    5.41
  -1  10  -3  171.10    5.46
   2 -10   3    0.88    0.17
   2  10   3    0.62    0.14
   3 -10   3    4.78    0.27
  -3 -10  -3    4.31    0.34
   3 -10   3    3.55    0.43
   3  10   3    5.94    0.78
   3  10   3    4.79    0.28
   3  10   3    5.20    0.61
   4 -10   3    1.87    0.43
   4 -10   3    1.80    0.22
  -4 -10  -3    1.44    0.33
   4 -10   3    1.92    0.42
   4  10   3    1.87    0.28
   4  10   3    2.09    0.25
   4  10   3    2.06    0.52
   5 -10   3    0.85    0.17
   5 -10   3    0.65    0.23
  -5 -10  -3    1.00    0.22
   5 -10   3    1.24    0.29
   5  10   3    1.02    0.22
   5  10   3    0.61    0.16
   5  10   3    0.34    0.28
   6 -10   3    2.59    0.25
   6 -10   3    2.09    0.26
   6 -10   3    1.92    0.32
   6  10   3    2.63    0.30
   6  10   3    2.24    0.28
   7 -10   3    1.74    0.18
   7 -10   3    1.23    0.29
  -7 -11   3    2.61    0.26
   7 -11  -3    2.54    0.25
  -7  11   3    2.65    0.53
   7  11  -3    2.53    0.26
  -6 -11   3   18.60    0.73
   6 -11  -3   19.02    0.74
   6 -11  -3   17.62    0.71
   6  11  -3   17.87    0.73
  -6  11   3   18.44    0.75
  -5 -11   3    9.66    0.53
   5 -11  -3   10.85    0.51
   5 -11  -3   10.54    0.46
  -5 -11   3    9.89    0.56
   5  11  -3   10.21    0.48
  -4 -11   3    3.47    0.37
   4 -11  -3    3.46    0.35
   4 -11  -3    3.52    0.24
   4  11  -3    3.66    0.27
   3 -11  -3   22.40    0.76
   3 -11  -3   19.82    0.82
  -3 -11   3   18.72    0.81
   3  11  -3   22.61    0.78
   3  11  -3   20.80    0.89
   2 -11  -3    2.12    0.25
   2 -11  -3    1.89    0.20
   2  11  -3    2.10    0.31
   2  11  -3    2.20    0.21
   1 -11  -3    0.56    0.11
   1 -11  -3    0.56    0.13
  -1  11   3    0.94    0.26
   1  11  -3    0.48    0.14
   0 -11  -3   87.07    2.86
   0 -11  -3   86.28    2.89
   0 -11   3   83.57    2.86
   0  11  -3   91.41    2.93
   0  11   3   89.42    2.90
   1 -11   3    1.59    0.18
  -1  11  -3    1.47    0.27
   1  11   3    1.90    0.21
   1  11   3    1.68    0.24
   2 -11   3   40.08    1.36
   2  11   3   39.80    1.38
  -2  11  -3   40.16    1.48
   3 -11   3   -0.14    0.25
   3 -11   3   -0.02    0.10
  -3 -11  -3   -0.12    0.13
   3  11   3    0.11    0.12
   4 -11   3   11.19    0.55
  -4 -11  -3   10.49    0.51
   4 -11   3   10.76    0.47
   4  11   3   11.25    0.49
  -5 -11  -3   64.47    2.12
   5 -11   3   63.45    2.13
   5 -11   3   68.15    2.14
   5 -11   3   56.72    2.11
   5  11   3   64.51    2.13
   5  11   3   59.10    2.12
   6 -11   3    1.85    0.24
   6 -11   3    1.56    0.23
   6  11   3    1.70    0.27
   7 -11   3    1.51    0.18
  -7 -12   3   14.16    0.59
   7 -12  -3   15.07    0.59
   7  12  -3   15.27    0.60
   6 -12  -3   24.78    0.95
   6 -12  -3   27.96    0.98
  -6 -12   3   26.45    0.97
   6  12  -3   25.13    0.97
   5 -12  -3    0.51    0.17
   5 -12  -3    0.53    0.14
  -5 -12   3    0.69    0.29
  -5 -12   3    0.14    0.23
   5  12  -3    0.27    0.14
  -4 -12   3   33.06    1.24
   4 -12  -3   33.92    1.24
   4 -12  -3   35.73    1.22
   4  12  -3   36.68    1.24
   3 -12  -3  275.32    8.84
  -3 -12   3  272.57    8.85
   3  12  -3  275.04    8.85
   2 -12  -3   41.51    1.50
   2 -12  -3   43.55    1.43
   2  12  -3   41.51    1.53
   2  12  -3   42.17    1.44
   1 -12  -3  288.82    9.51
   1 -12  -3  295.38    9.57
   1  12  -3  303.76    9.59
   0 -12   3   89.55    2.87
   0  12   3   82.95    2.92
   0  12  -3   90.30    2.95
   1 -12   3   18.84    0.67
   1  12   3   18.39    0.68
  -1  12  -3   17.54    0.77
   2 -12   3  141.43    4.54
  -2 -12  -3  136.64    4.55
   2  12   3  140.90    4.55
   3 -12   3   18.17    0.68
  -3 -12  -3   17.76    0.70
   3 -12   3   17.15    0.77
   3  12   3   17.59    0.69
   4 -12   3   41.68    1.50
  -4 -12  -3   41.85    1.49
   4 -12   3   42.97    1.48
   4  12   3   44.27    1.50
  -5 -12  -3    0.16    0.17
   5 -12   3    0.24    0.14
   5 -12   3    0.30    0.18
   5  12   3    0.11    0.15
   5  12   3    0.49    0.25
   6 -12   3    0.89    0.17
   6 -12   3    0.91    0.23
   6  12   3    0.99    0.25
   7 -12   3    9.74    0.40
   7 -13  -3    5.65    0.33
   7  13  -3    5.97    0.48
   6 -13  -3   13.86    0.57
   6  13  -3   13.35    0.58
  -5 -13   3    0.71    0.22
   5 -13  -3    0.33    0.13
   5 -13  -3    0.44    0.18
   5  13  -3    0.30    0.14
   4 -13  -3    5.43    0.39
  -4 -13   3    5.39    0.39
   4 -13  -3    6.12    0.32
   4  13  -3    5.53    0.34
   3 -13  -3   22.61    0.90
  -3 -13   3   22.70    0.85
  -3 -13   3   20.18    0.91
   3 -13  -3   23.95    0.83
   3  13  -3   23.64    0.84
  -2 -13   3   28.49    1.05
   2 -13  -3   28.66    1.07
   2 -13  -3   30.19    1.05
   2  13  -3   30.02    1.04
   1 -13  -3   75.17    2.63
   1 -13  -3   79.48    2.57
   1  13  -3   79.79    2.67
   0 -13   3   92.26    3.02
   0  13  -3   92.26    3.11
   1 -13   3   25.67    0.85
  -1 -13  -3   22.19    0.86
   1  13   3   22.66    0.91
  -2 -13  -3    1.09    0.23
  -2 -13  -3    0.35    0.26
   2 -13   3    0.73    0.18
   2 -13   3    0.52    0.24
   2  13   3    0.72    0.15
   3 -13   3    0.37    0.26
   3 -13   3    0.44    0.12
  -3 -13  -3    0.67    0.17
   3  13   3    0.42    0.14
   4 -13   3    0.35    0.21
  -4 -13  -3    0.32    0.16
   4 -13   3    0.53    0.15
   4  13   3    0.40    0.15
  -5 -13  -3   11.26    0.50
   5 -13   3   11.33    0.51
   5 -13   3    9.49    0.47
   5  13   3   10.09    0.49
   6 -13   3    2.19    0.25
   6 -13   3    1.78    0.32
   6  13   3    2.48    0.28
   7 -13   3    8.87    0.37
  -8  14   3    0.31    0.10
   7 -14  -3    2.86    0.27
   7  14  -3    2.77    0.26
   6 -14  -3    1.69    0.22
   6  14  -3    1.54    0.24
  -5 -14   3    2.50    0.34
   5 -14  -3    2.48    0.25
   5  14  -3    1.96    0.25
   4 -14  -3   61.07    2.07
  -4 -14   3   60.83    2.08
   4  14  -3   61.73    2.09
   3 -14  -3    2.65    0.23
  -3 -14   3    2.05    0.28
   3 -14  -3    2.61    0.37
  -3 -14   3    2.09    0.42
   3  14  -3    2.54    0.25
  -2 -14   3    6.16    0.43
  -2 -14   3    5.81    0.36
   2 -14  -3    6.98    0.41
   2 -14  -3    6.65    0.32
   2  14  -3    5.73    0.33
  -1 -14   3    7.81    0.45
  -1 -14   3    8.02    0.45
   1 -14  -3    8.21    0.40
   1 -14  -3    8.94    0.44
   0 -14  -3    0.25    0.16
   0 -14   3    0.03    0.10
   0 -14   3    0.02    0.19
   1 -14   3    1.76    0.34
  -1 -14  -3    2.59    0.33
   1 -14   3    2.60    0.21
  -1 -14  -3    2.26    0.28
   1  14   3    2.73    0.24
  -2 -14  -3   35.90    1.22
   2 -14   3   31.52    1.24
   2 -14   3   36.51    1.20
  -2 -14  -3   32.68    1.24
   2  14   3   35.32    1.21
  -3 -14  -3    0.51    0.14
   3 -14   3    0.35    0.12
   3  14   3    0.22    0.14
  -4 -14  -3    4.15    0.33
   4 -14   3    4.17    0.29
   4 -14   3    4.35    0.40
   4  14   3    4.59    0.32
  -5 -14  -3    0.05    0.16
   5 -14   3   -0.06    0.18
   5 -14   3   -0.18    0.13
   5  14   3    0.08    0.16
   6 -14   3   -0.02    0.14
   6 -14   3    0.16    0.14
   6  14   3    0.00    0.17
   7 -15  -3    0.16    0.14
   7  15  -3    0.28    0.15
   6 -15  -3    6.44    0.35
   6  15  -3    6.05    0.36
  -5 -15   3    4.81    0.36
   5 -15  -3    3.93    0.29
   5  15  -3    3.90    0.30
   4 -15  -3  293.45    9.44
  -4 -15   3  290.49    9.45
   4  15  -3  293.27    9.47
  -3 -15   3    4.19    0.43
   3 -15  -3    3.69    0.37
   3 -15  -3    3.59    0.26
  -3 -15   3    4.10    0.32
   3  15  -3    3.14    0.27
   2 -15  -3    0.08    0.11
   2 -15  -3    0.05    0.18
  -2 -15   3    0.20    0.19
  -2 -15   3    0.19    0.16
   2  15  -3    0.09    0.13
   1 -15  -3  116.79    3.65
   1 -15  -3  111.74    3.66
  -1 -15   3  108.79    3.65
  -1 -15   3  108.29    3.67
   0 -15  -3   28.67    1.02
   0 -15   3   28.46    0.99
   0 -15  -3   28.89    1.02
   0 -15   3   27.05    1.03
   0 -15   3   26.98    1.02
   1 -15   3   67.10    2.37
  -1 -15  -3   70.70    2.36
   1 -15   3   70.26    2.34
   1 -15   3   68.68    2.37
  -1 -15  -3   72.65    2.36
   1  15   3   73.42    2.36
  -2 -15  -3    1.72    0.37
   2 -15   3    1.79    0.36
  -2 -15  -3    2.35    0.27
   2 -15   3    2.38    0.22
   2  15   3    1.99    0.24
   3 -15   3   10.23    0.46
  -3 -15  -3   10.13    0.47
   3  15   3   10.07    0.48
   4 -15   3   31.24    1.12
   4 -15   3   30.11    1.14
  -4 -15  -3   32.12    1.13
   4  15   3   31.29    1.13
   5 -15   3    1.40    0.29
   5 -15   3    1.05    0.17
  -5 -15  -3    1.31    0.28
   5  15   3    1.09    0.25
   6 -15   3   25.56    0.91
   6 -15   3   25.30    0.92
   6  15   3   26.48    0.94
   7 -16  -3   15.89    0.62
   7  16  -3   16.13    0.63
  -6 -16   3    0.77    0.22
   6 -16  -3    0.61    0.14
   6  16  -3    0.19    0.14
  -5 -16   3    0.45    0.18
   5 -16  -3    0.32    0.13
   5  16  -3    0.00    0.14
  -4 -16   3    9.94    0.48
   4 -16  -3    9.95    0.45
   4  16  -3   10.06    0.48
   3 -16  -3   42.33    1.48
   3 -16  -3   44.07    1.46
  -3 -16   3   41.29    1.49
  -3 -16   3   40.96    1.49
   3  16  -3   42.52    1.48
   2 -16  -3   53.92    1.78
   2 -16  -3   53.49    1.76
  -2 -16   3   54.15    1.78
  -2 -16   3   51.74    1.78
  -2  16   3   44.27    1.78
   2  16  -3   53.63    1.78
   1 -16  -3    0.19    0.12
  -1 -16   3   -0.13    0.14
   1 -16  -3    0.60    0.16
  -1 -16   3    0.31    0.16
   0 -16   3   13.58    0.61
   0 -16  -3   13.15    0.60
   0 -16  -3   13.88    0.59
   0 -16   3   14.61    0.56
   0 -16   3   14.32    0.60
  -1 -16  -3   11.10    0.52
   1 -16   3    9.96    0.57
   1 -16   3   10.97    0.46
  -1 -16  -3   11.24    0.50
   1 -16   3   10.95    0.52
   1  16   3   10.93    0.48
   2 -16   3   11.74    0.59
   2 -16   3   13.50    0.54
  -2 -16  -3   12.61    0.62
  -2 -16  -3   12.96    0.60
   2  16   3   13.63    0.56
   3 -16   3   52.68    1.77
  -3 -16  -3   49.33    1.76
   3  16   3   52.66    1.78
   4 -16   3   24.43    0.91
  -4 -16  -3   25.49    0.92
   4  16   3   24.31    0.93
  -5 -16  -3   -0.17    0.13
   5 -16   3    0.19    0.14
   5 -16   3    0.17    0.19
   5  16   3   -0.01    0.16
   6 -16   3    1.60    0.26
   6  16   3    1.84    0.34
  -7  17   3    7.08    0.32
   6 -17  -3    2.08    0.23
  -6 -17   3    1.56    0.31
   6  17  -3    2.10    0.24
  -5 -17   3   13.19    0.54
   5 -17  -3   11.91    0.52
   5  17  -3   11.10    0.53
   4 -17  -3   12.68    0.54
  -4 -17   3   13.52    0.57
   4  17  -3   12.56    0.57
  -3 -17   3   -0.21    0.20
  -3 -17   3   -0.10    0.15
   3 -17  -3    0.09    0.18
   3 -17  -3    0.06    0.12
   3  17  -3   -0.06    0.13
  -2 -17   3   66.34    2.39
   2 -17  -3   70.64    2.39
   2 -17  -3   74.06    2.38
  -2 -17   3   71.24    2.40
   2  17  -3   73.42    2.41
  -1 -17   3    1.55    0.27
  -1 -17   3    1.54    0.29
   1 -17  -3    1.34    0.36
   1 -17  -3    1.34    0.20
   1 -17  -3    1.05    0.25
   0 -17  -3    0.56    0.17
   0 -17   3    0.80    0.19
   0 -17  -3    0.22    0.14
   0 -17   3    0.79    0.18
   1 -17   3    4.22    0.34
  -1 -17  -3    4.34    0.34
   1 -17   3    3.08    0.43
  -1 -17  -3    4.22    0.32
   1 -17   3    4.65    0.28
   1  17   3    4.75    0.31
  -2 -17  -3    0.12    0.19
   2 -17   3    0.04    0.18
  -2 -17  -3   -0.09    0.13
   2 -17   3    0.09    0.12
   2  17   3   -0.09    0.14
   3 -17   3    2.34    0.24
  -3 -17  -3    2.41    0.26
   3  17   3    2.04    0.34
  -4 -17  -3    2.15    0.26
   4 -17   3    2.55    0.24
   4  17   3    2.47    0.28
  -5 -17  -3    6.34    0.32
   5 -17   3    6.07    0.33
   5  17   3    5.41    0.36
  -7  18   3    0.08    0.12
  -6 -18   3    0.30    0.18
   6 -18  -3    0.21    0.14
   6  18  -3    0.24    0.14
  -5 -18   3   22.61    0.81
   5 -18  -3   18.38    0.74
   5  18  -3   18.02    0.76
  -4 -18   3    4.26    0.32
   4 -18  -3    4.62    0.44
   4 -18  -3    4.11    0.28
   4  18  -3    3.99    0.31
   3 -18  -3    8.28    0.44
   3 -18  -3    8.44    0.40
  -3 -18   3    7.71    0.43
  -3 -18   3    7.56    0.48
   3  18  -3    8.42    0.43
  -3  18   3    7.44    0.50
  -2 -18   3    6.67    0.37
   2 -18  -3    6.71    0.35
  -2 -18   3    6.03    0.40
   2 -18  -3    6.47    0.38
   2  18  -3    6.22    0.37
   1 -18  -3    0.41    0.28
   1 -18  -3    0.39    0.13
   1 -18  -3    0.77    0.22
   0 -18   3    2.32    0.32
   0 -18  -3    2.61    0.31
   0 -18   3    2.85    0.24
   0 -18   3    2.20    0.47
  -1 -18  -3   10.13    0.48
  -1 -18  -3   10.38    0.47
   1 -18   3   10.00    0.49
   1 -18   3   10.32    0.45
   1 -18   3    9.07    0.55
   1  18   3    9.71    0.47
   2 -18   3    5.24    0.40
   2 -18   3    4.98    0.31
  -2 -18  -3    5.68    0.34
  -2 -18  -3    4.83    0.39
   2  18   3    5.51    0.35
  -3 -18  -3    6.80    0.36
   3 -18   3    6.02    0.34
   3 -18   3    6.47    0.65
   3  18   3    6.34    0.38
   4 -18   3    8.67    0.42
  -4 -18  -3    9.62    0.43
   4  18   3    8.54    0.44
   5 -18   3    0.15    0.14
  -5 -18  -3    0.04    0.11
   5  18   3   -0.10    0.16
   6 -19  -3    8.47    0.40
  -6 -19   3    8.06    0.50
  -6  19   3    8.72    0.38
   6  19  -3    8.15    0.41
   5 -19  -3   88.89    2.98
  -5 -19   3   93.89    2.98
   5  19  -3   87.97    3.01
   4 -19  -3    0.80    0.24
   4 -19  -3    1.01    0.21
   4  19  -3    0.90    0.23
  -4  19   3    1.12    0.23
   3 -19  -3    4.09    0.30
  -3 -19   3    4.25    0.32
  -3 -19   3    4.85    0.40
   3 -19  -3    4.93    0.35
   3  19  -3    4.76    0.33
  -3  19   3    4.60    0.43
   2 -19  -3    4.30    0.29
  -2 -19   3    3.95    0.34
  -2 -19   3    4.02    0.32
   2 -19  -3    4.11    0.33
   2  19  -3    4.32    0.32
   1 -19  -3    3.43    0.30
  -1 -19   3    3.37    0.32
  -1 -19   3    3.48    0.31
   0 -19  -3   74.40    2.47
   0 -19   3   75.78    2.48
   0 -19  -3   70.32    2.46
   0 -19   3   73.81    2.47
   1 -19   3   26.73    1.03
  -1 -19  -3   26.14    0.99
  -1 -19  -3   27.18    1.00
   1 -19   3   28.34    1.00
   1 -19   3   26.93    1.01
   1  19   3   27.99    1.01
   2 -19   3   24.73    0.93
   2 -19   3   24.90    0.95
  -2 -19  -3   24.85    0.94
  -2 -19  -3   24.94    0.92
   2  19   3   25.26    0.98
   3 -19   3   15.62    0.64
   3 -19   3   15.83    0.72
  -3 -19  -3   17.56    0.66
   3  19   3   15.63    0.66
  -4 -19  -3    1.10    0.22
   4 -19   3    0.73    0.15
   4  19   3    0.70    0.17
   5 -19   3    2.83    0.25
  -5 -19  -3    2.83    0.22
   5  19   3    2.88    0.32
   6 -20  -3    4.62    0.32
  -6 -20   3    4.75    0.32
   6  20  -3    4.65    0.31
  -6  20   3    4.47    0.30
  -5 -20   3    0.37    0.13
   5 -20  -3    0.40    0.14
   5  20  -3    0.35    0.15
  -5  20   3    0.43    0.16
  -4 -20   3   11.54    0.49
   4 -20  -3   10.78    0.71
   4 -20  -3   10.39    0.48
   4  20  -3   10.64    0.50
  -4  20   3   10.48    0.63
   3 -20  -3    1.46    0.29
  -3 -20   3    1.46    0.32
  -3 -20   3    1.08    0.24
   3 -20  -3    1.34    0.22
   3  20  -3    1.24    0.24
   2 -20  -3   32.14    1.15
  -2 -20   3   31.72    1.14
  -2 -20   3   31.06    1.15
  -1 -20   3    1.03    0.27
  -1 -20   3    0.99    0.26
   1 -20  -3    1.40    0.25
   0 -20   3    7.20    0.42
   0 -20  -3    7.56    0.40
   0 -20   3    7.83    0.41
   0 -20  -3    7.14    0.41
  -1 -20  -3    8.86    0.44
   1 -20   3    8.77    0.52
  -1 -20  -3    8.77    0.42
   1 -20   3    8.53    0.45
  -2 -20  -3   30.31    1.10
   2 -20   3   28.89    1.08
   2 -20   3   31.34    1.11
  -2 -20  -3   29.72    1.08
   2  20   3   30.07    1.10
  -3 -20  -3   13.67    0.55
   3 -20   3   12.20    0.54
   3  20   3   12.67    0.56
   4 -20   3    2.91    0.26
  -4 -20  -3    3.25    0.23
   4  20   3    3.16    0.30
   5 -20   3   10.40    0.45
  -5 -20  -3   10.00    0.41
   5  20   3    9.89    0.51
  -6 -21   3    1.77    0.29
   5 -21  -3    0.32    0.14
  -5 -21   3    0.42    0.12
  -5  21   3    0.72    0.25
   5  21  -3    0.23    0.15
   4 -21  -3    3.28    0.36
   4 -21  -3    3.42    0.27
   4  21  -3    3.48    0.30
   3 -21  -3    6.17    0.35
  -3 -21   3    7.09    0.42
   3 -21  -3    6.13    0.38
  -3 -21   3    6.57    0.36
   3  21  -3    5.65    0.38
  -2 -21   3    1.09    0.27
  -2 -21   3    0.91    0.17
   2 -21  -3    0.99    0.24
   2 -21  -3    1.24    0.22
   2  21  -3    1.35    0.24
  -1 -21   3    1.01    0.26
  -1 -21   3    1.07    0.26
   1 -21  -3    1.14    0.24
   0 -21   3   14.35    0.63
   0 -21  -3   15.29    0.63
   0 -21   3   14.87    0.63
   0 -21  -3   14.77    0.62
   1 -21   3    2.62    0.29
  -1 -21  -3    2.71    0.26
  -1 -21  -3    1.85    0.25
   1 -21   3    2.29    0.41
   1 -21   3    1.97    0.24
   1  21   3    2.43    0.27
   2 -21   3   18.38    0.73
  -2 -21  -3   18.02    0.72
   2 -21   3   17.31    0.70
  -2 -21  -3   18.76    0.71
   2  21   3   18.09    0.73
   3 -21   3    1.80    0.36
  -3 -21  -3    2.28    0.23
   3 -21   3    2.13    0.24
   3  21   3    2.61    0.27
  -4 -21  -3    1.78    0.18
   4 -21   3    1.58    0.22
   4  21   3    2.05    0.28
  -5 -21  -3    1.50    0.25
  -5 -22   3   14.72    0.55
   5 -22  -3   14.43    0.57
   5  22  -3   13.66    0.58
   4 -22  -3    0.13    0.13
  -4 -22   3    0.02    0.12
   4 -22  -3   -0.03    0.20
   4  22  -3   -0.15    0.14
   3 -22  -3    3.94    0.31
  -3 -22   3    3.91    0.28
  -3 -22   3    4.10    0.34
   3 -22  -3    3.02    0.27
   3  22  -3    3.57    0.30
  -2 -22   3    8.35    0.44
  -2 -22   3    8.63    0.42
   2 -22  -3    8.19    0.43
   2  22  -3    8.03    0.44
  -1 -22   3    0.18    0.15
  -1 -22   3    0.28    0.14
   1 -22  -3    0.49    0.14
   1  22  -3    0.35    0.15
   0 -22  -3    0.17    0.17
   0 -22  -3    0.19    0.12
   0 -22   3    0.45    0.17
   0 -22   3    0.33    0.15
   0  22   3    0.23    0.17
  -1 -22  -3    5.17    0.32
  -1 -22  -3    5.40    0.34
   1 -22   3    4.67    0.35
   1  22   3    5.22    0.35
   2 -22   3    2.26    0.23
   2 -22   3    2.47    0.29
  -2 -22  -3    2.04    0.29
  -2 -22  -3    1.67    0.22
   2  22   3    2.18    0.27
  -3 -22  -3    2.59    0.21
   3 -22   3    2.02    0.24
   3 -22   3    2.36    0.35
   3  22   3    2.36    0.28
   4 -22   3    6.11    0.34
  -4 -22  -3    6.00    0.29
   4  22   3    6.31    0.38
  -5 -22  -3    0.28    0.11
   5 -23  -3    3.34    0.30
  -5 -23   3    3.12    0.21
   5  23  -3    3.48    0.29
   4 -23  -3   21.47    0.83
  -4 -23   3   22.30    0.79
   4  23  -3   20.88    0.97
   3 -23  -3    0.54    0.15
  -3 -23   3    0.80    0.16
   3 -23  -3    0.59    0.16
  -3 -23   3    0.54    0.13
   3  23  -3    0.56    0.16
  -2 -23   3   -0.15    0.15
   2 -23  -3    0.38    0.14
  -2 -23   3    0.34    0.13
   2  23  -3    0.05    0.15
  -1 -23   3    0.20    0.15
   1 -23  -3    0.14    0.13
  -1 -23   3    0.01    0.13
   1  23  -3    0.15    0.14
   0 -23  -3   39.70    1.41
   0 -23  -3   40.78    1.42
   0 -23   3   43.29    1.44
   0 -23   3   42.25    1.43
   0  23   3   37.50    1.43
   1 -23   3   24.14    0.89
  -1 -23  -3   23.14    0.87
  -1 -23  -3   23.42    0.86
   1  23   3   22.92    0.89
   2 -23   3    4.79    0.33
  -2 -23  -3    5.00    0.28
  -2 -23  -3    4.58    0.32
   2  23   3    4.66    0.33
  -3 -23  -3    2.94    0.21
   3  23   3    2.51    0.28
  -4 -23  -3    3.44    0.20
   4 -23   3    3.11    0.29
  -5 -24   3    2.67    0.19
  -4 -24   3    0.40    0.11
   4  24  -3    0.48    0.15
  -3 -24   3    0.85    0.16
   3 -24  -3    1.01    0.22
  -3 -24   3    0.72    0.18
   3  24  -3    0.98    0.23
  -2 -24   3    4.52    0.31
  -2 -24   3    5.13    0.29
   2 -24  -3    4.76    0.30
   2  24  -3    5.10    0.33
   1 -24  -3    6.63    0.35
  -1 -24   3    6.71    0.37
   1  24  -3    5.60    0.36
   0 -24   3    2.61    0.26
   0 -24  -3    2.23    0.29
   0 -24   3    2.49    0.29
   0 -24  -3    3.11    0.26
   0  24   3    2.31    0.27
  -1 -24  -3   13.37    0.56
  -1 -24  -3   13.79    0.55
   1 -24   3   13.87    0.57
   1  24   3   12.97    0.58
   2 -24   3    3.48    0.28
  -2 -24  -3    3.61    0.28
  -2 -24  -3    3.47    0.25
   2  24   3    3.59    0.31
  -3 -24  -3   -0.03    0.09
   3  24   3   -0.02    0.17
  -4 -24  -3    1.22    0.15
  -4 -25   3    2.43    0.18
   4  25  -3    2.54    0.27
  -3 -25   3   -0.04    0.09
   3 -25  -3    0.09    0.13
  -3 -25   3    0.21    0.14
   3  25  -3   -0.14    0.13
  -2 -25   3    2.74    0.25
   2 -25  -3    3.16    0.23
  -2 -25   3    2.60    0.22
   2  25  -3    2.56    0.26
   1 -25  -3    0.20    0.11
  -1 -25   3    0.33    0.13
  -1 -25   3    0.24    0.12
   1  25  -3    0.26    0.14
  -1  25   3    0.05    0.16
   0 -25   3    2.02    0.28
   0 -25  -3    1.89    0.22
   0 -25  -3    2.08    0.29
   0 -25   3    1.91    0.23
   0  25  -3    1.45    0.25
   0  25   3    2.43    0.27
  -1 -25  -3    7.32    0.35
  -1 -25  -3    6.93    0.35
   1 -25   3    7.22    0.36
   1  25   3    7.17    0.39
   2 -25   3    6.15    0.33
  -2 -25  -3    6.33    0.34
  -2 -25  -3    6.04    0.31
   2  25   3    7.22    0.39
  -3 -25  -3    0.59    0.14
  -4 -25  -3    0.85    0.14
  -4 -26   3    8.77    0.37
  -3 -26   3    0.19    0.09
   3 -26  -3    0.25    0.12
  -3 -26   3    0.22    0.20
   3  26  -3    0.05    0.15
  -2 -26   3   -0.10    0.10
  -2 -26   3    0.08    0.11
   2 -26  -3    0.09    0.11
   2  26  -3    0.23    0.15
  -1 -26   3    2.42    0.22
  -1 -26   3    2.25    0.23
   1 -26  -3    2.12    0.20
   1  26  -3    1.88    0.34
  -1  26   3    2.40    0.29
   0 -26  -3    6.08    0.30
   0 -26   3    5.70    0.31
   0 -26   3    5.81    0.34
   0 -26  -3    5.68    0.34
   0  26   3    5.61    0.36
   0  26  -3    5.00    0.35
   1 -26   3    1.82    0.20
  -1 -26  -3    1.78    0.22
  -1 -26  -3    1.75    0.20
   1  26   3    2.29    0.29
   2 -26   3    1.44    0.21
  -2 -26  -3    1.63    0.18
  -2 -26  -3    1.73    0.23
   2  26   3    1.73    0.31
  -4 -27   3    0.97    0.13
  -3 -27   3    0.05    0.17
   3 -27  -3   -0.03    0.12
  -3 -27   3    0.10    0.08
  -2 -27   3    0.09    0.10
   2 -27  -3    0.08    0.10
  -2 -27   3    0.18    0.10
   2  27  -3    0.10    0.15
  -2  27   3    0.15    0.19
  -1 -27   3    1.51    0.21
  -1 -27   3    1.66    0.19
   1 -27  -3    1.05    0.17
   1  27  -3    1.21    0.25
  -1  27   3    1.50    0.28
   0 -27   3    0.77    0.16
   0 -27  -3    0.64    0.16
   0  27  -3    0.69    0.16
   0  27   3    0.75    0.20
  -1 -27  -3   12.63    0.49
  -1 -27  -3   12.53    0.49
   1 -27   3   12.86    0.50
   1  27   3   12.33    0.56
  -1  27  -3   12.74    0.53
  -2 -27  -3   15.30    0.60
   2 -27   3   16.48    0.59
  -3 -27  -3    1.67    0.15
  -3 -28   3    6.56    0.28
  -2 -28   3    9.74    0.40
   2 -28  -3   10.00    0.46
  -2 -28   3   10.35    0.40
   1 -28  -3    1.31    0.16
  -1 -28   3    1.35    0.21
  -1 -28   3    1.81    0.17
   1  28  -3    2.09    0.27
   0 -28  -3    0.20    0.09
   0 -28   3    0.16    0.09
   0  28  -3    0.21    0.16
  -1 -28  -3    0.28    0.11
  -1 -28  -3    0.35    0.14
  -2 -28  -3    5.81    0.27
  -2 -29   3    6.86    0.31
  -2 -29   3    7.00    0.31
   2 -29  -3    7.78    0.30
  -1 -29   3    0.39    0.09
   1 -29  -3    0.51    0.14
   0 -29  -3   22.91    0.79
   0 -29   3   23.02    0.79
  -1 -29  -3    2.47    0.20
   1 -29   3    2.48    0.19
  -9   0   4    3.99    0.20
   8   0  -4   25.96    0.94
  -8   0   4   25.93    0.93
   7   0  -4   16.85    0.69
   7   0  -4   17.90    0.73
   6   0  -4   49.33    1.78
   6   0  -4   52.93    1.76
   5   0  -4   15.66    0.60
   5   0  -4   14.92    0.70
   4   0  -4  327.93   10.75
   4   0  -4  341.52   10.82
  -3   0   4  363.93   11.81
   3   0  -4  369.77   11.80
  -2   0   4  143.35    4.40
   2   0  -4  127.78    4.39
  -1   0   4  186.35    6.08
   1   0  -4  189.54    6.05
   0   0   4    5.65    0.22
   0   0  -4    5.24    0.22
  -1   0  -4  394.96   12.68
   3   0   4    0.51    0.14
   3   0   4    0.59    0.22
   3   0   4    0.37    0.21
   4   0   4    0.40    0.19
   4   0   4    0.16    0.21
   4   0   4    0.85    0.21
   5   0   4    9.37    0.45
   5   0   4    8.67    0.47
   5   0   4    9.62    0.49
   6   0   4    0.04    0.17
   6   0   4    0.40    0.16
   6   0   4    0.01    0.14
   7   0   4   12.04    0.49
   7   0   4   11.55    0.56
   7   0   4   11.90    0.48
  -9  -1   4    0.01    0.09
  -9   1   4    0.11    0.09
   8  -1  -4    4.13    0.31
  -8  -1   4    4.06    0.26
   8   1  -4    4.53    0.30
  -8   1   4    4.44    0.27
   7  -1  -4    2.55    0.35
   7  -1  -4    2.84    0.27
   7   1  -4    2.70    0.27
   7   1  -4    3.60    0.40
   6  -1  -4   46.98    1.56
   6  -1  -4   43.69    1.57
   6   1  -4   41.69    1.58
   6   1  -4   46.47    1.56
   5  -1  -4    1.41    0.27
   5  -1  -4    1.02    0.19
   5   1  -4    1.02    0.29
   5   1  -4    0.98    0.19
   4  -1  -4    1.26    0.20
   4  -1  -4    1.80    0.29
   4   1  -4    1.52    0.27
   4   1  -4    1.57    0.20
  -3  -1   4   38.39    1.35
   3  -1  -4   40.34    1.35
   3   1  -4   39.04    1.35
   2  -1  -4   44.18    1.49
  -2  -1   4   44.61    1.50
   2   1  -4   44.89    1.50
  -2   1   4   44.67    1.50
   1  -1  -4   87.53    2.96
  -1  -1   4   94.93    2.97
   1   1  -4   90.81    2.96
   0  -1   4    6.40    0.25
   0  -1  -4    6.10    0.24
   0   1  -4    6.32    0.25
   0   1   4    6.40    0.25
  -1  -1  -4    1.70    0.09
  -1   1  -4    1.48    0.10
   3  -1   4    0.75    0.21
   3  -1   4    0.82    0.14
   3  -1   4    0.49    0.22
   3   1   4    0.75    0.22
   3   1   4    0.46    0.23
   3   1   4    0.71    0.14
   4  -1   4   10.67    0.54
   4  -1   4   11.18    0.54
   4  -1   4   11.17    0.48
   4   1   4   10.35    0.47
   4   1   4   10.91    0.53
   4   1   4   11.59    0.54
   5  -1   4    0.84    0.20
   5  -1   4    0.93    0.25
   5  -1   4    0.84    0.20
   5   1   4    0.96    0.19
   5   1   4    0.61    0.18
   5   1   4    0.78    0.19
   6  -1   4   18.50    0.78
   6  -1   4   21.27    0.81
   6  -1   4   20.57    0.79
   6   1   4   19.62    0.79
   6   1   4   21.24    0.80
   6   1   4   21.57    0.81
   7  -1   4    1.98    0.20
   7  -1   4    1.81    0.21
   7  -1   4    1.65    0.35
   7   1   4    1.83    0.35
   7   1   4    1.57    0.21
   7   1   4    1.87    0.20
  -9  -2   4    1.41    0.15
  -9   2   4    1.66    0.16
  -8  -2   4   11.48    0.48
   8  -2  -4   11.52    0.51
  -8   2   4   12.17    0.48
   8   2  -4   11.67    0.51
   7  -2  -4    4.90    0.38
   7  -2  -4    4.97    0.33
   7   2  -4    4.93    0.45
   7   2  -4    4.84    0.33
   6  -2  -4    1.45    0.23
   6  -2  -4    1.98    0.35
   6   2  -4    1.43    0.29
   6   2  -4    1.34    0.23
   5  -2  -4    2.67    0.24
   5  -2  -4    2.82    0.39
   5   2  -4    2.27    0.34
   5   2  -4    2.86    0.25
   4  -2  -4   35.36    1.20
   4  -2  -4   34.79    1.27
   4   2  -4   35.02    1.20
   4   2  -4   35.54    1.27
   3  -2  -4   28.80    0.98
  -3  -2   4   26.68    0.98
   3   2  -4   28.06    0.98
  -3   2   4   26.67    0.99
   2  -2  -4   13.79    0.52
  -2  -2   4   14.25    0.53
   2   2  -4   14.42    0.53
  -2   2   4   14.36    0.53
   1  -2  -4    1.28    0.10
  -1  -2   4    1.41    0.11
   1   2  -4    1.23    0.11
  -1   2   4    1.40    0.11
   0  -2   4  285.26    8.82
   0  -2  -4  270.61    8.80
   0   2  -4  266.58    8.77
   0   2   4  271.06    8.76
  -1  -2  -4    8.90    0.31
  -1   2  -4    8.76    0.34
  -1   2  -4    9.43    0.34
  -2   2  -4    1.22    0.13
  -2   2  -4    1.32    0.12
   3  -2   4   18.81    0.78
   3  -2   4   19.45    0.78
   3  -2   4   19.56    0.72
   3   2   4   19.65    0.72
   3   2   4   18.84    0.78
   3   2   4   20.64    0.81
   4  -2   4    4.32    0.37
   4  -2   4    3.96    0.35
   4  -2   4    4.72    0.30
   4   2   4    4.69    0.30
   4   2   4    3.95    0.38
   4   2   4    3.85    0.37
   5  -2   4    4.17    0.34
   5  -2   4    4.13    0.31
   5  -2   4    3.98    0.35
   5   2   4    4.36    0.35
   5   2   4    3.94    0.32
   5   2   4    4.36    0.35
   6  -2   4    0.14    0.16
   6  -2   4    0.05    0.14
   6  -2   4    0.04    0.16
   6   2   4    0.03    0.15
   6   2   4    0.15    0.16
   6   2   4    0.15    0.16
   7  -2   4   -0.27    0.22
   7  -2   4    0.08    0.11
   7  -2   4    0.04    0.11
   7   2   4   -0.04    0.12
   7   2   4    0.51    0.23
   7   2   4   -0.01    0.12
  -9   3   4    0.71    0.16
   8  -3  -4    0.12    0.15
  -8  -3   4    0.19    0.12
   8   3  -4    0.01    0.15
  -8   3   4    0.07    0.12
   7  -3  -4   24.23    0.94
  -7  -3   4   25.70    0.94
   7  -3  -4   26.11    0.97
   7   3  -4   24.48    0.95
  -7   3   4   27.45    0.94
   6  -3  -4    6.33    0.43
   6  -3  -4    6.70    0.36
   6   3  -4    5.81    0.55
   6   3  -4    6.41    0.36
   5  -3  -4   89.22    2.90
   5  -3  -4   89.89    2.93
   5   3  -4   80.13    2.94
   5   3  -4   92.18    2.91
   4  -3  -4    1.10    0.21
   4  -3  -4    1.07    0.19
   4   3  -4    0.96    0.19
   4   3  -4    0.95    0.30
   3  -3  -4   85.62    2.75
  -3  -3   4   83.04    2.76
   3   3  -4   87.92    2.76
   3   3  -4   80.63    2.71
  -3   3   4   78.33    2.76
  -2  -3   4  143.74    4.56
  -2   3   4  139.84    4.57
   2   3  -4  137.91    4.56
   1  -3  -4  100.55    3.33
  -1  -3   4  102.73    3.34
  -1   3   4  106.44    3.34
   1   3  -4  100.82    3.34
   0  -3  -4  486.73   16.41
   0   3  -4  499.91   16.43
   0   3   4  538.60   16.41
  -1   3  -4   11.80    0.45
  -1   3  -4   12.76    0.45
   2  -3   4  174.64    5.86
  -2   3  -4  184.48    5.86
  -2   3  -4  186.89    5.86
   3  -3   4  150.94    4.93
   3  -3   4  153.29    4.96
   3  -3   4  153.46    4.96
   3   3   4  153.98    4.93
   3   3   4  150.52    4.96
   3   3   4  150.22    4.96
   4  -3   4   43.30    1.51
   4  -3   4   42.42    1.51
   4  -3   4   42.77    1.47
   4   3   4   42.47    1.52
   4   3   4   43.84    1.51
   4   3   4   43.00    1.48
   5  -3   4   72.22    2.46
   5  -3   4   73.54    2.43
   5  -3   4   69.82    2.44
   5   3   4   72.53    2.46
   5   3   4   71.93    2.45
   5   3   4   74.80    2.44
   6  -3   4    0.55    0.17
   6  -3   4    1.18    0.24
   6  -3   4    0.99    0.18
   6   3   4    1.28    0.25
   6   3   4    0.84    0.19
   6   3   4    1.14    0.26
   7  -3   4    4.11    0.39
   7  -3   4    4.76    0.27
   7  -3   4    4.26    0.26
   7   3   4    4.23    0.28
   7   3   4    4.78    0.43
   7   3   4    4.30    0.26
  -8  -4   4   16.80    0.62
   8  -4  -4   16.50    0.65
  -8   4   4   16.40    0.62
   8   4  -4   16.29    0.65
   7  -4  -4   16.56    0.66
  -7  -4   4   16.58    0.63
   7  -4  -4   14.26    0.62
   7   4  -4   14.17    0.63
  -7   4   4   15.70    0.63
   6  -4  -4   36.54    1.32
   6  -4  -4   37.87    1.31
   6   4  -4   36.39    1.31
   5  -4  -4   30.49    1.11
   5  -4  -4   30.53    1.07
   5   4  -4   29.82    1.08
   4  -4  -4  119.28    3.71
   4  -4  -4  110.95    3.78
   4   4  -4  112.04    3.71
   4   4  -4  113.38    3.78
   3  -4  -4  104.45    3.30
   3  -4  -4   98.72    3.25
  -3  -4   4  100.22    3.30
   3   4  -4  103.49    3.30
   3   4  -4   96.52    3.25
  -3   4   4   96.44    3.31
  -2  -4   4  289.51    9.33
   2  -4  -4  286.24    9.33
   2   4  -4  289.88    9.33
  -2   4   4  293.98    9.34
  -1  -4   4   55.48    1.76
   1  -4  -4   49.62    1.75
   1   4  -4   52.47    1.76
  -1   4   4   54.64    1.76
   0  -4  -4   57.09    1.91
   0   4   4   62.31    1.92
   0   4  -4   56.73    1.93
  -1   4  -4  180.59    5.70
  -1   4  -4  172.71    5.70
   2  -4   4  168.45    5.49
  -2   4  -4  173.92    5.50
  -2   4  -4  170.76    5.50
   2   4   4  168.29    5.50
   3  -4   4  110.78    3.73
   3  -4   4  118.02    3.71
   3  -4   4  114.51    3.74
   3   4   4  113.08    3.71
   3   4   4  114.46    3.74
   3   4   4  111.15    3.74
   4  -4   4    6.14    0.39
   4  -4   4    5.47    0.33
   4  -4   4    5.82    0.41
   4   4   4    5.70    0.41
   4   4   4    6.60    0.42
   4   4   4    5.73    0.34
   5  -4   4    1.20    0.29
   5  -4   4    0.62    0.17
   5   4   4    1.14    0.29
   5   4   4    1.40    0.31
   5   4   4    1.29    0.28
   6  -4   4   30.27    1.15
   6  -4   4   33.24    1.17
   6  -4   4   32.93    1.15
   6   4   4   33.74    1.15
   6   4   4   32.21    1.16
   6   4   4   30.18    1.15
   7  -4   4    6.02    0.31
   7  -4   4    5.95    0.42
   7  -4   4    5.70    0.30
   7   4   4    6.35    0.60
   7   4   4    5.95    0.30
   7   4   4    5.98    0.33
  -8  -5   4    4.19    0.25
   8  -5  -4    3.97    0.30
   8   5  -4    3.98    0.31
  -8   5   4    4.33    0.25
  -7  -5   4    0.33    0.15
   7  -5  -4    0.03    0.14
   7  -5  -4    0.44    0.18
   7   5  -4    0.45    0.15
  -7   5   4    0.43    0.16
   6  -5  -4    0.50    0.20
   6  -5  -4    0.60    0.16
   6   5  -4    0.65    0.16
   5  -5  -4    0.17    0.12
   5  -5  -4    0.27    0.19
   5   5  -4   -0.04    0.12
   4  -5  -4    1.62    0.35
   4  -5  -4    1.26    0.19
   4  -5  -4    1.63    0.53
   4   5  -4    1.27    0.35
   4   5  -4    1.54    0.19
  -3  -5   4    7.71    0.40
   3  -5  -4    7.97    0.36
   3  -5  -4    8.76    0.39
   3   5  -4    7.69    0.36
   3   5  -4    8.83    0.40
   2  -5  -4  120.51    3.98
  -2  -5   4  122.46    3.98
  -2   5   4  123.31    3.99
   2   5  -4  122.44    3.99
  -1  -5   4  102.70    3.26
   1  -5  -4   95.48    3.24
  -1   5   4  103.67    3.26
   1   5  -4   97.71    3.26
   0  -5  -4   12.23    0.41
   0   5   4   11.43    0.42
   0   5  -4   10.34    0.43
  -1   5  -4   23.98    0.85
  -1   5  -4   24.73    0.86
   2  -5   4    2.48    0.23
  -2   5  -4    2.35    0.25
   2   5   4    2.41    0.25
  -2   5  -4    2.31    0.21
   3  -5   4    5.88    0.43
   3  -5   4    6.13    0.36
   3  -5   4    7.17    0.45
   3   5   4    5.91    0.42
   3   5   4    6.36    0.45
   3   5   4    6.08    0.34
   4  -5   4   22.35    0.89
   4  -5   4   22.87    0.90
   4  -5   4   23.49    0.85
   4   5   4   23.78    0.86
   4   5   4   23.69    0.91
   4   5   4   22.86    0.90
   5  -5   4    0.74    0.18
   5  -5   4    0.59    0.18
   5   5   4    0.33    0.20
   5   5   4    0.14    0.18
   6  -5   4    0.78    0.17
   6  -5   4    1.11    0.23
   6  -5   4    0.87    0.18
   6   5   4    0.69    0.17
   6   5   4    1.24    0.24
   7  -5   4    0.13    0.11
   7  -5   4    0.18    0.29
   7   5   4    0.10    0.15
  -8  -6   4    1.15    0.18
   8  -6  -4    0.77    0.17
  -8   6   4    0.85    0.19
   8   6  -4    0.79    0.18
   7  -6  -4    1.71    0.28
   7  -6  -4    1.94    0.25
  -7  -6   4    2.09    0.24
  -7   6   4    2.02    0.26
   7   6  -4    1.43    0.25
   6  -6  -4   50.38    1.70
   6  -6  -4   47.27    1.71
   6   6  -4   50.19    1.71
   5  -6  -4    9.98    0.44
   5  -6  -4    9.66    0.50
   5   6  -4   10.11    0.45
   4  -6  -4    3.70    0.25
   4  -6  -4    4.09    0.37
   4   6  -4    3.74    0.44
   3  -6  -4   17.92    0.66
  -3  -6   4   18.03    0.90
   3  -6  -4   19.28    0.71
   3   6  -4   17.65    0.67
   3   6  -4   18.44    0.72
   2  -6  -4   18.76    0.69
  -2  -6   4   19.41    0.70
   2   6  -4   18.22    0.70
   1  -6  -4   59.50    2.00
  -1  -6   4   61.14    2.02
   1   6  -4   59.42    2.02
  -1   6   4   62.70    2.02
   0  -6  -4   49.61    1.60
   0   6  -4   47.13    1.63
   0   6   4   48.91    1.61
  -1  -6  -4   20.10    0.69
   1   6   4   20.94    0.69
  -1   6  -4   21.12    0.76
  -1   6  -4   20.71    0.75
   2  -6   4   50.70    1.69
   2   6   4   49.53    1.69
  -2   6  -4   50.92    1.72
  -2   6  -4   51.27    1.75
   3  -6   4   -0.09    0.20
   3  -6   4   -0.24    0.21
   3  -6   4    0.20    0.12
   3   6   4    0.48    0.23
   3   6   4   -0.08    0.20
   4  -6   4    0.45    0.14
   4  -6   4    1.00    0.20
   4  -6   4    1.01    0.22
   4   6   4    1.14    0.22
   4   6   4    0.85    0.23
   4   6   4    0.99    0.18
   5  -6   4    5.53    0.35
   5  -6   4    5.90    0.38
   5  -6   4    6.16    0.39
   5   6   4    5.96    0.37
   5   6   4    6.16    0.40
   5   6   4    5.89    0.42
   6  -6   4    2.56    0.27
   6  -6   4    2.18    0.27
   6   6   4    2.75    0.31
   6   6   4    2.65    0.31
   7  -6   4    6.45    0.31
   7   6   4    6.35    0.41
  -8  -7   4    1.22    0.18
   8  -7  -4    1.40    0.25
  -8   7   4    1.15    0.20
   8   7  -4    1.34    0.26
  -7  -7   4    7.19    0.37
   7  -7  -4    7.70    0.39
   7  -7  -4    6.39    0.37
   7   7  -4    6.65    0.38
  -7   7   4    7.19    0.39
   6  -7  -4   34.58    1.21
  -6  -7   4   32.56    1.16
   6  -7  -4   33.38    1.18
   6   7  -4   30.11    1.26
  -6   7   4   31.71    1.16
   5  -7  -4   16.08    0.62
   5  -7  -4   15.21    0.66
   5   7  -4   15.82    0.63
   4  -7  -4   34.12    1.23
   4  -7  -4   36.04    1.20
   4   7  -4   32.77    1.33
   4   7  -4   35.45    1.20
   3  -7  -4    5.20    0.28
   3  -7  -4    5.12    0.33
   3   7  -4    5.10    0.29
   3   7  -4    5.29    0.34
  -2  -7   4    6.00    0.30
   2  -7  -4    5.38    0.28
   2   7  -4    5.55    0.30
  -2   7   4    5.29    0.32
   1  -7  -4  211.43    6.90
  -1   7   4  217.30    6.92
   1   7  -4  213.46    6.92
   0  -7  -4    0.93    0.11
   0   7   4    1.15    0.14
   0   7  -4    0.73    0.17
  -1   7  -4  105.86    3.47
   1   7   4  109.29    3.42
  -1   7  -4  102.69    3.48
   2  -7   4    1.16    0.20
  -2   7  -4    1.05    0.22
  -2   7  -4    1.24    0.27
   2   7   4    1.12    0.22
   3  -7   4    4.27    0.40
   3  -7   4    5.05    0.29
   3  -7   4    4.51    0.42
   3   7   4    4.92    0.43
   3   7   4    5.07    0.31
   3   7   4    4.85    0.44
   4  -7   4   71.57    2.43
   4  -7   4   73.89    2.41
   4   7   4   70.48    2.44
   4   7   4   70.86    2.43
   4   7   4   73.58    2.41
   5  -7   4   10.10    0.50
   5  -7   4   10.13    0.50
  -5  -7  -4   10.17    0.61
   5  -7   4    9.49    0.47
   5   7   4   10.51    0.52
   5   7   4   11.22    0.55
   5   7   4   10.10    0.48
   6  -7   4    4.55    0.33
   6  -7   4    4.89    0.34
   6  -7   4    4.82    0.32
   6   7   4    4.60    0.35
   6   7   4    4.82    0.35
   6   7   4    4.65    0.33
   7  -7   4    0.79    0.16
   7   7   4    0.89    0.26
  -8  -8   4    1.10    0.19
   8  -8  -4    1.10    0.19
   8   8  -4    1.18    0.27
  -8   8   4    1.47    0.21
   7  -8  -4   -0.04    0.15
  -7  -8   4   -0.15    0.19
   7   8  -4    0.16    0.15
  -7   8   4   -0.03    0.18
  -6  -8   4    9.12    0.45
   6  -8  -4    8.28    0.46
   6  -8  -4    8.43    0.43
  -6   8   4    8.53    0.46
   6   8  -4    8.63    0.43
   5  -8  -4    1.54    0.21
  -5   8   4    1.44    0.33
   5   8  -4    1.58    0.23
  -4  -8   4    7.91    0.48
   4  -8  -4    8.29    0.45
   4  -8  -4    9.00    0.39
   4   8  -4    8.45    0.38
   3  -8  -4    2.12    0.21
   3  -8  -4    2.15    0.28
   3   8  -4    1.95    0.30
   3   8  -4    2.35    0.23
   2  -8  -4    0.47    0.14
   2  -8  -4    0.55    0.16
   2   8  -4    0.50    0.13
   2   8  -4    0.68    0.19
  -2   8   4    0.34    0.14
   1  -8  -4    3.96    0.25
   1   8  -4    3.91    0.24
  -1   8   4    4.13    0.25
   0  -8  -4    1.35    0.13
   0   8  -4    1.10    0.19
   0   8   4    1.13    0.16
   0   8  -4    1.09    0.18
   1  -8   4   87.03    2.96
  -1   8  -4   95.88    3.01
   1   8   4   87.90    2.97
   1   8   4   93.61    2.94
  -1   8  -4   89.72    3.02
   2  -8   4   31.22    1.10
   2   8   4   32.81    1.11
  -2   8  -4   31.64    1.16
   3  -8   4    1.59    0.21
   3  -8   4    1.88    0.36
   3  -8   4    1.69    0.28
   3   8   4    1.56    0.28
   3   8   4    1.48    0.24
   3   8   4    1.82    0.41
   4  -8   4   23.48    0.88
  -4  -8  -4   22.74    1.01
   4  -8   4   23.68    0.91
   4   8   4   24.82    0.89
   5  -8   4    4.19    0.34
   5  -8   4    3.55    0.30
   5  -8   4    4.05    0.35
  -5  -8  -4    3.53    0.39
   5   8   4    4.28    0.41
   5   8   4    4.50    0.36
   5   8   4    3.89    0.31
   6  -8   4    0.76    0.17
   6  -8   4    0.72    0.16
   6  -8   4    1.23    0.25
   6   8   4    0.41    0.20
   6   8   4    0.85    0.19
   6   8   4    0.75    0.17
   7  -8   4    9.55    0.39
   8  -9  -4    5.69    0.35
  -8  -9   4    4.74    0.34
  -8   9   4    5.54    0.33
   8   9  -4    5.82    0.35
  -7  -9   4    0.23    0.16
   7  -9  -4    0.03    0.14
  -7   9   4   -0.13    0.16
   7   9  -4   -0.04    0.14
   6  -9  -4    2.10    0.24
  -6  -9   4    2.11    0.29
   6  -9  -4    2.41    0.30
   6   9  -4    2.13    0.25
  -6   9   4    2.28    0.33
   5  -9  -4   -0.04    0.13
   5  -9  -4    0.05    0.16
  -5   9   4   -0.36    0.20
   5   9  -4    0.06    0.13
  -4  -9   4    5.14    0.47
   4  -9  -4    5.25    0.37
   4  -9  -4    5.72    0.30
  -4  -9   4    5.00    0.43
  -4   9   4    4.21    0.48
   4   9  -4    5.75    0.31
   3  -9  -4   65.77    2.17
   3  -9  -4   65.87    2.26
   3   9  -4   65.07    2.26
   3   9  -4   66.40    2.19
   2  -9  -4   11.19    0.48
   2  -9  -4   10.07    0.44
   2   9  -4   10.66    0.46
   2   9  -4   11.73    0.50
   1  -9  -4   87.67    3.00
  -1   9   4   90.51    3.02
   1   9  -4   95.74    3.04
   0  -9   4  118.05    4.02
   0  -9  -4  127.33    4.04
   0   9   4  124.82    4.04
   0   9  -4  119.34    4.08
   0   9  -4  131.12    4.08
   1  -9   4    7.31    0.36
   1   9   4    7.49    0.38
   1   9   4    7.43    0.33
  -1   9  -4    7.94    0.41
   2  -9   4    0.82    0.20
  -2   9  -4    0.57    0.22
   2   9   4    0.67    0.15
   3  -9   4    6.35    0.44
   3  -9   4    6.85    0.34
   3  -9   4    6.05    0.51
   3   9   4    6.84    0.36
   3   9   4    6.50    0.51
   3   9   4    6.44    0.51
   4  -9   4    0.79    0.16
   4  -9   4    0.82    0.24
   4  -9   4    0.59    0.19
  -4  -9  -4    0.79    0.19
   4   9   4    0.45    0.23
   4   9   4    0.41    0.16
   4   9   4    0.76    0.25
   5  -9   4    1.78    0.25
   5  -9   4    2.00    0.32
  -5  -9  -4    1.50    0.35
   5  -9   4    1.74    0.28
   5   9   4    1.37    0.26
   5   9   4    1.69    0.28
   5   9   4    2.35    0.33
   6  -9   4    5.45    0.36
   6  -9   4    6.57    0.35
   6  -9   4    6.14    0.37
   6   9   4    6.00    0.35
   6   9   4    6.22    0.40
   6   9   4    6.72    0.43
   7  -9   4    0.34    0.11
  -8 -10   4    2.20    0.23
   8  10  -4    2.52    0.30
   7 -10  -4    4.02    0.29
  -7 -10   4    3.90    0.29
  -7  10   4    4.66    0.33
   7  10  -4    4.12    0.30
  -6 -10   4   -0.15    0.17
   6 -10  -4    0.21    0.16
   6 -10  -4    0.01    0.13
   6  10  -4    0.22    0.14
  -6  10   4   -0.05    0.22
   5 -10  -4    2.70    0.31
  -5 -10   4    2.06    0.35
   5 -10  -4    2.70    0.25
  -5 -10   4    2.48    0.46
   5  10  -4    2.35    0.25
  -5  10   4    2.10    0.41
   4 -10  -4   12.78    0.49
   4 -10  -4   11.24    0.53
  -4 -10   4   10.40    0.59
  -4 -10   4   10.96    0.58
   4  10  -4   12.27    0.50
   3 -10  -4    7.18    0.34
   3  10  -4    6.26    0.51
   3  10  -4    6.98    0.35
   2 -10  -4   36.48    1.32
   2 -10  -4   37.20    1.26
   2  10  -4   37.43    1.28
   2  10  -4   37.43    1.34
   1 -10  -4    1.36    0.21
   1 -10  -4    1.19    0.19
  -1  10   4    1.33    0.29
   1  10  -4    1.12    0.23
   0 -10   4    0.00    0.12
   0 -10  -4    0.17    0.12
   0  10  -4   -0.08    0.13
   0  10   4    0.12    0.14
   1 -10   4    5.02    0.28
  -1  10  -4    5.30    0.38
   1  10   4    4.81    0.32
   2  10   4    5.58    0.32
  -2  10  -4    5.15    0.52
   3 -10   4    5.92    0.47
   3 -10   4    6.49    0.33
   3  10   4    5.84    0.53
   3  10   4    6.40    0.52
   3  10   4    6.45    0.36
  -4 -10  -4    1.27    0.27
   4 -10   4    1.06    0.21
   4 -10   4    1.09    0.26
   4 -10   4    1.51    0.23
   4  10   4    1.05    0.28
   4  10   4    0.83    0.25
   4  10   4    0.87    0.18
   5 -10   4    5.53    0.41
  -5 -10  -4    6.09    0.41
   5 -10   4    5.73    0.38
   5 -10   4    6.02    0.35
   5  10   4    5.82    0.38
   5  10   4    5.45    0.48
   5  10   4    6.51    0.41
   6 -10   4    0.19    0.18
   6 -10   4    0.18    0.20
   6 -10   4    0.29    0.14
   6  10   4    0.37    0.17
   6  10   4    0.05    0.19
   7 -10   4    8.36    0.35
   7 -11  -4   11.45    0.50
  -7 -11   4   11.23    0.48
   7  11  -4   11.43    0.51
   6 -11  -4   10.43    0.47
  -6 -11   4   10.34    0.50
   6  11  -4   10.98    0.50
  -6  11   4   10.35    0.54
  -5 -11   4   43.01    1.64
  -5 -11   4   44.86    1.63
   5 -11  -4   48.58    1.64
   5 -11  -4   50.38    1.63
   5  11  -4   49.62    1.65
  -4 -11   4   19.59    0.81
   4 -11  -4   21.08    0.76
   4  11  -4   20.33    0.78
   3 -11  -4    1.00    0.20
  -3 -11   4    0.71    0.20
   3  11  -4    0.84    0.21
   2 -11  -4    7.15    0.42
   2 -11  -4    7.53    0.35
   2  11  -4    7.25    0.46
   2  11  -4    7.12    0.36
   1 -11  -4   11.44    0.50
   1 -11  -4   11.32    0.46
   1  11  -4   11.45    0.54
   0 -11   4  106.61    3.40
   0 -11  -4  102.59    3.42
   0  11   4   99.81    3.44
   0  11  -4  107.59    3.48
   1 -11   4    2.39    0.22
  -1  11  -4    2.03    0.38
   1  11   4    2.04    0.25
   2 -11   4   28.47    1.01
   2  11   4   28.86    1.02
   3 -11   4    2.81    0.25
  -3 -11  -4    3.31    0.29
   3 -11   4    2.81    0.40
   3  11   4    3.02    0.28
   3  11   4    3.09    0.49
   4 -11   4    1.45    0.33
   4 -11   4    1.85    0.24
   4 -11   4    1.66    0.32
  -4 -11  -4    1.83    0.29
   4  11   4    2.00    0.28
   4  11   4    1.81    0.47
   4  11   4    1.82    0.26
  -5 -11  -4   19.54    0.73
   5 -11   4   19.20    0.75
   5 -11   4   16.76    0.71
   5 -11   4   18.91    0.74
   5  11   4   19.11    0.74
   5  11   4   17.33    0.73
   5  11   4   17.51    0.79
   6 -11   4   10.75    0.49
   6 -11   4   10.80    0.46
   6  11   4   10.30    0.52
   7 -11   4    0.34    0.12
  -7 -12   4    0.21    0.17
   7 -12  -4   -0.04    0.14
   7  12  -4    0.14    0.15
   6 -12  -4    1.68    0.24
  -6 -12   4    2.01    0.34
   6  12  -4    1.85    0.26
  -5 -12   4   32.61    1.22
   5 -12  -4   34.98    1.20
  -5 -12   4   30.15    1.20
   5  12  -4   36.35    1.22
   4 -12  -4    2.16    0.27
  -4 -12   4    3.01    0.34
   4  12  -4    2.32    0.25
  -3 -12   4   19.81    0.77
  -3 -12   4   17.93    0.83
   3 -12  -4   21.54    0.74
   3 -12  -4   18.85    0.80
   3  12  -4   20.19    0.74
   2 -12  -4    0.16    0.17
   2 -12  -4    0.16    0.11
  -2 -12   4    0.07    0.17
   2  12  -4   -0.02    0.12
   1 -12  -4   20.65    0.73
   1 -12  -4   19.38    0.80
   1  12  -4   20.39    0.85
   0 -12   4   15.78    0.58
   0 -12  -4   15.48    0.64
   0  12  -4   15.31    0.70
   0  12   4   14.37    0.72
   1 -12   4   64.75    2.14
   1 -12   4   59.60    2.11
   1  12   4   63.44    2.09
  -2 -12  -4    0.70    0.27
   2 -12   4    0.94    0.27
   2 -12   4    1.07    0.20
   2  12   4    1.18    0.44
   2  12   4    0.88    0.24
   3 -12   4    1.19    0.27
  -3 -12  -4    1.33    0.27
   3 -12   4    0.69    0.15
   3  12   4    0.95    0.23
   3  12   4    1.03    0.32
   4 -12   4    0.12    0.21
  -4 -12  -4    0.19    0.16
   4  12   4    0.83    0.28
  -5 -12  -4    7.18    0.40
   5 -12   4    6.24    0.39
   5  12   4    6.59    0.44
   5  12   4    5.83    0.38
   6 -12   4    1.98    0.23
   6 -12   4    1.50    0.31
   6  12   4    1.97    0.37
   7 -12   4    0.13    0.15
  -8  13   4    0.37    0.10
   7 -13  -4    2.00    0.26
   7  13  -4    2.26    0.26
   6 -13  -4    0.35    0.14
   6  13  -4    0.27    0.15
  -5 -13   4   27.33    1.06
   5 -13  -4   29.88    1.08
   4 -13  -4   20.04    0.74
  -4 -13   4   18.91    0.77
   4  13  -4   18.87    0.75
   3 -13  -4    7.13    0.36
  -3 -13   4    7.11    0.41
  -3 -13   4    7.00    0.49
   3 -13  -4    7.31    0.46
   3  13  -4    6.84    0.37
   2 -13  -4   56.71    1.82
  -2 -13   4   52.26    1.84
   2 -13  -4   55.13    1.84
  -2 -13   4   52.21    1.85
   2  13  -4   54.94    1.84
  -1 -13   4    7.28    0.44
   1 -13  -4    7.48    0.50
   1 -13  -4    7.97    0.40
   1 -13  -4    8.16    0.36
  -1 -13   4    7.54    0.41
   0 -13   4    5.59    0.33
   0 -13   4    5.22    0.38
   0 -13   4    4.40    0.39
   0 -13  -4    5.79    0.35
  -1 -13  -4   25.35    0.93
   1 -13   4   22.38    0.96
   1 -13   4   24.57    0.94
   1 -13   4   26.31    0.89
   1  13   4   25.58    0.91
  -2 -13  -4   14.91    0.60
  -2 -13  -4   13.31    0.67
   2 -13   4   14.90    0.58
   2 -13   4   14.29    0.68
   2  13   4   15.04    0.59
   3 -13   4   20.49    0.95
  -3 -13  -4   22.62    0.82
   3 -13   4   21.80    0.81
   3  13   4   21.04    0.82
   4 -13   4    8.37    0.41
  -4 -13  -4    8.85    0.43
   4 -13   4    8.25    0.48
   4  13   4    8.63    0.44
   5 -13   4    4.86    0.40
   5 -13   4    4.58    0.31
   5  13   4    4.09    0.36
   6 -13   4    3.15    0.25
   6 -13   4    2.66    0.31
   6  13   4    2.39    0.42
  -8  14   4    0.57    0.14
   7 -14  -4    2.08    0.26
   7  14  -4    1.78    0.26
   6 -14  -4    2.94    0.26
   6  14  -4    3.24    0.28
  -5 -14   4    0.07    0.19
   5 -14  -4    0.11    0.13
   5  14  -4    0.00    0.14
  -4 -14   4   41.74    1.47
   4 -14  -4   42.62    1.45
   4  14  -4   41.54    1.48
  -3 -14   4    3.26    0.41
   3 -14  -4    3.32    0.37
   3 -14  -4    3.72    0.27
  -3 -14   4    4.54    0.33
   3  14  -4    3.67    0.28
  -2 -14   4    1.58    0.24
  -2 -14   4    1.76    0.26
   2 -14  -4    1.92    0.30
   2 -14  -4    1.67    0.21
  -2  14   4    1.48    0.25
   2  14  -4    2.05    0.24
   1 -14  -4    0.81    0.14
   1 -14  -4    0.30    0.16
  -1 -14   4    0.60    0.18
  -1 -14   4    0.65    0.19
   0 -14   4    2.77    0.34
   0 -14   4    2.99    0.32
   0 -14   4    3.25    0.24
   0 -14  -4    3.00    0.32
   0 -14  -4    2.54    0.29
   1 -14   4   23.21    0.80
  -1 -14  -4   21.45    0.83
   1 -14   4   20.30    0.84
  -1 -14  -4   21.89    0.81
   1 -14   4   20.28    0.86
   1  14   4   22.98    0.81
   2 -14   4    3.94    0.27
  -2 -14  -4    4.21    0.29
  -2 -14  -4    4.10    0.42
   2 -14   4    4.00    0.42
   2  14   4    3.78    0.30
  -3 -14  -4   34.87    1.24
   3 -14   4   34.00    1.23
   3  14   4   35.71    1.24
   4 -14   4    3.98    0.40
  -4 -14  -4    4.01    0.30
   4 -14   4    3.36    0.29
   4  14   4    3.32    0.31
   5 -14   4    1.41    0.27
   5 -14   4    1.37    0.24
  -5 -14  -4    1.01    0.24
   5  14   4    1.32    0.30
   6 -14   4    0.28    0.16
   6 -14   4    0.32    0.21
   7 -15  -4    0.90    0.18
   7  15  -4    1.29    0.26
   6 -15  -4    0.22    0.14
   6  15  -4    0.47    0.15
   5 -15  -4    1.43    0.24
  -5 -15   4    2.09    0.31
   5  15  -4    1.35    0.24
   4 -15  -4    0.57    0.25
   4 -15  -4    0.65    0.15
  -4 -15   4    0.49    0.17
   4  15  -4    0.59    0.16
  -3 -15   4    4.41    0.33
   3 -15  -4    3.89    0.28
  -3 -15   4    4.03    0.40
   3 -15  -4    3.89    0.38
   3  15  -4    4.34    0.31
   2 -15  -4    5.20    0.36
  -2 -15   4    4.82    0.39
  -2 -15   4    4.79    0.33
   2 -15  -4    5.36    0.30
   2  15  -4    5.39    0.33
  -2  15   4    4.11    0.39
   1 -15  -4    9.34    0.41
  -1 -15   4    8.59    0.44
  -1 -15   4    8.52    0.46
   1 -15  -4    9.16    0.54
   1 -15  -4    9.14    0.44
  -1  15   4    7.36    0.57
   0 -15  -4    6.83    0.38
   0 -15  -4    6.68    0.40
   0 -15   4    6.15    0.41
   0 -15   4    6.26    0.40
   0 -15   4    6.71    0.33
  -1 -15  -4    1.85    0.26
  -1 -15  -4    1.77    0.30
   1 -15   4    2.08    0.22
   1 -15   4    1.67    0.27
   1 -15   4    2.57    0.32
   1  15   4    2.01    0.26
   2 -15   4    0.07    0.21
  -2 -15  -4   -0.03    0.13
   2 -15   4   -0.26    0.11
  -2 -15  -4   -0.22    0.21
   2  15   4   -0.04    0.14
   3 -15   4    3.78    0.29
  -3 -15  -4    3.74    0.30
   3  15   4    4.34    0.32
   4 -15   4    0.50    0.15
  -4 -15  -4    0.33    0.14
   4 -15   4    0.11    0.24
   4  15   4    0.12    0.17
   5 -15   4    5.91    0.34
   5 -15   4    5.40    0.36
  -5 -15  -4    5.79    0.33
   5  15   4    5.83    0.39
   6 -15   4    4.19    0.32
   7 -16  -4   20.03    0.79
   7  16  -4   21.18    0.79
  -7  16   4   21.56    0.74
   6 -16  -4    6.48    0.36
  -6 -16   4    6.76    0.44
   6  16  -4    7.22    0.38
   5 -16  -4    3.48    0.28
  -5 -16   4    3.25    0.33
   5  16  -4    3.02    0.29
   4 -16  -4  108.28    3.65
  -4 -16   4  107.78    3.65
   4 -16  -4  110.66    3.65
   4  16  -4  116.33    3.68
   3 -16  -4    4.65    0.31
   3 -16  -4    4.62    0.37
  -3 -16   4    4.88    0.34
   3  16  -4    4.97    0.33
  -2 -16   4   14.36    0.63
   2 -16  -4   14.60    0.62
  -2 -16   4   14.64    0.61
   2 -16  -4   15.26    0.59
   2  16  -4   15.27    0.61
  -2  16   4   12.88    0.65
   1 -16  -4    3.06    0.29
  -1 -16   4    3.35    0.31
   1 -16  -4    4.14    0.43
  -1 -16   4    2.00    0.30
   0 -16   4   37.85    1.36
   0 -16  -4   38.44    1.35
   0 -16   4   39.81    1.34
   0 -16   4   38.66    1.37
   0 -16  -4   38.47    1.35
  -1 -16  -4   18.64    0.76
   1 -16   4   19.82    0.78
   1 -16   4   20.58    0.74
   1 -16   4   17.63    0.79
  -1 -16  -4   19.75    0.75
   1  16   4   19.84    0.76
   2 -16   4   11.45    0.48
   2 -16   4   10.89    0.56
  -2 -16  -4   10.83    0.49
  -2 -16  -4   11.46    0.59
   2  16   4   10.53    0.50
   3 -16   4    2.60    0.26
  -3 -16  -4    2.87    0.27
   3  16   4    2.39    0.29
  -4 -16  -4    1.81    0.25
   4 -16   4    1.87    0.24
   4  16   4    1.51    0.28
  -5 -16  -4    1.35    0.21
   5 -16   4    1.08    0.28
   5  16   4    1.42    0.32
  -7  17   4    6.50    0.31
  -6 -17   4   12.74    0.55
   6  17  -4   11.82    0.53
  -5 -17   4    4.86    0.33
   5 -17  -4    4.33    0.30
   5  17  -4    4.11    0.32
   4 -17  -4   46.02    1.62
   4 -17  -4   47.60    1.65
  -4 -17   4   49.76    1.64
   4  17  -4   45.80    1.65
  -3 -17   4    0.36    0.20
  -3 -17   4    0.60    0.17
   3 -17  -4    0.08    0.15
   3 -17  -4    0.32    0.14
   3  17  -4    0.47    0.16
  -3  17   4    0.45    0.21
  -2 -17   4    0.21    0.20
   2 -17  -4    0.43    0.14
  -2 -17   4    0.35    0.15
   2 -17  -4    0.59    0.17
   2  17  -4    0.55    0.16
  -2  17   4    0.78    0.25
   1 -17  -4  111.92    3.55
   1 -17  -4  101.66    3.53
  -1 -17   4  108.91    3.56
  -1 -17   4  107.22    3.54
   0 -17  -4    8.37    0.44
   0 -17   4    7.95    0.44
   0 -17   4    8.61    0.40
   0 -17  -4    7.99    0.42
   0 -17   4    7.31    0.43
  -1 -17  -4    1.99    0.27
   1 -17   4    2.44    0.39
   1 -17   4    2.66    0.30
  -1 -17  -4    2.39    0.30
   1 -17   4    2.98    0.25
   1  17   4    2.24    0.29
  -2 -17  -4    8.47    0.49
   2 -17   4    8.36    0.49
  -2 -17  -4    9.74    0.44
   2 -17   4    9.06    0.43
   2  17   4    9.02    0.45
   3 -17   4   11.13    0.50
  -3 -17  -4   12.15    0.51
   3  17   4   11.19    0.52
  -4 -17  -4   65.82    2.09
   4 -17   4   59.49    2.08
   4  17   4   60.52    2.09
   5 -17   4    0.85    0.18
  -5 -17  -4    0.54    0.13
   5  17   4    1.53    0.36
  -7  18   4    0.82    0.18
   6 -18  -4    6.02    0.35
  -6 -18   4    5.70    0.37
   6  18  -4    5.92    0.36
  -6  18   4    6.10    0.32
   5 -18  -4   33.33    1.19
   5  18  -4   33.86    1.21
  -4 -18   4    0.57    0.27
   4 -18  -4    0.27    0.14
   4 -18  -4   -0.08    0.20
  -4 -18   4    0.14    0.14
  -4  18   4    0.28    0.20
   4  18  -4    0.15    0.15
  -3 -18   4    6.11    0.43
   3 -18  -4    6.46    0.40
  -3 -18   4    6.35    0.37
   3 -18  -4    6.38    0.36
  -3  18   4    5.98    0.42
   3  18  -4    6.64    0.38
  -2 -18   4    0.82    0.17
  -2 -18   4    0.50    0.18
   2 -18  -4    1.00    0.26
   2 -18  -4    1.03    0.23
   2  18  -4    1.15    0.24
  -2  18   4    0.47    0.46
  -1 -18   4   40.84    1.41
  -1 -18   4   41.49    1.43
   1 -18  -4   42.16    1.42
   1 -18  -4   36.97    1.42
   0 -18   4   16.50    0.67
   0 -18  -4   16.85    0.67
   0 -18  -4   15.95    0.66
   0 -18   4   16.13    0.68
   1 -18   4    0.58    0.16
  -1 -18  -4    0.24    0.14
   1 -18   4    0.33    0.17
  -1 -18  -4    0.40    0.15
   1 -18   4    0.49    0.22
   1  18   4    0.40    0.17
  -2 -18  -4    4.07    0.37
   2 -18   4    3.39    0.40
   2 -18   4    4.37    0.38
  -2 -18  -4    4.19    0.30
  -3 -18  -4    1.79    0.24
   3 -18   4    1.47    0.24
   3  18   4    1.46    0.28
   4 -18   4    4.27    0.30
  -4 -18  -4    5.21    0.29
   4  18   4    4.09    0.35
  -5 -18  -4    8.69    0.38
   5 -18   4    8.97    0.44
   5  18   4    8.67    0.53
   6 -19  -4    2.74    0.30
   6  19  -4    3.17    0.30
  -6  19   4    2.71    0.22
  -5 -19   4    7.51    0.38
   5 -19  -4    7.85    0.40
   5  19  -4    7.30    0.40
  -5  19   4    7.52    0.38
  -4 -19   4    4.36    0.31
   4 -19  -4    3.61    0.29
   4 -19  -4    3.87    0.37
  -4 -19   4    3.39    0.44
  -4  19   4    4.05    0.34
   4  19  -4    3.75    0.31
   3 -19  -4   14.82    0.61
  -3 -19   4   15.26    0.60
   3 -19  -4   13.98    0.58
  -3 -19   4   13.71    0.62
  -3  19   4   12.98    0.63
   3  19  -4   13.23    0.60
  -2 -19   4    4.25    0.31
   2 -19  -4    3.97    0.32
  -2 -19   4    4.19    0.34
   2 -19  -4    4.25    0.30
   2  19  -4    4.50    0.33
   1 -19  -4   -0.05    0.12
  -1 -19   4   -0.11    0.15
  -1 -19   4    0.05    0.15
   1 -19  -4    0.01    0.23
   0 -19  -4    9.66    0.48
   0 -19   4   10.63    0.50
   0 -19   4    9.62    0.49
   0 -19  -4   10.14    0.47
  -1 -19  -4    1.77    0.26
   1 -19   4    2.01    0.24
   1 -19   4    1.37    0.24
  -1 -19  -4    2.09    0.27
   1 -19   4    2.21    0.30
   1  19   4    1.99    0.29
   2 -19   4    5.45    0.33
   2 -19   4    6.15    0.41
  -2 -19  -4    5.12    0.38
  -2 -19  -4    6.30    0.35
   2  19   4    5.27    0.36
  -3 -19  -4    0.44    0.13
   3 -19   4    0.19    0.14
   3  19   4    0.07    0.17
  -4 -19  -4    0.35    0.12
   4 -19   4    0.52    0.16
   4  19   4    0.62    0.39
   5 -19   4    6.32    0.58
  -5 -19  -4    6.81    0.31
  -6 -20   4    0.21    0.19
  -6  20   4    0.51    0.15
   6  20  -4    0.45    0.19
  -5 -20   4    7.32    0.36
   5 -20  -4    7.20    0.40
   5  20  -4    7.02    0.39
  -5  20   4    7.23    0.37
   4 -20  -4   26.68    1.02
   4 -20  -4   27.08    1.01
  -4 -20   4   30.85    1.02
  -4 -20   4   27.58    1.06
   4  20  -4   27.38    1.03
  -3 -20   4   18.52    0.74
   3 -20  -4   18.54    0.72
   3 -20  -4   17.02    0.70
  -3 -20   4   18.48    0.71
  -3  20   4   17.38    0.76
   3  20  -4   17.30    0.73
   2 -20  -4    5.00    0.33
  -2 -20   4    5.39    0.36
  -2 -20   4    5.75    0.38
   2 -20  -4    5.41    0.35
   2  20  -4    5.14    0.35
   1 -20  -4   39.06    1.64
  -1 -20   4   44.22    1.53
  -1 -20   4   44.58    1.51
   1 -20  -4   45.05    1.52
   0 -20  -4   -0.13    0.16
   0 -20   4   -0.05    0.15
   0 -20  -4    0.12    0.14
   0 -20   4    0.03    0.17
  -1 -20  -4   52.61    1.78
  -1 -20  -4   52.77    1.77
   1 -20   4   51.00    1.78
   1 -20   4   50.91    1.77
   1 -20   4   52.32    1.79
   1  20   4   50.89    1.78
   2 -20   4   27.33    0.99
  -2 -20  -4   27.00    0.96
  -2 -20  -4   26.37    0.98
   2 -20   4   25.42    0.96
   2  20   4   25.56    0.98
   3 -20   4   28.06    1.05
  -3 -20  -4   32.19    1.06
   3  20   4   28.05    1.07
  -4 -20  -4    0.19    0.10
   4 -20   4    0.13    0.15
   4  20   4   -0.25    0.20
  -5 -20  -4    5.88    0.27
  -5 -21   4   29.92    1.06
   5 -21  -4   29.71    1.08
  -5  21   4   31.15    1.07
   5  21  -4   31.05    1.09
   4 -21  -4    0.10    0.19
  -4 -21   4    0.09    0.12
   4 -21  -4    0.22    0.15
   4  21  -4    0.08    0.15
  -4  21   4    0.42    0.24
  -3 -21   4    9.03    0.47
   3 -21  -4    9.58    0.44
  -3 -21   4    8.63    0.43
   3 -21  -4    8.15    0.42
   3  21  -4    8.57    0.45
   2 -21  -4    0.30    0.13
  -2 -21   4   -0.04    0.14
  -2 -21   4    0.18    0.16
   2  21  -4    0.29    0.16
  -1 -21   4   21.76    0.83
   1 -21  -4   21.00    0.82
  -1 -21   4   21.09    0.81
   0 -21   4    7.05    0.40
   0 -21   4    7.91    0.43
   0 -21  -4    7.14    0.40
   0 -21  -4    7.94    0.41
   0  21   4    7.20    0.41
   1 -21   4   36.53    1.30
   1 -21   4   37.34    1.31
  -1 -21  -4   35.24    1.27
  -1 -21  -4   37.82    1.29
   1  21   4   35.28    1.30
  -2 -21  -4    1.32    0.23
   2 -21   4    1.76    0.30
   2 -21   4    1.75    0.23
  -2 -21  -4    1.53    0.29
   2  21   4    1.19    0.21
  -3 -21  -4    5.21    0.29
   3 -21   4    4.94    0.31
   3  21   4    5.09    0.36
  -4 -21  -4    2.28    0.19
   4 -21   4    2.25    0.28
   4  21   4    2.73    0.39
  -5 -21  -4    6.30    0.29
  -5 -22   4    0.27    0.11
   5 -22  -4    0.49    0.18
   5  22  -4    0.32    0.17
  -4 -22   4    0.20    0.11
   4 -22  -4   -0.08    0.17
   4 -22  -4    0.10    0.15
   4  22  -4    0.20    0.16
  -3 -22   4    0.56    0.14
   3 -22  -4    0.51    0.16
   3  22  -4    0.51    0.17
   2 -22  -4    0.65    0.14
  -2 -22   4    0.41    0.14
  -2 -22   4    0.23    0.15
   2  22  -4    0.49    0.17
  -1 -22   4    0.99    0.25
  -1 -22   4    0.56    0.16
   1 -22  -4    0.31    0.13
   1  22  -4    0.44    0.16
   0 -22  -4    2.06    0.28
   0 -22   4    1.82    0.30
   0 -22  -4    1.93    0.25
   0 -22   4    2.02    0.27
   0  22   4    2.02    0.29
  -1 -22  -4    0.29    0.14
  -1 -22  -4    0.25    0.14
   1 -22   4    0.46    0.15
   1  22   4    0.17    0.17
   2 -22   4    2.85    0.26
   2 -22   4    2.94    0.30
  -2 -22  -4    2.65    0.29
   2  22   4    2.61    0.31
   3 -22   4    4.98    0.39
  -3 -22  -4    4.45    0.26
   3  22   4    4.31    0.37
   4 -22   4    0.15    0.21
  -4 -22  -4   -0.08    0.08
  -5 -23   4   12.44    0.47
  -4 -23   4    0.85    0.17
   4 -23  -4    0.56    0.19
   4  23  -4    0.53    0.16
   3 -23  -4    4.70    0.30
  -3 -23   4    4.29    0.28
  -3 -23   4    4.37    0.31
   3  23  -4    4.72    0.32
   2 -23  -4    0.45    0.14
  -2 -23   4    0.45    0.15
  -2 -23   4    0.24    0.13
   2  23  -4    0.53    0.17
  -1 -23   4    7.05    0.37
  -1 -23   4    6.77    0.38
   1 -23  -4    6.65    0.36
   1  23  -4    5.83    0.38
   0 -23   4    8.86    0.49
   0 -23  -4    9.08    0.43
   0 -23   4    9.69    0.45
   0  23   4    8.60    0.45
   1  23   4   11.66    0.53
  -2 -23  -4    3.13    0.22
   2 -23   4    3.52    0.29
  -2 -23  -4    3.18    0.28
   2  23   4    2.24    0.34
  -3 -23  -4    8.41    0.36
   3  23   4    8.80    0.50
  -4 -23  -4    8.10    0.33
  -5 -24   4    0.15    0.10
  -4 -24   4   12.46    0.48
   4  24  -4   11.83    0.52
  -3 -24   4   27.26    0.96
   3 -24  -4   27.46    0.96
  -3 -24   4   26.84    0.96
   3  24  -4   25.81    1.01
   2 -24  -4    7.66    0.37
  -2 -24   4    7.62    0.36
  -2 -24   4    7.33    0.38
   2  24  -4    7.16    0.40
  -1 -24   4    1.85    0.27
   1 -24  -4    2.31    0.26
  -1 -24   4    1.82    0.24
   1  24  -4    1.77    0.26
  -1  24   4    1.59    0.29
   0 -24   4   20.09    0.75
   0 -24  -4   18.96    0.74
   0 -24  -4   18.93    0.74
   0 -24   4   20.18    0.75
   0  24   4   19.22    0.77
  -1 -24  -4    0.37    0.12
   1 -24   4    0.79    0.20
  -1 -24  -4    0.34    0.12
   1  24   4    0.39    0.19
  -2 -24  -4   18.24    0.67
   2 -24   4   18.55    0.69
  -2 -24  -4   18.40    0.69
   2  24   4   17.47    0.73
  -3 -24  -4   25.73    0.89
  -4 -24  -4    2.96    0.18
  -5 -25   4    0.94    0.17
  -4 -25   4    6.73    0.30
   4  25  -4    6.57    0.39
   3 -25  -4    8.14    0.37
  -3 -25   4    8.55    0.39
  -3 -25   4    8.36    0.36
   3  25  -4    8.44    0.42
  -2 -25   4    2.35    0.22
   2 -25  -4    2.73    0.21
  -2 -25   4    2.90    0.24
   2  25  -4    2.87    0.43
   1 -25  -4    0.09    0.11
  -1 -25   4    0.17    0.13
  -1 -25   4   -0.04    0.11
   1  25  -4    0.06    0.15
  -1  25   4    0.17    0.24
   0 -25  -4   30.96    1.10
   0 -25   4   31.53    1.10
   0 -25  -4   31.32    1.10
   0 -25   4   31.10    1.11
   0  25   4   30.91    1.14
   0  25  -4   32.07    1.13
  -1 -25  -4    9.67    0.42
   1 -25   4   10.32    0.44
  -1 -25  -4    9.83    0.43
   1  25   4    9.83    0.50
   2 -25   4   -0.06    0.13
  -2 -25  -4    0.30    0.15
  -2 -25  -4   -0.01    0.10
   2  25   4    0.37    0.26
  -3 -25  -4    0.05    0.08
  -4 -26   4    0.25    0.08
   3 -26  -4    0.00    0.12
  -3 -26   4    0.04    0.09
   3  26  -4    0.07    0.17
  -2 -26   4    3.89    0.25
  -2 -26   4    3.85    0.24
   2 -26  -4    3.81    0.24
   2  26  -4    4.01    0.31
  -2  26   4    3.91    0.38
   1 -26  -4    5.66    0.29
  -1 -26   4    5.59    0.30
  -1 -26   4    5.48    0.31
   1  26  -4    5.63    0.36
  -1  26   4    6.49    0.42
   0 -26  -4    0.12    0.10
   0 -26   4    0.29    0.16
   0 -26  -4    0.33    0.17
   0 -26   4    0.15    0.11
   0  26  -4   -0.15    0.15
   0  26   4    0.29    0.22
  -1 -26  -4    6.32    0.31
  -1 -26  -4    5.91    0.30
   1 -26   4    5.88    0.30
  -1  26  -4    5.95    0.37
   1  26   4    6.23    0.46
  -2 -26  -4    0.20    0.17
  -2 -26  -4    0.04    0.10
   2 -26   4    0.39    0.15
  -3 -26  -4    1.01    0.13
  -3 -27   4    0.01    0.14
   3 -27  -4    0.05    0.12
  -3 -27   4   -0.18    0.13
  -2 -27   4    6.25    0.29
   2 -27  -4    6.20    0.29
  -2 -27   4    5.96    0.30
   2  27  -4    6.17    0.37
  -1 -27   4   15.26    0.57
  -1 -27   4   15.39    0.57
   1 -27  -4   15.34    0.57
   1  27  -4   14.60    0.62
   0 -27  -4   25.83    0.89
   0 -27   4   25.20    0.90
   0  27  -4   25.54    0.93
   1 -27   4    1.19    0.18
  -1 -27  -4    1.18    0.20
  -1 -27  -4    1.31    0.17
  -1  27  -4    0.97    0.23
  -2 -27  -4    4.10    0.22
  -3 -28   4    3.08    0.18
   2 -28  -4    3.44    0.20
  -2 -28   4    3.29    0.21
  -2 -28   4    3.75    0.21
   1 -28  -4    2.06    0.17
  -1 -28   4    2.53    0.22
  -1 -28   4    2.27    0.18
   0 -28  -4    1.92    0.18
   0 -28   4    2.22    0.18
  -1 -28  -4    1.15    0.18
   1 -28   4    1.53    0.18
  -1 -29   4   11.80    0.44
   1 -29  -4   11.68    0.43
   0 -29   4    0.81    0.14
   0 -29  -4    0.67    0.14
  -9   0   5    0.04    0.09
  -8   0   5    0.06    0.11
   8   0  -5    0.29    0.18
   7   0  -5   -0.02    0.15
  -7   0   5    0.06    0.14
   6   0  -5    0.15    0.15
   6   0  -5    0.09    0.23
  -6   0   5    0.26    0.15
   5   0  -5    0.25    0.13
   5   0  -5    0.29    0.27
  -4   0   5   -0.13    0.19
   4   0  -5    0.32    0.18
   4   0  -5    0.10    0.13
   3   0  -5    0.08    0.10
   2   0  -5    0.05    0.06
  -2   0   5    0.01    0.07
   1   0  -5    0.03    0.05
  -1   0   5    0.06    0.07
   0   0  -5    0.01    0.05
  -1   0  -5    0.55    0.10
   3   0   5    0.10    0.18
   3   0   5   -0.06    0.16
   3   0   5    0.15    0.18
   4   0   5   -0.12    0.16
   4   0   5   -0.09    0.18
   4   0   5    0.18    0.19
   5   0   5    0.10    0.16
   5   0   5    0.19    0.18
   5   0   5    0.01    0.17
   6   0   5   -0.12    0.13
   6   0   5    0.03    0.21
   6   0   5    0.22    0.13
   7   0   5   -0.11    0.10
   7   0   5    0.02    0.11
  -9  -1   5    1.14    0.14
  -9   1   5    1.35    0.15
  -8  -1   5    2.35    0.21
   8  -1  -5    2.28    0.29
  -8   1   5    2.04    0.20
   8   1  -5    2.42    0.29
   7  -1  -5    2.33    0.28
  -7  -1   5    2.71    0.27
  -7   1   5    2.62    0.27
   7   1  -5    2.29    0.28
   6  -1  -5   81.13    2.56
  -6  -1   5   75.22    2.55
   6  -1  -5   76.00    2.57
   6   1  -5   81.42    2.56
  -6   1   5   76.06    2.55
   6   1  -5   67.91    2.62
   5  -1  -5    3.09    0.26
   5  -1  -5    2.79    0.42
   5   1  -5    2.61    0.25
   5   1  -5    3.10    0.45
   4  -1  -5   38.96    1.30
  -4  -1   5   38.08    1.32
   4  -1  -5   38.02    1.39
   4   1  -5   38.64    1.30
   4   1  -5   37.12    1.39
  -4   1   5   37.07    1.34
   3  -1  -5    1.28    0.18
   3   1  -5    0.99    0.17
  -2  -1   5   25.39    0.91
   2  -1  -5   25.32    0.90
   2   1  -5   25.70    0.91
  -2   1   5   26.16    0.92
   1  -1  -5  122.43    4.25
  -1  -1   5  135.59    4.26
   1   1  -5  127.67    4.25
  -1   1   5  138.48    4.26
   0  -1   5    4.57    0.22
   0  -1  -5    4.43    0.21
   0   1  -5    4.25    0.21
   0   1   5    4.69    0.22
  -1  -1  -5  104.09    3.41
  -1   1  -5  107.78    3.43
   3  -1   5   24.57    0.88
   3  -1   5   24.31    0.91
   3  -1   5   24.75    0.92
   3   1   5   22.73    0.94
   3   1   5   24.67    0.92
   3   1   5   24.58    0.88
   3   1   5   24.04    0.91
   4  -1   5   18.14    0.76
   4  -1   5   17.54    0.75
   4  -1   5   18.36    0.71
   4   1   5   17.87    0.77
   4   1   5   18.89    0.72
   4   1   5   18.24    0.75
   5  -1   5    5.45    0.38
   5  -1   5    5.38    0.38
   5  -1   5    5.98    0.38
   5   1   5    5.58    0.38
   5   1   5    5.03    0.38
   5   1   5    5.44    0.37
   6  -1   5    8.97    0.43
   6  -1   5    8.77    0.48
   6  -1   5    8.59    0.42
   6   1   5    9.22    0.43
   6   1   5    9.02    0.48
   6   1   5    9.24    0.43
   7  -1   5    0.21    0.11
   7  -1   5    0.10    0.11
   7   1   5    0.02    0.10
   7   1   5    0.13    0.11
  -9  -2   5    2.26    0.16
  -9   2   5    2.27    0.17
  -8  -2   5    0.53    0.13
   8  -2  -5    0.46    0.18
   8   2  -5    0.68    0.18
  -8   2   5    0.53    0.12
   7  -2  -5    3.22    0.30
  -7  -2   5    3.58    0.29
  -7   2   5    3.67    0.30
   7   2  -5    2.79    0.29
   6  -2  -5   13.87    0.65
  -6  -2   5   13.88    0.61
   6  -2  -5   15.09    0.61
   6   2  -5   14.78    0.60
  -6   2   5   14.52    0.61
   5  -2  -5    0.64    0.22
   5  -2  -5    0.69    0.16
   5   2  -5    0.36    0.30
   5   2  -5    0.50    0.14
  -4  -2   5   -0.02    0.18
   4  -2  -5    0.00    0.13
   4   2  -5    0.32    0.14
   4   2  -5    0.11    0.21
  -4   2   5    0.07    0.18
   3  -2  -5    6.83    0.35
   3   2  -5    7.30    0.36
  -2  -2   5   23.88    0.85
   2  -2  -5   24.35    0.84
   2   2  -5   23.81    0.85
  -2   2   5   22.54    0.85
   1  -2  -5   15.59    0.59
  -1  -2   5   16.42    0.60
  -1   2   5   16.75    0.60
   1   2  -5   16.33    0.60
   0  -2   5   75.81    2.54
   0  -2  -5   73.84    2.53
   0   2   5   82.61    2.54
   0   2  -5   78.20    2.54
  -1  -2  -5    0.77    0.08
  -1   2  -5    0.85    0.12
  -2   2  -5   26.63    0.89
  -2   2  -5   26.19    0.96
   3  -2   5    1.12    0.21
   3  -2   5    0.72    0.18
   3  -2   5    1.00    0.17
   3   2   5    0.53    0.22
   3   2   5    0.74    0.18
   3   2   5    0.77    0.18
   3   2   5    0.34    0.18
   4  -2   5    4.89    0.37
   4  -2   5    4.56    0.38
   4  -2   5    4.92    0.34
   4   2   5    5.44    0.38
   4   2   5    4.60    0.37
   4   2   5    5.08    0.34
   5  -2   5    7.98    0.44
   5  -2   5    8.02    0.45
   5  -2   5    8.81    0.46
   5   2   5    8.08    0.45
   5   2   5    8.60    0.47
   5   2   5    9.24    0.46
   6  -2   5    3.45    0.27
   6  -2   5    3.10    0.36
   6  -2   5    3.32    0.28
   6   2   5    3.35    0.27
   6   2   5    3.73    0.38
   6   2   5    3.45    0.28
   7  -2   5    1.36    0.17
   7  -2   5    1.56    0.18
   7   2   5    1.55    0.18
   7   2   5    1.18    0.19
   8  -3  -5    0.43    0.18
  -8  -3   5    0.34    0.12
   8   3  -5    0.17    0.19
  -8   3   5    0.33    0.12
   7  -3  -5    8.10    0.41
  -7  -3   5    8.32    0.41
  -7   3   5    8.15    0.42
   7   3  -5    7.77    0.42
   6  -3  -5    5.66    0.43
  -6  -3   5    6.16    0.38
   6  -3  -5    5.84    0.35
   6   3  -5    6.59    0.37
  -6   3   5    6.22    0.37
   5  -3  -5  105.72    3.43
   5  -3  -5  102.48    3.45
   5   3  -5  104.85    3.43
   4  -3  -5    9.23    0.57
  -4  -3   5    8.66    0.44
   4  -3  -5    8.78    0.40
   4   3  -5    8.81    0.53
   4   3  -5    8.80    0.40
  -4   3   5    8.33    0.45
   3  -3  -5    0.15    0.11
   3   3  -5    0.15    0.11
   2  -3  -5    8.31    0.35
  -2  -3   5    7.90    0.37
  -2   3   5    7.93    0.37
   2   3  -5    8.00    0.36
   0  -3  -5   54.05    1.82
   0  -3   5   57.59    1.85
   0   3   5   56.46    1.83
   0   3  -5   53.82    1.84
  -1  -3  -5   33.23    1.09
  -1   3  -5   33.05    1.13
  -1   3  -5   33.50    1.14
  -2   3  -5    8.29    0.36
   3  -3   5    0.71    0.17
   3  -3   5    1.37    0.30
   3   3   5    0.94    0.21
   3   3   5    0.66    0.19
   3   3   5    1.09    0.22
   3   3   5    0.75    0.23
   4  -3   5    0.51    0.18
   4  -3   5    0.82    0.20
   4  -3   5    0.81    0.18
   4   3   5    0.86    0.21
   4   3   5    0.76    0.19
   4   3   5    0.46    0.18
   5  -3   5    0.18    0.15
   5  -3   5    0.10    0.17
   5  -3   5    0.22    0.16
   5   3   5    0.26    0.18
   5   3   5    0.21    0.19
   5   3   5    0.29    0.17
   6  -3   5    0.15    0.13
   6  -3   5    0.28    0.21
   6  -3   5    0.09    0.13
   6   3   5   -0.11    0.13
   6   3   5    0.05    0.14
   6   3   5   -0.25    0.33
   7  -3   5    1.35    0.18
   7  -3   5    1.55    0.18
   7   3   5    1.92    0.33
   7   3   5    1.68    0.18
  -8  -4   5    2.38    0.21
   8  -4  -5    2.86    0.31
   8   4  -5    2.94    0.31
  -8   4   5    2.73    0.22
   7  -4  -5    3.17    0.29
  -7  -4   5    3.40    0.29
  -7   4   5    3.10    0.29
   7   4  -5    3.32    0.30
   6  -4  -5    3.49    0.37
  -6  -4   5    3.85    0.32
   6  -4  -5    3.69    0.31
  -6   4   5    3.81    0.32
   6   4  -5    3.85    0.30
   5  -4  -5   15.07    0.66
  -5  -4   5   16.05    0.63
   5  -4  -5   15.67    0.61
  -5   4   5   15.22    0.63
   5   4  -5   15.46    0.62
   4  -4  -5   56.21    1.95
   4  -4  -5   59.58    1.92
  -4  -4   5   56.91    1.94
  -4   4   5   56.28    1.94
   4   4  -5   58.77    1.92
   3  -4  -5   40.25    1.37
   3   4  -5   40.10    1.38
   3   4  -5   36.66    1.32
   2  -4  -5   20.17    0.74
  -2  -4   5   19.79    0.75
   2   4  -5   20.94    0.76
  -2   4   5   20.43    0.76
  -1  -4   5   72.69    2.40
   1  -4  -5   71.05    2.38
  -1   4   5   73.26    2.39
   0  -4  -5    2.21    0.15
   0   4   5    2.38    0.17
   0   4  -5    2.12    0.16
  -1   4  -5   12.16    0.48
  -1   4  -5   11.96    0.47
   2  -4   5   39.68    1.37
  -2   4  -5   41.40    1.38
   3  -4   5   26.36    0.98
   3  -4   5   25.94    0.97
   3  -4   5   25.31    0.93
   3   4   5   26.01    0.98
   3   4   5   26.15    0.98
   3   4   5   25.63    0.98
   3   4   5   26.65    0.98
   4  -4   5    2.93    0.34
   4  -4   5    2.72    0.31
   4  -4   5    3.09    0.29
   4   4   5    2.82    0.34
   4   4   5    2.91    0.31
   4   4   5    2.76    0.34
   5  -4   5    8.96    0.47
   5  -4   5   10.21    0.49
   5  -4   5   10.00    0.49
   5   4   5    9.86    0.49
   5   4   5    9.48    0.50
   5   4   5    9.92    0.50
   6  -4   5    0.07    0.13
   6  -4   5    0.08    0.13
   6   4   5   -0.21    0.28
   6   4   5   -0.04    0.13
   6   4   5    0.20    0.14
   7  -4   5    0.62    0.16
   7   4   5    0.83    0.20
   8  -5  -5   12.09    0.55
  -8  -5   5   12.68    0.49
  -8   5   5   12.16    0.49
   8   5  -5   12.83    0.55
  -7  -5   5    5.49    0.34
   7  -5  -5    5.00    0.33
  -7   5   5    5.36    0.34
   7   5  -5    4.91    0.34
   6  -5  -5   25.01    0.92
  -6  -5   5   24.32    0.92
   6  -5  -5   24.50    0.94
   6   5  -5   25.07    0.92
  -6   5   5   24.53    0.92
   5  -5  -5    7.47    0.43
  -5  -5   5    7.21    0.41
   5  -5  -5    7.26    0.37
   5   5  -5    7.06    0.37
  -5   5   5    7.11    0.41
   4  -5  -5   29.23    1.04
  -4  -5   5   29.45    1.07
   4  -5  -5   30.46    1.08
   4   5  -5   30.80    1.04
  -4   5   5   28.73    1.07
   3  -5  -5   39.84    1.34
   3  -5  -5   36.56    1.29
   3   5  -5   40.19    1.36
   3   5  -5   35.18    1.28
  -2  -5   5   17.16    0.68
   2  -5  -5   17.51    0.66
  -2   5   5   17.70    0.69
   2   5  -5   18.53    0.68
  -1  -5   5  127.54    4.10
   1  -5  -5  123.69    4.08
   1   5  -5  125.75    4.10
  -1   5   5  125.51    4.09
   0  -5  -5   20.09    0.72
   0   5   5   21.41    0.74
   0   5  -5   20.47    0.76
  -1   5  -5   27.18    0.98
  -1   5  -5   28.06    0.97
   2  -5   5    4.53    0.30
  -2   5  -5    4.69    0.33
   3  -5   5    0.89    0.22
   3  -5   5    0.38    0.18
   3  -5   5    0.88    0.23
   3   5   5    0.17    0.19
   3   5   5    0.22    0.20
   3   5   5    0.36    0.18
   4  -5   5    6.63    0.42
   4  -5   5    6.44    0.42
   4  -5   5    6.39    0.36
   4   5   5    6.32    0.43
   4   5   5    6.83    0.40
   4   5   5    6.48    0.42
   5  -5   5   33.83    1.25
   5  -5   5   36.70    1.27
   5  -5   5   36.14    1.28
   5   5   5   32.93    1.25
   5   5   5   37.17    1.28
   5   5   5   35.34    1.28
   6  -5   5    7.22    0.36
   6  -5   5    7.10    0.37
   6  -5   5    5.95    0.49
   6   5   5    7.17    0.38
   6   5   5    7.87    0.61
   6   5   5    6.94    0.36
   7  -5   5    5.00    0.26
   7   5   5    5.25    0.30
   8  -6  -5    0.05    0.18
  -8  -6   5    0.28    0.11
  -8   6   5    0.38    0.12
   8   6  -5    0.24    0.19
  -7  -6   5    0.02    0.14
   7  -6  -5    0.08    0.15
  -7   6   5    0.19    0.16
   7   6  -5    0.03    0.16
  -6  -6   5   10.16    0.48
   6  -6  -5   10.99    0.48
   6  -6  -5    9.55    0.51
   6   6  -5   10.08    0.49
  -6   6   5    9.86    0.48
   5  -6  -5   87.14    2.83
   5  -6  -5   85.15    2.85
  -5  -6   5   84.15    2.83
   5   6  -5   86.02    2.84
  -5   6   5   84.91    2.83
  -4  -6   5    5.24    0.39
   4  -6  -5    5.74    0.39
   4  -6  -5    6.02    0.32
  -4   6   5    5.18    0.41
   3  -6  -5   18.90    0.74
   3  -6  -5   18.71    0.69
   3   6  -5   17.10    0.68
   3   6  -5   19.30    0.76
  -2  -6   5   65.94    2.12
   2  -6  -5   60.59    2.06
  -2   6   5   57.22    2.08
   2   6  -5   61.61    2.08
  -1  -6   5    2.54    0.22
   1  -6  -5    2.71    0.18
   1   6  -5    2.25    0.19
  -1   6   5    2.29    0.21
   0  -6  -5   88.51    3.00
   0   6  -5   91.87    3.04
   0   6   5   96.22    3.02
  -1   6  -5   12.46    0.50
  -1   6  -5   11.00    0.52
   2  -6   5    6.44    0.35
  -2   6  -5    6.76    0.42
   3  -6   5   45.65    1.55
   3  -6   5   45.17    1.58
   3  -6   5   45.93    1.60
   3   6   5   44.24    1.59
   3   6   5   46.30    1.59
   3   6   5   45.98    1.56
   4  -6   5    1.06    0.27
   4  -6   5    1.56    0.31
   4  -6   5    1.24    0.30
   4   6   5    1.11    0.23
   4   6   5    1.14    0.21
   4   6   5    1.23    0.29
   5  -6   5   10.04    0.50
   5  -6   5   11.00    0.51
   5  -6   5   11.27    0.52
   5   6   5   10.99    0.53
   5   6   5   10.89    0.51
   5   6   5    9.85    0.51
   6  -6   5    0.16    0.13
   6  -6   5    0.18    0.21
   6  -6   5    0.12    0.13
   6   6   5   -0.11    0.12
   6   6   5    0.21    0.15
   7   6   5    0.38    0.18
   8  -7  -5    1.93    0.34
  -8  -7   5    2.71    0.20
   8   7  -5    2.68    0.34
  -8   7   5    2.71    0.22
   7  -7  -5    0.56    0.17
   7   7  -5    0.24    0.17
  -6  -7   5    6.88    0.39
  -6   7   5    6.99    0.41
   6   7  -5    6.13    0.50
  -5  -7   5    1.70    0.30
   5  -7  -5    1.88    0.23
   5   7  -5    1.78    0.24
  -5   7   5    1.71    0.31
   4  -7  -5   11.38    0.46
  -4  -7   5    9.87    0.51
  -4   7   5    8.99    0.53
   4   7  -5   10.92    0.45
   3  -7  -5   27.57    0.97
   3  -7  -5   27.12    1.03
   3   7  -5   28.66    1.06
   3   7  -5   26.67    0.97
   2  -7  -5   15.91    0.62
   1  -7  -5   13.58    0.51
  -1   7   5   12.99    0.54
   1   7  -5   12.89    0.53
   0  -7  -5    2.55    0.18
   0   7   5    2.63    0.21
   0   7  -5    2.99    0.23
   1  -7   5   25.04    0.93
  -1   7  -5   27.65    0.97
  -1   7  -5   26.36    0.99
   2  -7   5   26.31    0.98
   2   7   5   28.43    1.02
   2   7   5   26.58    0.99
  -2   7  -5   28.53    1.06
   2   7   5   29.92    1.15
   3  -7   5    3.59    0.37
   3  -7   5    4.64    0.39
   3  -7   5    3.74    0.29
   3   7   5    4.18    0.37
   3   7   5    4.59    0.33
   3   7   5    3.23    0.38
   4  -7   5    0.30    0.16
   4  -7   5    0.09    0.18
   4  -7   5    0.66    0.21
   4   7   5    0.10    0.20
   4   7   5    0.41    0.19
   4   7   5    0.12    0.18
   5  -7   5   10.99    0.53
  -5  -7  -5   11.60    0.58
   5  -7   5   12.36    0.54
   5  -7   5   11.78    0.54
   5   7   5   11.10    0.54
   5   7   5   12.32    0.57
   5   7   5   11.89    0.55
   6  -7   5    6.48    0.35
   6  -7   5    6.75    0.35
   6  -7   5    6.17    0.43
   6   7   5    6.85    0.35
   6   7   5    6.64    0.37
   7  -7   5    1.20    0.16
  -8  -8   5   21.67    0.75
   8  -8  -5   19.95    0.81
   8   8  -5   21.87    0.83
  -8   8   5   21.91    0.78
  -7  -8   5   25.75    0.93
   7  -8  -5   25.46    0.95
   7   8  -5   25.83    0.96
  -7   8   5   26.09    0.93
  -6  -8   5    1.42    0.28
   6  -8  -5    1.33    0.25
   6   8  -5    1.35    0.26
  -6   8   5    0.91    0.21
   5  -8  -5   79.84    2.59
  -5   8   5   74.15    2.58
   5   8  -5   78.76    2.59
  -4  -8   5   74.78    2.47
   4  -8  -5   81.57    2.46
  -4  -8   5   67.58    2.47
  -4   8   5   67.79    2.46
   4   8  -5   77.97    2.46
   3  -8  -5  183.79    5.95
   3   8  -5  183.91    6.05
   3   8  -5  184.89    5.96
   2  -8  -5   30.03    1.10
   2   8  -5   33.31    1.13
   2   8  -5   28.12    1.06
   1  -8  -5   46.61    1.59
  -1   8   5   45.55    1.61
   1   8  -5   48.29    1.62
   0  -8  -5  205.98    6.87
   0   8  -5  217.21    6.92
   0   8   5  216.04    6.89
   1  -8   5  105.75    3.63
  -1   8  -5  117.42    3.70
   2  -8   5   10.46    0.45
   2   8   5   10.04    0.48
  -2   8  -5   10.36    0.61
   2   8   5   10.14    0.54
   3  -8   5    1.67    0.36
   3  -8   5    2.17    0.35
   3  -8   5    2.47    0.26
   3   8   5    1.88    0.38
   3   8   5    1.86    0.28
   3   8   5    1.63    0.36
   4  -8   5    1.21    0.22
   4  -8   5    0.95    0.21
  -4  -8  -5    0.68    0.19
   4  -8   5    0.64    0.17
   4   8   5    0.64    0.21
   4   8   5    0.68    0.21
   4   8   5    0.83    0.23
   5  -8   5    0.91    0.18
  -5  -8  -5    0.64    0.22
   5  -8   5    1.19    0.29
   5  -8   5    1.12    0.27
   5   8   5    0.98    0.23
   5   8   5    0.79    0.19
   5   8   5    0.98    0.21
   6  -8   5   16.89    0.73
   6  -8   5   18.73    0.69
   6  -8   5   18.39    0.68
   6   8   5   17.74    0.70
   6   8   5   18.63    0.69
   7  -8   5    8.72    0.35
   8   9  -5    5.52    0.53
  -8   9   5    4.94    0.33
   7  -9  -5    4.24    0.31
  -7  -9   5    4.83    0.30
  -7   9   5    4.50    0.31
   7   9  -5    4.99    0.34
  -6  -9   5   21.29    0.82
   6  -9  -5   21.67    0.82
  -6   9   5   21.79    0.83
   6   9  -5   21.77    0.83
   5  -9  -5   30.48    1.06
  -5  -9   5   28.04    1.07
   5   9  -5   29.55    1.06
  -4  -9   5    0.20    0.22
   4  -9  -5    0.10    0.14
  -4  -9   5    0.01    0.22
   4   9  -5   -0.02    0.13
  -4   9   5    0.10    0.26
   3  -9  -5   10.51    0.46
   3   9  -5   10.60    0.46
   2  -9  -5  326.00   11.09
   2  -9  -5  348.31   11.16
   2   9  -5  354.52   11.11
   2   9  -5  354.64   11.19
   1  -9  -5    9.92    0.44
   1   9  -5   10.81    0.48
  -1   9   5    8.49    0.49
   0  -9   5    3.61    0.29
   0  -9  -5    4.32    0.26
   0   9  -5    4.16    0.32
   0   9   5    3.76    0.33
   1  -9   5   84.37    2.82
  -1   9  -5   87.71    2.90
   2   9   5   27.14    0.97
   2   9   5   26.87    1.02
  -2   9  -5   27.33    1.13
   3  -9   5   73.36    2.47
   3  -9   5   71.38    2.46
   3  -9   5   71.50    2.44
   3   9   5   73.97    2.44
   3   9   5   73.16    2.48
   3   9   5   76.60    2.48
  -4  -9  -5    4.34    0.34
   4  -9   5    4.17    0.39
   4  -9   5    4.49    0.36
   4  -9   5    4.34    0.33
   4   9   5    5.49    0.38
   4   9   5    4.50    0.40
   4   9   5    3.97    0.40
   5  -9   5   19.45    0.75
  -5  -9  -5   19.00    0.75
   5  -9   5   19.82    0.76
   5  -9   5   17.40    0.74
   5   9   5   20.41    0.78
   5   9   5   19.77    0.75
   5   9   5   17.72    0.76
   6  -9   5    0.37    0.34
   6  -9   5    0.12    0.16
   6  -9   5    0.34    0.13
   6   9   5   -0.07    0.15
   6   9   5    0.10    0.19
   7  -9   5    0.72    0.16
  -8 -10   5   -0.26    0.14
   7 -10  -5   -0.08    0.16
  -7 -10   5    0.29    0.15
  -7  10   5    0.32    0.17
   7  10  -5    0.17    0.17
  -6 -10   5   50.17    1.70
   6 -10  -5   47.94    1.71
   6  10  -5   50.46    1.72
  -6  10   5   50.64    1.70
  -5 -10   5    5.92    0.40
   5 -10  -5    6.22    0.36
  -5 -10   5    5.26    0.51
   5  10  -5    5.99    0.35
  -5  10   5    5.64    0.45
  -4 -10   5    3.06    0.42
   4 -10  -5    3.66    0.28
  -4 -10   5    3.38    0.39
   4  10  -5    4.06    0.28
   3 -10  -5    0.17    0.22
   3 -10  -5    0.29    0.14
  -3 -10   5    0.23    0.20
   2 -10  -5    2.09    0.31
   2 -10  -5    1.78    0.26
   2  10  -5    2.36    0.25
   2  10  -5    1.42    0.35
   1 -10  -5   96.28    3.34
   1 -10  -5  104.25    3.39
   1  10  -5  107.07    3.44
   0 -10  -5    1.38    0.23
   0 -10   5    1.28    0.25
   0  10   5    1.51    0.34
   0  10  -5    1.44    0.32
   1 -10   5    0.16    0.14
  -1  10  -5    0.13    0.23
   1  10   5   -0.02    0.18
   2 -10   5    0.46    0.15
   2  10   5    0.76    0.18
   2  10   5    0.51    0.23
   3 -10   5    0.91    0.22
   3 -10   5    0.93    0.17
   3 -10   5    0.69    0.26
   3  10   5    0.25    0.23
   3  10   5    0.33    0.17
   3  10   5    0.56    0.27
   4 -10   5    5.06    0.38
  -4 -10  -5    5.59    0.36
   4 -10   5    5.74    0.43
   4  10   5    5.73    0.43
   4  10   5    4.98    0.43
   5 -10   5    2.78    0.30
  -5 -10  -5    3.00    0.35
   5 -10   5    3.25    0.31
   5  10   5    3.18    0.32
   5  10   5    2.95    0.40
   5  10   5    2.46    0.35
   6 -10   5    0.17    0.12
   6 -10   5   -0.32    0.18
   6  10   5    0.14    0.16
   7 -11  -5    4.57    0.36
  -7 -11   5    4.49    0.30
   7  11  -5    4.46    0.33
  -6 -11   5    3.11    0.33
   6 -11  -5    2.94    0.28
   6  11  -5    2.29    0.28
  -6  11   5    2.42    0.38
  -5 -11   5    0.82    0.22
  -5 -11   5    0.95    0.25
   5 -11  -5    1.11    0.25
   5  11  -5    0.73    0.17
  -4 -11   5    6.79    0.50
  -4 -11   5    7.15    0.47
   4 -11  -5    8.34    0.39
   4  11  -5    7.71    0.39
  -3 -11   5    4.57    0.36
   3 -11  -5    4.24    0.37
  -3 -11   5    3.96    0.43
   3 -11  -5    4.34    0.30
   3  11  -5    5.05    0.32
   2 -11  -5   54.51    1.80
  -2 -11   5   52.49    1.83
  -2 -11   5   52.96    1.85
   2 -11  -5   53.99    1.83
   2  11  -5   55.87    1.82
  -2  11   5   53.56    1.84
   1 -11  -5   26.49    1.04
   1 -11  -5   27.09    0.98
   1  11  -5   29.93    1.16
   0 -11  -5    1.07    0.30
   0 -11   5    0.80    0.33
   0 -11   5    0.96    0.24
   0  11  -5    1.48    0.38
   1 -11   5   60.62    2.13
   1 -11   5   61.79    2.13
  -1 -11  -5   60.82    2.11
   1 -11   5   66.45    2.09
   1  11   5   64.85    2.10
   2 -11   5    1.42    0.27
   2 -11   5    2.11    0.26
   2  11   5    1.92    0.28
   2  11   5    1.42    0.27
   3 -11   5   21.93    1.06
   3 -11   5   22.67    0.83
   3  11   5   19.84    0.91
   3  11   5   23.33    0.91
   3  11   5   23.08    0.85
  -4 -11  -5   25.85    0.95
   4 -11   5   26.54    0.97
   4 -11   5   24.45    0.94
   4 -11   5   26.01    0.99
   4  11   5   25.65    1.01
   4  11   5   25.68    0.98
   4  11   5   25.06    0.96
  -5 -11  -5    0.36    0.17
   5 -11   5    0.46    0.18
   5 -11   5    0.60    0.21
   5  11   5    0.40    0.24
   5  11   5    0.30    0.22
   5  11   5    0.69    0.19
   6 -11   5    4.40    0.27
  -8  12   5   10.63    0.41
   7 -12  -5    1.25    0.28
  -7 -12   5    1.39    0.27
   7  12  -5    1.12    0.20
  -6 -12   5   18.92    0.76
   6 -12  -5   19.93    0.77
   6  12  -5   20.67    0.78
  -5 -12   5   39.35    1.43
   5 -12  -5   42.69    1.41
  -5 -12   5   36.80    1.41
   5  12  -5   42.83    1.43
   4 -12  -5   31.25    1.22
  -4 -12   5   32.24    1.20
   4 -12  -5   34.91    1.18
   4  12  -5   35.00    1.20
   3 -12  -5    8.22    0.45
  -3 -12   5    7.88    0.51
  -3 -12   5    8.31    0.45
   3 -12  -5    8.55    0.41
   3  12  -5    8.70    0.42
   2 -12  -5  118.80    3.78
   2 -12  -5  119.33    3.76
  -2 -12   5  112.14    3.78
  -2 -12   5  113.84    3.79
  -2  12   5  112.69    3.78
   1 -12  -5   22.27    0.80
   1 -12  -5   22.29    0.82
  -1 -12   5   21.62    0.84
  -1 -12   5   21.16    0.82
   1 -12  -5   21.19    0.89
   0 -12   5   64.69    2.08
   0 -12   5   62.98    2.11
   0 -12   5   61.64    2.10
   0 -12  -5   62.15    2.09
   0 -12  -5   60.58    2.13
   1 -12   5   57.15    2.00
   1 -12   5   61.86    1.97
   1 -12   5   59.42    2.01
  -1 -12  -5   58.12    1.98
   1  12   5   56.44    2.01
   1  12   5   59.86    1.99
   2 -12   5   40.85    1.48
  -2 -12  -5   39.37    1.48
   2 -12   5   44.09    1.44
   2  12   5   43.14    1.45
   2  12   5   41.27    1.49
   3 -12   5   30.88    1.21
   3 -12   5   33.04    1.18
  -3 -12  -5   33.81    1.19
   3  12   5   34.66    1.20
   3  12   5   33.81    1.24
   4 -12   5    0.04    0.16
   4 -12   5    0.09    0.20
  -4 -12  -5    0.25    0.15
   4  12   5   -0.09    0.25
   4  12   5   -0.02    0.20
   4  12   5    0.27    0.26
   5 -12   5   16.41    0.68
   5 -12   5   17.51    0.67
  -5 -12  -5   17.64    0.66
   5  12   5   16.24    0.69
   5  12   5   16.54    0.71
   6 -12   5   28.13    0.98
  -8  13   5    5.69    0.25
   7 -13  -5    8.21    0.45
   7  13  -5    9.21    0.45
   6 -13  -5    0.79    0.18
   6  13  -5    0.91    0.19
  -5 -13   5    2.17    0.35
   5 -13  -5    1.46    0.30
   5  13  -5    1.90    0.27
   4 -13  -5   23.13    1.00
   4 -13  -5   24.00    0.88
  -4 -13   5   22.54    0.90
   4  13  -5   25.01    0.90
   3 -13  -5   11.33    0.54
  -3 -13   5   12.26    0.53
   3 -13  -5   11.29    0.49
  -3 -13   5   10.82    0.57
   3  13  -5   10.93    0.50
  -2 -13   5    0.31    0.20
   2 -13  -5    0.60    0.15
  -2 -13   5    0.85    0.18
   2 -13  -5    0.66    0.16
  -2  13   5    0.79    0.19
   2  13  -5    0.40    0.16
   1 -13  -5    0.26    0.12
  -1 -13   5    0.07    0.18
  -1 -13   5    0.25    0.15
   1 -13  -5    0.31    0.14
  -1  13   5    0.46    0.24
   0 -13   5   28.93    0.96
   0 -13   5   26.42    0.98
   0 -13   5   27.25    1.00
   0 -13  -5   26.54    0.97
   0  13   5   24.83    1.01
   1 -13   5    0.10    0.14
   1 -13   5    0.26    0.19
  -1 -13  -5    0.21    0.16
   1 -13   5   -0.06    0.21
   1  13   5    0.01    0.26
   1  13   5   -0.08    0.17
   2 -13   5    2.11    0.41
  -2 -13  -5    2.66    0.41
   2 -13   5    3.20    0.27
   2  13   5    2.71    0.44
   2  13   5    2.51    0.32
  -3 -13  -5   30.99    1.12
   3 -13   5   30.21    1.11
   3  13   5   31.31    1.18
   3  13   5   32.23    1.14
   4 -13   5    2.27    0.34
   4 -13   5    1.50    0.27
  -4 -13  -5    1.73    0.25
   4  13   5    1.52    0.32
   4  13   5    2.02    0.54
   5 -13   5   24.64    0.90
  -5 -13  -5   24.71    0.89
   5 -13   5   24.26    0.91
   6 -13   5    6.95    0.34
   7 -14  -5    6.21    0.40
   7  14  -5    6.64    0.40
   6 -14  -5    2.43    0.28
   6  14  -5    2.02    0.29
   5 -14  -5   30.04    1.10
  -5 -14   5   32.37    1.12
   5  14  -5   29.54    1.12
   4 -14  -5    4.52    0.33
  -4 -14   5    4.48    0.35
   4 -14  -5    4.27    0.43
  -4 -14   5    3.07    0.47
   4  14  -5    4.73    0.34
  -3 -14   5    9.94    0.53
  -3 -14   5   10.05    0.48
   3 -14  -5    9.62    0.50
   3 -14  -5   10.42    0.46
   3  14  -5   10.03    0.47
  -2 -14   5    0.02    0.14
  -2 -14   5    0.90    0.19
   2 -14  -5   -0.09    0.13
   2 -14  -5    0.29    0.15
  -2  14   5    0.40    0.21
   2  14  -5    0.48    0.16
   1 -14  -5    1.02    0.23
   1 -14  -5    1.13    0.24
  -1 -14   5    0.86    0.19
  -1 -14   5    0.78    0.19
  -1  14   5    0.86    0.25
   0 -14  -5    2.11    0.30
   0 -14   5    1.20    0.31
   0 -14  -5    2.06    0.26
   0 -14   5    1.99    0.24
   0 -14   5    1.41    0.21
   0  14   5    1.99    0.42
   1 -14   5   21.67    0.86
  -1 -14  -5   22.13    0.85
  -1 -14  -5   22.36    0.83
   1 -14   5   21.63    0.87
   1 -14   5   22.54    0.82
   1  14   5   21.26    0.91
   1  14   5   22.51    0.84
  -2 -14  -5   10.19    0.56
   2 -14   5   10.72    0.47
  -2 -14  -5   11.01    0.48
   2 -14   5   10.98    0.58
   2  14   5    9.99    0.62
   2  14   5   10.30    0.51
  -3 -14  -5    8.33    0.41
   3 -14   5    7.27    0.47
   3  14   5    7.75    0.45
   4 -14   5    6.29    0.37
   4 -14   5    5.92    0.44
  -4 -14  -5    6.51    0.36
   4  14   5    5.95    0.42
   5 -14   5    0.12    0.17
   5 -14   5    0.11    0.19
  -5 -14  -5    0.26    0.13
   6 -14   5   20.05    0.74
   7 -15  -5    3.87    0.44
  -7  15   5    3.15    0.22
   7  15  -5    3.14    0.35
   6 -15  -5    9.33    0.46
   6  15  -5   10.26    0.48
   5 -15  -5    5.02    0.34
  -5 -15   5    6.28    0.39
   5  15  -5    4.92    0.35
   4 -15  -5   12.24    0.52
   4 -15  -5   11.32    0.58
  -4 -15   5   11.42    0.54
  -4 -15   5   10.98    0.63
   4  15  -5   12.55    0.55
  -3 -15   5    4.18    0.61
   3 -15  -5    5.43    0.39
  -3 -15   5    5.56    0.35
   3 -15  -5    4.77    0.32
   3  15  -5    4.44    0.34
  -2 -15   5   11.69    0.53
   2 -15  -5   12.65    0.55
  -2 -15   5   11.75    0.57
   2 -15  -5   13.02    0.53
  -2  15   5   11.24    0.57
   2  15  -5   13.33    0.55
   1 -15  -5   32.98    1.22
  -1 -15   5   33.89    1.21
   1 -15  -5   34.43    1.19
  -1 -15   5   34.45    1.19
  -1  15   5   31.72    1.22
   0 -15   5  126.82    3.88
   0 -15   5  118.73    3.88
   0 -15  -5  117.07    3.88
   0 -15  -5  120.41    3.88
   0 -15   5  116.40    3.89
   0  15   5  115.77    3.87
   0  15   5  112.34    3.89
   1 -15   5    2.59    0.26
   1 -15   5    2.59    0.33
  -1 -15  -5    2.66    0.26
  -1 -15  -5    1.98    0.31
   1 -15   5    1.86    0.38
   1  15   5    2.38    0.32
  -2 -15  -5    2.05    0.24
  -2 -15  -5    2.14    0.37
   2 -15   5    1.95    0.25
   2 -15   5    2.32    0.38
   2  15   5    1.73    0.32
   3 -15   5   23.46    0.89
  -3 -15  -5   25.92    0.91
   3  15   5   23.06    0.92
  -4 -15  -5   27.94    0.95
   4 -15   5   24.83    0.95
   4  15   5   25.23    0.97
   5 -15   5    4.15    0.47
   5 -15   5    3.16    0.36
  -5 -15  -5    3.20    0.25
  -7  16   5    0.28    0.10
   6 -16  -5    0.66    0.18
  -6 -16   5    0.40    0.26
   6  16  -5    0.59    0.19
  -5 -16   5   20.28    0.76
   5 -16  -5   18.34    0.74
   5  16  -5   19.45    0.77
  -4 -16   5   16.64    0.75
  -4 -16   5   16.09    0.68
   4 -16  -5   18.03    0.72
   4  16  -5   16.21    0.83
  -3 -16   5  128.52    4.15
  -3 -16   5  124.57    4.16
   3 -16  -5  126.36    4.15
   3 -16  -5  131.74    4.14
  -3  16   5  117.19    4.13
   3  16  -5  129.42    4.16
  -2 -16   5    1.93    0.26
   2 -16  -5    1.70    0.36
   2 -16  -5    1.68    0.27
   2  16  -5    2.26    0.28
  -2  16   5    1.41    0.35
   1 -16  -5    4.54    0.42
   1 -16  -5    5.81    0.35
  -1 -16   5    4.96    0.37
  -1 -16   5    5.71    0.35
  -1  16   5    4.41    0.47
   0 -16  -5   17.48    0.70
   0 -16  -5   17.75    0.70
   0 -16   5   18.15    0.71
   0 -16   5   17.05    0.72
   0  16   5   17.92    0.70
   0  16   5   16.13    0.82
  -1 -16  -5   51.29    1.73
  -1 -16  -5   48.19    1.72
   1 -16   5   51.98    1.72
   1 -16   5   49.91    1.74
   1  16   5   50.77    1.73
   2 -16   5   78.94    2.57
   2 -16   5   75.67    2.59
  -2 -16  -5   77.10    2.58
  -2 -16  -5   75.52    2.58
   2  16   5   77.95    2.58
  -3 -16  -5    9.95    0.46
   3 -16   5    9.42    0.46
   3  16   5    9.91    0.50
   4 -16   5    0.23    0.17
   4  16   5   -0.09    0.22
  -5 -16  -5   12.54    0.49
   5 -16   5   12.20    0.58
  -7  17   5    0.00    0.11
  -6 -17   5    0.20    0.21
   6 -17  -5    0.26    0.18
  -6  17   5    0.11    0.13
   6  17  -5   -0.01    0.18
   5 -17  -5    1.96    0.27
  -5 -17   5    2.26    0.28
   5  17  -5    1.79    0.28
  -4 -17   5    1.62    0.27
   4 -17  -5    1.72    0.26
   4 -17  -5    1.09    0.22
  -4 -17   5    1.29    0.27
  -4  17   5    1.96    0.30
   4  17  -5    1.41    0.27
   3 -17  -5    2.41    0.28
  -3 -17   5    1.88    0.34
   3 -17  -5    1.69    0.30
  -3 -17   5    1.88    0.27
  -3  17   5    1.60    0.32
   3  17  -5    1.59    0.29
  -2 -17   5   37.96    1.33
   2 -17  -5   38.18    1.32
  -2 -17   5   37.26    1.34
   2 -17  -5   37.65    1.33
   2  17  -5   38.08    1.34
  -2  17   5   36.28    1.35
   1 -17  -5   10.95    0.56
  -1 -17   5   11.52    0.51
   1 -17  -5   11.58    0.51
  -1 -17   5   11.77    0.54
  -1  17   5   10.50    0.62
   0 -17   5    0.78    0.18
   0 -17  -5    0.69    0.15
   0 -17   5    0.70    0.17
   0 -17  -5    0.74    0.18
   0  17   5    0.57    0.20
   1 -17   5    1.44    0.24
   1 -17   5    1.17    0.23
   1 -17   5    0.63    0.18
  -1 -17  -5    1.19    0.28
  -1 -17  -5    1.14    0.23
   1  17   5    1.28    0.31
  -2 -17  -5    9.44    0.50
   2 -17   5    9.46    0.51
   2 -17   5    9.09    0.46
  -2 -17  -5   10.23    0.45
   2  17   5    8.37    0.52
  -3 -17  -5    1.07    0.22
   3 -17   5    0.88    0.17
   3  17   5    0.78    0.22
  -4 -17  -5    0.06    0.11
   4 -17   5   -0.05    0.17
  -5 -17  -5    1.95    0.20
  -7  18   5    2.22    0.19
  -6 -18   5    3.37    0.33
   6 -18  -5    3.26    0.35
  -6  18   5    3.36    0.24
   6  18  -5    2.99    0.32
  -5 -18   5    5.36    0.33
   5 -18  -5    4.97    0.34
   5  18  -5    4.29    0.34
  -5  18   5    5.14    0.31
   4 -18  -5    3.43    0.33
  -4 -18   5    2.94    0.41
   4 -18  -5    2.88    0.29
  -4 -18   5    2.86    0.29
  -4  18   5    3.03    0.31
   4  18  -5    2.48    0.30
  -3 -18   5    0.41    0.15
  -3 -18   5    0.85    0.20
   3 -18  -5    0.55    0.16
  -3  18   5    0.60    0.20
   3  18  -5    0.72    0.21
   2 -18  -5    2.12    0.27
   2 -18  -5    1.07    0.27
  -2 -18   5    1.56    0.26
  -2 -18   5    1.56    0.29
   2  18  -5    1.50    0.28
  -2  18   5    1.88    0.40
   1 -18  -5   -0.36    0.13
  -1 -18   5   -0.05    0.15
  -1 -18   5    0.12    0.14
   1 -18  -5   -0.12    0.22
   0 -18   5    0.42    0.17
   0 -18  -5    0.28    0.16
   0 -18   5    0.44    0.16
   0 -18  -5    0.54    0.15
   0  18   5    0.42    0.20
   1 -18   5    5.69    0.39
  -1 -18  -5    6.08    0.35
  -1 -18  -5    6.42    0.38
   1 -18   5    5.58    0.35
   1 -18   5    5.54    0.43
   1  18   5    5.82    0.40
   2 -18   5   13.40    0.60
  -2 -18  -5   12.80    0.59
   2 -18   5   12.51    0.56
  -2 -18  -5   13.72    0.56
   2  18   5   13.25    0.60
   3 -18   5    1.20    0.26
  -3 -18  -5    1.51    0.22
   3  18   5    1.06    0.23
  -4 -18  -5    0.21    0.11
   4 -18   5    0.00    0.18
  -5 -18  -5    0.72    0.18
  -6 -19   5   44.64    1.53
   6  19  -5   44.58    1.57
  -6  19   5   47.91    1.53
   5 -19  -5    8.17    0.44
  -5 -19   5    9.26    0.41
   5  19  -5    8.35    0.44
  -5  19   5    8.88    0.41
  -4 -19   5    0.27    0.14
  -4 -19   5    0.24    0.22
   4 -19  -5    0.30    0.16
   4 -19  -5    0.25    0.18
  -4  19   5    0.41    0.18
   4  19  -5    0.50    0.18
  -3 -19   5    1.32    0.25
   3 -19  -5    1.11    0.26
  -3 -19   5    1.57    0.31
   3 -19  -5    1.19    0.27
   3  19  -5    1.42    0.28
  -3  19   5    1.49    0.36
  -2 -19   5    3.21    0.33
  -2 -19   5    3.17    0.29
   2 -19  -5    3.60    0.29
  -2  19   5    3.17    0.43
   1 -19  -5   80.11    2.77
  -1 -19   5   84.65    2.79
   1 -19  -5   84.26    2.79
  -1 -19   5   84.48    2.80
   0 -19   5    1.24    0.26
   0 -19  -5    1.10    0.25
   0 -19   5    1.54    0.29
   0 -19  -5    0.89    0.18
   0  19   5    0.81    0.23
  -1 -19  -5    1.37    0.26
   1 -19   5    1.33    0.23
   1 -19   5    1.93    0.29
  -1 -19  -5    1.84    0.25
   1 -19   5    1.28    0.25
   1  19   5    1.68    0.33
  -2 -19  -5   24.40    0.88
   2 -19   5   25.06    0.90
   2 -19   5   22.29    0.87
  -2 -19  -5   23.11    0.89
   2  19   5   22.29    0.89
  -3 -19  -5   11.48    0.51
   3 -19   5   10.70    0.50
   3  19   5   11.47    0.56
   4 -19   5    8.80    0.47
  -4 -19  -5    9.25    0.39
  -5 -19  -5    1.61    0.18
  -6 -20   5    3.12    0.35
  -6  20   5    3.36    0.25
  -5 -20   5    0.35    0.13
   5 -20  -5    0.38    0.20
  -5  20   5    0.16    0.15
   5  20  -5    0.54    0.18
  -4 -20   5    4.40    0.31
   4 -20  -5    4.55    0.34
   4 -20  -5    4.22    0.35
  -4 -20   5    4.72    0.42
  -4  20   5    4.48    0.34
   4  20  -5    4.06    0.33
   3 -20  -5    1.41    0.27
  -3 -20   5    2.16    0.26
   3 -20  -5    1.96    0.27
  -3 -20   5    1.11    0.28
   3  20  -5    2.21    0.29
  -3  20   5    1.88    0.38
  -2 -20   5    2.56    0.27
  -2 -20   5    2.79    0.30
   2 -20  -5    3.17    0.27
   2  20  -5    2.69    0.31
  -1 -20   5    4.47    0.33
   1 -20  -5    4.11    0.41
   1 -20  -5    4.43    0.31
  -1 -20   5    4.85    0.35
   1  20  -5    4.86    0.35
   0 -20   5    5.14    0.36
   0 -20  -5    5.10    0.33
   0 -20   5    5.25    0.35
   0 -20  -5    5.46    0.34
   0  20   5    5.22    0.39
  -1 -20  -5    2.39    0.28
   1 -20   5    2.29    0.30
  -1 -20  -5    3.13    0.27
   1 -20   5    3.01    0.37
   1  20   5    2.88    0.36
  -2 -20  -5    8.96    0.41
  -2 -20  -5    9.23    0.45
   2 -20   5    8.39    0.43
   2 -20   5    8.81    0.45
   2  20   5    7.96    0.47
  -3 -20  -5    4.40    0.27
   3 -20   5    4.17    0.32
   4 -20   5    0.16    0.23
  -4 -20  -5   -0.04    0.09
  -5 -20  -5    1.26    0.18
  -5 -21   5   17.15    0.64
   5 -21  -5   16.43    0.70
  -5  21   5   17.31    0.65
   5  21  -5   17.65    0.69
   4 -21  -5    9.08    0.44
  -4 -21   5    9.10    0.41
  -4 -21   5    8.29    0.47
   4 -21  -5    8.31    0.42
   4  21  -5    8.76    0.44
  -4  21   5    8.63    0.46
  -3 -21   5    0.59    0.15
   3 -21  -5    0.28    0.14
  -3 -21   5    0.20    0.16
   3  21  -5    0.22    0.17
   2 -21  -5    0.01    0.13
  -2 -21   5    0.16    0.13
  -2 -21   5    0.06    0.15
   2  21  -5    0.25    0.17
  -1 -21   5    2.02    0.29
   1 -21  -5    2.16    0.26
  -1 -21   5    2.14    0.27
   1  21  -5    2.17    0.29
   0 -21  -5   34.49    1.25
   0 -21   5   37.25    1.28
   0 -21  -5   36.19    1.27
   0 -21   5   37.25    1.27
   0  21   5   33.18    1.28
   1 -21   5    3.04    0.30
  -1 -21  -5    2.36    0.27
   1 -21   5    2.14    0.38
  -1 -21  -5    2.59    0.26
   1  21   5    2.46    0.34
   2 -21   5    3.45    0.32
  -2 -21  -5    3.40    0.32
   2  21   5    3.35    0.38
  -3 -21  -5    1.71    0.19
   3 -21   5    1.68    0.31
  -4 -21  -5    1.14    0.15
  -5 -22   5    3.02    0.22
   5  22  -5    2.86    0.36
  -4 -22   5    2.09    0.21
  -4 -22   5    2.05    0.32
   4 -22  -5    1.94    0.27
   4  22  -5    2.09    0.38
  -3 -22   5    8.60    0.42
   3 -22  -5    8.51    0.40
  -3 -22   5    7.59    0.51
   3  22  -5    7.92    0.43
  -2 -22   5    4.34    0.33
   2 -22  -5    4.68    0.31
  -2 -22   5    4.83    0.31
   2  22  -5    4.01    0.35
   1 -22  -5   -0.26    0.11
  -1 -22   5    0.03    0.14
  -1 -22   5   -0.05    0.13
   1  22  -5    0.00    0.17
  -1  22   5    0.24    0.20
   0 -22  -5    8.52    0.40
   0 -22  -5    8.06    0.42
   0 -22   5    8.88    0.43
   0 -22   5    8.21    0.43
   0  22   5    7.23    0.47
   1 -22   5    0.92    0.22
  -1 -22  -5    0.55    0.17
   1  22   5    0.86    0.23
   2 -22   5    8.16    0.42
  -2 -22  -5    7.84    0.37
  -2 -22  -5    8.20    0.41
  -3 -22  -5    0.29    0.10
  -4 -22  -5   -0.07    0.08
  -4 -23   5    0.66    0.16
   4 -23  -5    0.31    0.16
   4  23  -5   -0.01    0.17
  -3 -23   5   10.21    0.46
   3 -23  -5   10.08    0.45
  -3 -23   5   10.32    0.45
   3  23  -5   10.05    0.49
  -2 -23   5   10.04    0.46
   2 -23  -5   11.26    0.46
  -2 -23   5   10.62    0.48
   2  23  -5   10.30    0.50
  -1 -23   5    0.31    0.14
   1 -23  -5    0.19    0.11
   1  23  -5    0.16    0.17
  -1  23   5    0.00    0.20
   0 -23   5   34.05    1.15
   0 -23  -5   32.06    1.13
   0  23   5   30.80    1.18
  -1 -23  -5    5.54    0.32
   1 -23   5    5.82    0.33
  -1 -23  -5    5.48    0.31
  -2 -23  -5    2.64    0.21
  -2 -23  -5    2.44    0.27
   2 -23   5    2.34    0.28
  -3 -23  -5    5.65    0.27
  -4 -23  -5    5.55    0.25
  -5 -24   5    1.02    0.16
  -4 -24   5    1.71    0.17
   4 -24  -5    1.81    0.29
   4  24  -5    0.98    0.22
  -3 -24   5    0.13    0.10
   3 -24  -5    0.17    0.12
  -3 -24   5   -0.09    0.13
   3  24  -5    0.32    0.18
   2 -24  -5    3.95    0.26
  -2 -24   5    4.19    0.27
  -2 -24   5    3.70    0.27
  -2  24   5    4.15    0.41
   2  24  -5    4.36    0.34
  -1 -24   5    1.75    0.24
   1 -24  -5    1.57    0.19
  -1 -24   5    1.96    0.22
   1  24  -5    1.89    0.30
  -1  24   5    2.49    0.39
   0 -24   5   10.68    0.47
   0 -24  -5   10.00    0.46
   0 -24  -5   11.07    0.45
   0 -24   5   10.39    0.46
   0  24   5    9.68    0.56
   0  24  -5   10.26    0.50
  -1 -24  -5    0.04    0.12
  -1 -24  -5    0.05    0.11
   1 -24   5    0.03    0.11
  -2 -24  -5    2.73    0.29
  -2 -24  -5    2.86    0.20
   2 -24   5    3.24    0.28
  -3 -24  -5    0.63    0.14
  -4 -25   5    1.13    0.16
   3 -25  -5    0.27    0.11
  -3 -25   5    0.03    0.09
  -3 -25   5    0.00    0.13
   3  25  -5    0.14    0.20
  -2 -25   5    8.34    0.37
   2 -25  -5    8.21    0.37
  -2 -25   5    7.95    0.37
   2  25  -5    8.25    0.44
   1 -25  -5    2.31    0.21
  -1 -25   5    2.69    0.23
  -1 -25   5    2.55    0.22
   1  25  -5    2.47    0.31
   0 -25   5    7.30    0.35
   0 -25   5    6.95    0.36
   0 -25  -5    6.87    0.33
   0 -25  -5    7.20    0.37
   0  25  -5    6.76    0.40
   1 -25   5    4.41    0.27
  -1 -25  -5    4.64    0.26
  -1 -25  -5    4.36    0.26
  -1  25  -5    4.43    0.38
   2 -25   5    7.88    0.37
  -2 -25  -5    7.05    0.32
  -3 -25  -5    6.30    0.27
  -4 -26   5    0.80    0.13
  -3 -26   5    0.95    0.15
   3 -26  -5    0.74    0.15
  -3 -26   5    0.89    0.20
  -2 -26   5    0.35    0.11
   2 -26  -5    0.38    0.10
  -2 -26   5    0.49    0.11
   2  26  -5    0.20    0.21
   1 -26  -5    1.07    0.16
  -1 -26   5    1.15    0.17
  -1 -26   5    1.56    0.20
   1  26  -5    0.66    0.22
   0 -26  -5    2.36    0.19
   0 -26   5    2.41    0.28
   0 -26   5    2.22    0.20
   0  26  -5    2.76    0.35
  -1 -26  -5    2.13    0.19
   1 -26   5    1.48    0.20
  -2 -26  -5    0.76    0.15
  -3 -27   5    1.08    0.14
  -3 -27   5    1.14    0.27
   3 -27  -5    0.94    0.18
  -2 -27   5    0.98    0.17
   2 -27  -5    0.71    0.15
   1 -27  -5    1.34    0.16
  -1 -27   5    1.38    0.20
  -1 -27   5    1.46    0.17
   0 -27  -5    0.02    0.09
   0 -27   5    0.33    0.10
  -1 -27  -5    0.16    0.11
  -1 -27  -5    0.05    0.14
   1 -27   5    0.05    0.11
  -2 -27  -5    0.24    0.11
  -2 -28   5    3.19    0.20
   2 -28  -5    3.09    0.19
  -2 -28   5    3.26    0.20
  -1 -28   5    0.13    0.09
  -1 -28   5    0.17    0.22
   1 -28  -5    0.01    0.08
   0 -28  -5    0.05    0.09
   0 -28   5   -0.01    0.09
  -8   0   6    0.74    0.16
   8   0  -6    0.92    0.25
   7   0  -6   11.82    0.56
  -7   0   6   13.41    0.55
   6   0  -6   10.67    0.50
   5   0  -6  133.29    4.31
  -5   0   6  130.78    4.32
  -4   0   6   69.28    2.27
   4   0  -6   66.93    2.26
   3   0  -6    1.07    0.23
   2   0  -6   22.10    0.80
  -2   0   6   21.17    0.82
  -1   0   6    8.81    0.41
   1   0  -6    9.21    0.38
   0   0   6   17.23    0.64
   0   0  -6   17.26    0.63
  -1   0  -6  438.18   14.04
   2   0   6   12.06    0.56
   2   0   6   12.55    0.57
   3   0   6    4.93    0.43
   3   0   6    5.29    0.37
   3   0   6    5.10    0.36
   4   0   6    0.55    0.17
   4   0   6    0.33    0.19
   5   0   6    8.38    0.45
   5   0   6    8.95    0.46
   6   0   6   10.70    0.46
   6   0   6   10.44    0.46
   7   0   6    1.70    0.17
  -8  -1   6    1.36    0.17
   8  -1  -6    0.98    0.26
   8   1  -6    0.93    0.26
  -8   1   6    1.05    0.18
  -8   1   6    0.59    0.20
  -7  -1   6    4.02    0.30
   7  -1  -6    3.94    0.33
   7   1  -6    3.08    0.32
  -7   1   6    4.85    0.30
   6  -1  -6    1.23    0.28
  -6  -1   6    1.32    0.27
  -6   1   6    1.43    0.26
   6   1  -6    1.11    0.29
   5  -1  -6   19.28    0.75
  -5  -1   6   20.10    0.76
   5   1  -6   19.43    0.75
  -5   1   6   19.59    0.76
  -4  -1   6    4.45    0.34
   4  -1  -6    4.02    0.34
  -4   1   6    4.56    0.34
   4   1  -6    3.83    0.33
   3  -1  -6    1.22    0.23
   3   1  -6    1.07    0.22
   2  -1  -6    2.38    0.20
  -2  -1   6    2.01    0.25
  -2   1   6    1.80    0.25
   2   1  -6    2.08    0.20
  -1  -1   6  148.28    4.88
   1  -1  -6  153.15    4.89
   1   1  -6  145.68    4.87
  -1   1   6  152.68    4.88
   0  -1   6   78.41    2.59
   0  -1  -6   77.82    2.58
   0   1  -6   79.57    2.59
   0   1   6   78.58    2.58
  -1  -1  -6   35.71    1.17
  -1   1  -6   34.43    1.19
   2  -1   6   48.70    1.64
   2  -1   6   46.84    1.63
   2   1   6   46.24    1.63
   2   1   6   47.62    1.64
   2   1   6   48.19    1.65
   3  -1   6    6.82    0.40
   3  -1   6    6.78    0.41
   3  -1   6    6.60    0.46
   3   1   6    6.81    0.41
   3   1   6    6.88    0.43
   3   1   6    6.46    0.40
   4  -1   6   47.98    1.67
   4  -1   6   47.49    1.66
   4   1   6   46.81    1.66
   4   1   6   48.08    1.67
   5  -1   6   26.35    1.00
   5  -1   6   27.05    1.01
   5   1   6   26.25    1.00
   5   1   6   27.45    1.00
   6  -1   6    3.71    0.26
   6  -1   6    4.00    0.27
   6   1   6    3.72    0.25
   6   1   6    3.80    0.26
   7  -1   6   12.16    0.45
   7   1   6   11.75    0.45
  -8  -2   6    2.23    0.19
   8  -2  -6    1.69    0.40
   8   2  -6    2.79    0.41
  -8   2   6    2.22    0.20
   7  -2  -6    6.99    0.42
  -7  -2   6    8.30    0.40
   7   2  -6    7.61    0.43
  -7   2   6    7.84    0.40
  -6  -2   6   42.00    1.46
   6  -2  -6   41.04    1.45
   6   2  -6   42.18    1.46
   5  -2  -6    4.31    0.33
  -5  -2   6    4.46    0.32
   5   2  -6    4.48    0.33
  -5   2   6    3.91    0.33
   4  -2  -6    0.07    0.17
  -4  -2   6    0.13    0.16
   4   2  -6    0.23    0.16
  -4   2   6    0.56    0.18
   3  -2  -6    0.09    0.12
   3   2  -6    0.20    0.12
   2  -2  -6   55.97    1.88
  -2  -2   6   58.71    1.96
  -2   2   6   52.26    1.89
   2   2  -6   55.64    1.89
   1  -2  -6   11.20    0.47
  -1  -2   6   10.99    0.47
   1   2  -6   10.24    0.45
  -1   2   6   11.15    0.47
   0  -2  -6   31.41    1.08
   0  -2   6   31.39    1.11
   0   2  -6   33.45    1.11
   0   2   6   31.19    1.10
  -1  -2  -6    0.67    0.14
  -1   2  -6    0.63    0.17
   2  -2   6   10.16    0.49
   2  -2   6    9.53    0.49
   2   2   6   10.06    0.49
   2   2   6    9.49    0.48
   2   2   6   10.26    0.50
   3  -2   6    2.44    0.30
   3  -2   6    2.63    0.40
   3  -2   6    2.38    0.32
   3   2   6    2.09    0.30
   3   2   6    1.97    0.29
   3   2   6    2.41    0.34
   4  -2   6    9.12    0.49
   4  -2   6    9.45    0.48
   4   2   6    8.89    0.48
   4   2   6    9.40    0.49
   5  -2   6   10.60    0.50
   5  -2   6   10.04    0.50
   5   2   6   10.40    0.50
   5   2   6    9.95    0.50
   6  -2   6    0.20    0.12
   6  -2   6    0.32    0.13
   6   2   6    0.32    0.12
   6   2   6    0.30    0.13
   7  -2   6    0.12    0.09
   7   2   6    0.22    0.11
   8  -3  -6   15.96    0.76
  -8  -3   6   15.83    0.61
  -8   3   6   16.19    0.60
   8   3  -6   15.74    0.69
   7  -3  -6   50.51    1.83
  -7  -3   6   56.90    1.83
  -7   3   6   55.18    1.83
   7   3  -6   52.56    1.84
  -6  -3   6    1.98    0.28
   6  -3  -6    2.60    0.30
  -6   3   6    2.22    0.28
   6   3  -6    1.75    0.29
   5  -3  -6    8.10    0.42
  -5  -3   6    8.01    0.42
   5   3  -6    8.08    0.41
   4  -3  -6    1.49    0.27
  -4  -3   6    1.04    0.20
  -4   3   6    1.05    0.19
   4   3  -6    1.08    0.19
   3  -3  -6   49.54    1.72
   3   3  -6   49.24    1.73
   2  -3  -6  164.36    5.47
  -2   3   6  172.25    5.54
   2   3  -6  167.87    5.48
  -1  -3   6   22.46    0.86
   1  -3  -6   23.60    0.84
   1   3  -6   24.31    0.86
  -1   3   6   23.29    0.85
   0  -3  -6    8.85    0.36
   0   3   6    9.15    0.40
   0   3  -6    8.92    0.43
  -1   3  -6    4.92    0.29
  -1   3  -6    4.73    0.31
   2  -3   6    4.96    0.37
   2  -3   6    4.49    0.38
   2   3   6    4.46    0.35
   2   3   6    4.63    0.35
   2   3   6    4.62    0.36
   3  -3   6   92.67    2.96
   3  -3   6   87.99    2.95
   3  -3   6   84.43    2.95
   3   3   6   90.04    2.96
   3   3   6   88.72    2.95
   3   3   6   88.52    2.95
   4  -3   6   44.38    1.55
   4  -3   6   43.36    1.55
   4   3   6   43.69    1.55
   4   3   6   44.52    1.55
   5  -3   6    4.96    0.35
   5  -3   6    4.71    0.33
   5   3   6    4.14    0.33
   5   3   6    4.65    0.34
   6  -3   6    8.66    0.39
   6  -3   6    8.60    0.40
   6   3   6    8.71    0.39
   6   3   6    8.26    0.40
   7  -3   6    3.96    0.22
   7   3   6    4.36    0.25
  -8  -4   6    8.97    0.38
  -8   4   6    9.19    0.38
   8   4  -6    8.18    0.52
  -7  -4   6   23.44    0.85
   7  -4  -6   20.98    0.86
  -7   4   6   24.12    0.85
   7   4  -6   22.64    0.87
   6  -4  -6   30.86    1.11
  -6  -4   6   30.03    1.11
  -6   4   6   30.06    1.10
   6   4  -6   31.36    1.11
   5  -4  -6   47.61    1.58
  -5  -4   6   45.60    1.58
  -5   4   6   44.04    1.58
   5   4  -6   46.32    1.58
  -4  -4   6   76.68    2.56
   4  -4  -6   77.85    2.55
  -4   4   6   75.16    2.55
   4   4  -6   78.75    2.55
   3  -4  -6   28.11    1.07
   3   4  -6   29.37    1.09
   2  -4  -6    0.01    0.09
   2   4  -6    0.00    0.10
  -1  -4   6   92.41    3.24
   1  -4  -6  100.52    3.23
  -1   4   6   98.39    3.24
   1   4  -6  101.96    3.25
   0  -4  -6   14.87    0.57
   0   4  -6   16.03    0.61
   0   4   6   15.96    0.60
  -1   4  -6   24.17    0.93
  -1   4  -6   24.71    0.91
   2  -4   6  203.83    6.76
   2  -4   6  211.77    6.78
   2  -4   6  206.35    6.75
   2   4   6  210.01    6.76
   2   4   6  212.55    6.76
   2   4   6  206.36    6.76
   3  -4   6   21.85    0.84
   3  -4   6   22.08    0.85
   3   4   6   22.15    0.84
   3   4   6   21.46    0.84
   3   4   6   20.96    0.84
   4  -4   6   12.20    0.58
   4  -4   6   13.30    0.58
   4   4   6   13.13    0.59
   4   4   6   12.88    0.60
   5  -4   6   13.61    0.58
   5  -4   6   13.60    0.59
   5   4   6   13.76    0.59
   5   4   6   13.04    0.59
   6  -4   6   16.27    0.63
   6  -4   6   16.96    0.64
   6   4   6   17.05    0.64
   6   4   6   15.98    0.63
   7  -4   6    9.46    0.36
   7   4   6    9.12    0.40
  -8  -5   6    4.23    0.24
   8   5  -6    4.27    0.45
  -8   5   6    3.70    0.24
  -7  -5   6    0.26    0.14
   7  -5  -6   -0.06    0.18
  -7   5   6    0.08    0.14
   7   5  -6    0.25    0.19
  -6  -5   6    0.04    0.16
   6  -5  -6    0.24    0.21
  -6   5   6    0.35    0.16
   6   5  -6   -0.01    0.21
   5  -5  -6    5.95    0.37
  -5  -5   6    5.59    0.43
   5   5  -6    5.74    0.36
  -5   5   6    5.86    0.37
   4  -5  -6   10.41    0.48
  -4  -5   6    9.63    0.47
   4   5  -6   10.08    0.47
  -4   5   6   10.51    0.50
   3  -5  -6   82.14    2.79
   3   5  -6   83.49    2.81
   2  -5  -6   12.93    0.53
   2   5  -6   12.33    0.55
  -1  -5   6   20.47    0.83
   1  -5  -6   22.28    0.80
   1   5  -6   22.90    0.82
  -1   5   6   21.76    0.82
   0  -5  -6    0.69    0.16
   0   5  -6    0.90    0.19
   0   5   6    0.97    0.22
  -1   5  -6   32.79    1.15
  -1   5  -6   31.11    1.16
   2  -5   6   49.51    1.74
   2  -5   6   47.12    1.74
   2  -5   6   52.41    1.73
   2   5   6   51.43    1.72
   2   5   6   51.62    1.73
   2   5   6   50.36    1.73
   3  -5   6    0.06    0.17
   3  -5   6    0.02    0.17
   3   5   6    0.10    0.17
   3   5   6   -0.02    0.17
   4  -5   6   15.57    0.67
   4  -5   6   16.76    0.68
   4   5   6   15.63    0.68
   4   5   6   16.27    0.68
   5  -5   6    1.88    0.27
   5  -5   6    1.81    0.28
   5   5   6    1.22    0.27
   5   5   6    1.11    0.26
   6  -5   6    3.45    0.25
   6  -5   6    3.51    0.25
   6   5   6    3.82    0.25
   6   5   6    3.74    0.27
   7  -5   6    1.67    0.16
  -8  -6   6    0.22    0.11
   8   6  -6    0.34    0.33
  -8   6   6    0.17    0.12
   7  -6  -6    1.16    0.29
  -7  -6   6    1.36    0.25
   7   6  -6    1.37    0.31
  -6  -6   6   31.92    1.13
   6  -6  -6   30.21    1.19
  -6   6   6   31.72    1.12
   6   6  -6   31.56    1.17
   5  -6  -6    5.89    0.37
  -5  -6   6    5.13    0.43
  -5   6   6    5.91    0.37
   5   6  -6    5.64    0.36
  -4  -6   6    3.81    0.33
   4  -6  -6    3.49    0.32
  -4   6   6    2.90    0.35
   2  -6  -6    7.83    0.40
   2   6  -6    7.96    0.42
   1  -6  -6   15.87    0.62
   1   6  -6   17.30    0.66
  -1   6   6   15.53    0.66
   0  -6  -6    7.77    0.36
   0   6  -6    8.08    0.40
   0   6   6    8.02    0.40
  -1   6  -6   11.59    0.62
  -1   6  -6   12.50    0.56
   2  -6   6   10.49    0.58
   2  -6   6   11.39    0.57
   2  -6   6   11.61    0.54
   2   6   6   11.04    0.51
   2   6   6   10.87    0.53
   2   6   6   11.48    0.54
   3  -6   6    4.11    0.36
   3  -6   6    4.50    0.39
   3   6   6    4.49    0.37
   3   6   6    4.72    0.37
   4  -6   6    0.21    0.19
   4  -6   6    0.12    0.17
   4  -6   6    0.70    0.32
   4   6   6    0.30    0.19
   4   6   6    0.48    0.18
   5  -6   6    0.22    0.16
   5  -6   6    0.22    0.15
   5   6   6    0.20    0.17
   5   6   6    0.36    0.17
   6  -6   6    5.73    0.31
   6  -6   6    5.69    0.31
   6   6   6    5.49    0.31
   6   6   6    6.01    0.32
  -8  -7   6    1.62    0.18
  -8   7   6    1.44    0.20
  -7  -7   6    2.85    0.26
   7  -7  -6    2.62    0.33
  -7   7   6    3.10    0.27
   7   7  -6    2.91    0.33
  -6  -7   6   40.29    1.38
   6  -7  -6   38.56    1.38
  -6   7   6   39.07    1.37
   6   7  -6   39.40    1.38
   5  -7  -6    2.02    0.30
  -5  -7   6    2.01    0.30
  -5   7   6    1.61    0.40
   5   7  -6    1.82    0.28
   4  -7  -6    0.72    0.20
  -4  -7   6    0.16    0.25
  -4  -7   6    0.01    0.19
  -4   7   6    0.28    0.21
   4   7  -6    0.16    0.16
   3   7  -6   15.56    0.62
   2  -7  -6   42.33    1.49
   2   7  -6   42.97    1.52
   1  -7  -6   13.22    0.55
  -1   7   6   13.31    0.60
   1   7  -6   13.55    0.58
   0  -7  -6   96.77    3.23
   0   7  -6   98.32    3.28
   0   7   6  101.04    3.25
   1   7   6    0.28    0.17
  -1   7  -6    0.17    0.20
   1   7   6    0.20    0.24
   2  -7   6   16.92    0.77
   2  -7   6   17.74    0.76
   2  -7   6   18.26    0.74
   2   7   6   17.96    0.73
   2   7   6   19.09    0.72
   2   7   6   17.53    0.74
   3  -7   6   10.32    0.50
   3  -7   6    9.74    0.52
   3   7   6    9.44    0.51
   3   7   6    9.74    0.50
   4  -7   6   22.51    0.87
   4  -7   6   21.88    0.86
   4   7   6   22.26    0.88
   4   7   6   22.39    0.87
  -5  -7  -6   23.59    0.93
   5  -7   6   25.13    0.92
   5  -7   6   24.94    0.91
   5   7   6   23.94    0.93
   5   7   6   24.94    0.92
   6  -7   6    1.32    0.20
   6  -7   6    1.52    0.21
   6   7   6    1.48    0.24
   6   7   6    1.61    0.24
  -8  -8   6    0.43    0.12
  -8   8   6    0.40    0.12
  -8   8   6    0.35    0.15
   7  -8  -6    1.33    0.30
  -7  -8   6    1.20    0.22
  -7   8   6    1.64    0.24
   7   8  -6    1.92    0.31
   6  -8  -6    3.66    0.32
  -6  -8   6    3.36    0.31
   6   8  -6    3.37    0.33
  -6   8   6    3.96    0.33
  -5  -8   6   43.51    1.53
   5  -8  -6   43.86    1.53
  -5   8   6   43.05    1.53
   5   8  -6   46.87    1.54
  -4  -8   6    5.64    0.39
   4  -8  -6    5.75    0.36
  -4  -8   6    5.28    0.46
  -4   8   6    5.79    0.43
   4   8  -6    5.56    0.35
   3  -8  -6   57.78    2.00
  -3  -8   6   61.20    2.14
  -3  -8   6   65.44    2.12
  -3  -8   6   54.80    1.99
   3   8  -6   56.36    1.97
   2  -8  -6    2.60    0.34
   2   8  -6    2.32    0.32
   1  -8  -6    2.13    0.26
   1   8  -6    1.98    0.30
   0  -8  -6   98.96    3.44
   0   8  -6  108.15    3.46
   1  -8   6    5.61    0.44
   1   8   6    6.07    0.40
  -1   8  -6    6.96    0.52
   1   8   6    6.32    0.38
   2  -8   6    0.75    0.26
   2  -8   6    0.46    0.24
   2  -8   6    0.60    0.23
   2   8   6    0.49    0.22
   2   8   6    1.25    0.32
   3  -8   6    0.04    0.21
   3  -8   6    0.02    0.21
   3   8   6    0.24    0.18
   4  -8   6    1.20    0.21
   4  -8   6    1.47    0.33
   4  -8   6    1.20    0.22
   4   8   6    1.36    0.32
   4   8   6    1.19    0.31
  -5  -8  -6   21.97    0.84
   5  -8   6   21.67    0.82
   6  -8   6    3.53    0.24
   6  -8   6    3.69    0.26
   6   8   6    3.83    0.25
   6   8   6    4.19    0.29
  -8  -9   6    0.75    0.19
  -8   9   6    0.46    0.20
  -8   9   6    0.85    0.17
   7  -9  -6    8.28    0.46
  -7  -9   6    8.85    0.39
  -7   9   6    8.37    0.41
   7   9  -6    8.54    0.46
  -6  -9   6    0.11    0.17
   6  -9  -6    0.21    0.16
   6   9  -6    0.28    0.18
  -6   9   6    0.08    0.19
  -5  -9   6    1.91    0.31
   5  -9  -6    0.99    0.20
  -5   9   6    1.20    0.23
   5   9  -6    1.12    0.20
  -4  -9   6    0.11    0.20
  -4  -9   6    0.25    0.21
   4  -9  -6    0.07    0.18
   4  -9  -6    0.37    0.24
   4   9  -6   -0.06    0.16
  -4   9   6   -0.07    0.24
   3  -9  -6    1.86    0.32
  -3  -9   6    1.63    0.27
  -3  -9   6    1.91    0.37
  -3  -9   6    1.48    0.21
   3   9  -6    1.45    0.28
   2  -9  -6    1.72    0.37
   2  -9  -6    2.41    0.30
  -2  -9   6    2.13    0.30
  -2  -9   6    2.60    0.34
  -2   9   6    2.02    0.30
   1  -9  -6   14.57    0.62
   1   9  -6   14.06    0.67
   0  -9  -6    1.60    0.29
   0   9  -6    1.65    0.38
  -1  -9  -6    8.76    0.48
   1  -9   6    9.71    0.50
   1  -9   6    8.77    0.53
  -1   9  -6   11.20    0.66
   1   9   6    8.91    0.49
   1   9   6    9.82    0.46
   2  -9   6    1.59    0.40
   2  -9   6    1.35    0.29
   2  -9   6    1.28    0.27
   2   9   6    1.85    0.28
   2   9   6    1.32    0.31
   3  -9   6    0.62    0.21
   3  -9   6    0.02    0.21
   3  -9   6    0.06    0.21
   3   9   6    0.22    0.20
   3   9   6    0.43    0.23
   4  -9   6   33.96    1.31
  -4  -9  -6   37.37    1.31
   4  -9   6   38.28    1.32
   4  -9   6   37.64    1.32
   4   9   6   37.01    1.34
   4   9   6   37.37    1.32
  -5  -9  -6    0.67    0.18
   5  -9   6    0.98    0.25
   5  -9   6    1.28    0.26
   5   9   6    0.42    0.18
   5   9   6    0.55    0.17
   6  -9   6    2.52    0.22
   6  -9   6    2.44    0.27
   6   9   6    2.26    0.34
   6   9   6    2.91    0.24
  -8 -10   6    3.06    0.26
  -8  10   6    3.16    0.21
   7 -10  -6   -0.03    0.22
  -7 -10   6    0.23    0.14
  -7  10   6    0.45    0.18
   6 -10  -6    3.20    0.31
  -6 -10   6    2.66    0.30
  -6  10   6    3.28    0.35
   6  10  -6    2.55    0.30
  -5 -10   6   10.09    0.50
   5 -10  -6   10.89    0.50
  -5 -10   6    9.23    0.57
   5  10  -6   11.15    0.50
  -5  10   6    9.88    0.53
   4 -10  -6    2.18    0.30
   4 -10  -6    2.25    0.39
  -4 -10   6    1.80    0.35
  -4 -10   6    1.61    0.37
  -4 -10   6    2.07    0.47
  -4  10   6    1.71    0.33
   4  10  -6    1.97    0.27
  -3 -10   6   54.07    1.97
   3 -10  -6   59.99    1.96
  -3 -10   6   58.00    1.96
  -3 -10   6   58.14    1.98
   3  10  -6   58.57    1.99
  -2 -10   6   19.95    0.80
  -2 -10   6   19.78    0.78
   2 -10  -6   21.43    0.79
   2  10  -6   21.30    0.79
  -2  10   6   21.41    0.79
  -1 -10   6    2.88    0.32
   1 -10  -6    3.24    0.29
  -1 -10   6    2.69    0.29
   1 -10  -6    3.07    0.37
  -1  10   6    2.79    0.36
   0 -10  -6  147.89    4.83
   0 -10   6  147.06    4.84
   0 -10   6  148.15    4.83
   0  10   6  150.25    4.84
   1 -10   6    6.00    0.42
  -1 -10  -6    5.85    0.40
   1 -10   6    6.20    0.44
   1  10   6    5.62    0.41
   2 -10   6    0.20    0.28
   2 -10   6   -0.09    0.25
   2 -10   6    0.03    0.18
   2 -10   6    0.24    0.24
   2  10   6    0.12    0.25
   2  10   6    0.09    0.20
   3 -10   6    4.61    0.41
   3 -10   6    4.80    0.38
   3 -10   6    4.43    0.43
   3  10   6    4.99    0.41
   3  10   6    4.45    0.44
   4 -10   6    1.75    0.36
  -4 -10  -6    1.86    0.27
   4 -10   6    2.38    0.33
   4 -10   6    2.10    0.31
   4  10   6    2.15    0.35
   4  10   6    1.92    0.33
   5 -10   6   31.12    1.10
  -5 -10  -6   30.28    1.08
   5 -10   6   29.77    1.08
   5  10   6   31.56    1.10
   5  10   6   30.10    1.08
   6 -10   6    3.55    0.24
  -8  11   6    0.14    0.11
   7 -11  -6   28.56    1.10
  -7 -11   6   29.83    1.04
   7  11  -6   31.33    1.10
   6 -11  -6    3.12    0.32
  -6 -11   6    3.45    0.32
   6  11  -6    3.31    0.34
  -6  11   6    4.08    0.38
  -5 -11   6   17.07    0.77
   5 -11  -6   19.10    0.73
  -5 -11   6   17.23    0.73
   5  11  -6   19.22    0.74
  -4 -11   6   -0.02    0.25
   4 -11  -6    0.22    0.21
  -4 -11   6   -0.06    0.18
  -4 -11   6   -0.09    0.24
   4 -11  -6    0.05    0.18
   4  11  -6   -0.25    0.16
   3 -11  -6   18.21    0.72
   3 -11  -6   17.62    0.70
  -3 -11   6   17.65    0.75
  -3 -11   6   17.79    0.71
   3  11  -6   18.44    0.71
  -2 -11   6   91.48    3.02
   2 -11  -6   92.19    3.01
  -2 -11   6   90.27    3.01
  -2  11   6   90.51    3.01
   2  11  -6   91.11    3.00
  -1 -11   6  107.35    3.53
   1 -11  -6  102.14    3.58
  -1 -11   6  110.39    3.54
   1 -11  -6  108.28    3.52
  -1  11   6  108.56    3.53
   0 -11  -6    2.23    0.28
   0 -11   6    1.81    0.31
   0 -11   6    1.75    0.31
   0  11   6    2.47    0.34
  -1 -11  -6   25.62    0.95
   1 -11   6   23.86    1.04
   1 -11   6   26.35    0.96
   1 -11   6   26.19    0.97
   1  11   6   26.18    0.97
   2 -11   6    1.77    0.28
  -2 -11  -6    1.33    0.29
   2 -11   6    2.18    0.31
   2 -11   6    1.43    0.27
   2  11   6    1.32    0.35
   3 -11   6   15.71    0.71
   3 -11   6   14.69    0.65
   3 -11   6   16.02    0.70
   3  11   6   16.44    0.69
   3  11   6   14.87    0.71
   4 -11   6    3.75    0.34
   4 -11   6    3.22    0.38
  -4 -11  -6    3.26    0.29
   4 -11   6    2.73    0.34
   4  11   6    2.72    0.38
   4  11   6    2.36    0.38
   5 -11   6    0.11    0.15
   5 -11   6   -0.09    0.18
  -5 -11  -6    0.17    0.15
   5  11   6    0.66    0.20
   5  11   6    0.00    0.16
   6 -11   6    3.66    0.25
  -8  12   6    3.89    0.21
  -7 -12   6    1.90    0.29
   7  12  -6    1.48    0.37
   6 -12  -6    0.19    0.20
   6  12  -6    0.57    0.19
  -5 -12   6    1.06    0.24
  -5 -12   6    1.65    0.37
  -4 -12   6   12.73    0.57
   4 -12  -6   12.66    0.56
  -4 -12   6   11.85    0.63
   4  12  -6   12.41    0.55
   3 -12  -6   21.88    0.81
  -3 -12   6   20.93    0.85
  -3 -12   6   20.70    0.81
   3 -12  -6   19.79    0.79
  -3  12   6   21.94    0.81
   3  12  -6   21.00    0.81
   2 -12  -6   17.65    0.69
  -2 -12   6   18.13    0.72
  -2 -12   6   17.33    0.69
   2  12  -6   17.26    0.70
  -2  12   6   17.03    0.69
  -1 -12   6   61.47    2.10
   1 -12  -6   64.51    2.10
  -1 -12   6   61.84    2.11
  -1  12   6   61.69    2.11
   0 -12   6    5.40    0.38
   0 -12  -6    5.28    0.34
   0 -12   6    4.35    0.35
   0  12   6    4.77    0.40
   1 -12   6   37.52    1.35
   1 -12   6   37.93    1.35
  -1 -12  -6   38.33    1.33
   1 -12   6   38.02    1.32
   1  12   6   38.64    1.36
   2 -12   6    1.75    0.30
   2 -12   6    1.87    0.28
   2 -12   6    1.85    0.28
  -2 -12  -6    1.65    0.42
   2  12   6    1.17    0.24
  -3 -12  -6    0.01    0.13
   3 -12   6    0.26    0.25
   3 -12   6    0.33    0.20
   3  12   6    0.50    0.22
  -4 -12  -6    0.55    0.16
   4 -12   6    0.56    0.23
   4 -12   6    0.99    0.22
   4  12   6    0.77    0.23
   4  12   6    0.73    0.24
   5 -12   6    0.81    0.17
  -5 -12  -6    0.80    0.15
   5  12   6    0.43    0.23
   5  12   6    0.91    0.23
   6 -12   6    0.52    0.16
  -8  13   6    1.19    0.15
  -7  13   6    3.29    0.23
   7  13  -6    2.99    0.42
   6 -13  -6   11.41    0.55
   6  13  -6   11.90    0.55
   5 -13  -6    0.48    0.19
  -5 -13   6    0.58    0.21
   5  13  -6    0.52    0.18
  -4 -13   6    2.51    0.43
  -4 -13   6    3.26    0.33
   4 -13  -6    2.86    0.39
   4 -13  -6    2.94    0.31
   4  13  -6    3.32    0.32
  -3 -13   6    1.54    0.27
  -3 -13   6    1.65    0.35
   3 -13  -6    1.33    0.21
   3 -13  -6    1.98    0.29
   3  13  -6    1.42    0.30
  -3  13   6    1.69    0.29
  -2 -13   6   26.33    0.96
  -2 -13   6   26.74    0.99
   2 -13  -6   26.41    0.96
  -2  13   6   26.56    0.97
   2  13  -6   25.29    0.97
  -1 -13   6   28.75    1.08
  -1 -13   6   30.44    1.07
   1 -13  -6   30.27    1.06
  -1  13   6   28.34    1.08
   0 -13   6   43.83    1.57
   0 -13   6   45.96    1.56
   0 -13  -6   44.49    1.55
   0  13   6   45.59    1.57
   1 -13   6    6.76    0.40
   1 -13   6    6.55    0.42
  -1 -13  -6    6.49    0.39
   1 -13   6    7.28    0.45
   1  13   6    6.64    0.45
   2 -13   6    3.05    0.53
   2 -13   6    3.48    0.33
   2 -13   6    3.16    0.44
   2  13   6    4.03    0.41
   3 -13   6   35.43    1.34
  -3 -13  -6   39.61    1.35
   3  13   6   39.67    1.38
  -4 -13  -6   10.84    0.47
   4 -13   6    8.93    0.70
  -5 -13  -6   27.47    0.96
   5 -13   6   27.13    0.97
  -7  14   6    8.35    0.36
   7  14  -6    7.83    0.53
   6 -14  -6    5.36    0.40
   6  14  -6    5.83    0.39
   5 -14  -6    6.28    0.39
  -5 -14   6    6.28    0.42
   5  14  -6    5.69    0.39
   4 -14  -6   28.12    1.04
   4 -14  -6   28.17    1.02
  -4 -14   6   27.13    1.02
  -4 -14   6   27.00    1.06
  -4  14   6   27.27    1.01
   4  14  -6   29.03    1.03
  -3 -14   6    0.26    0.16
   3 -14  -6    0.34    0.18
   3 -14  -6    0.00    0.15
   3  14  -6    0.05    0.18
  -3  14   6   -0.01    0.15
  -2 -14   6    3.66    0.31
  -2 -14   6    3.71    0.35
   2 -14  -6    3.51    0.34
   2 -14  -6    4.05    0.30
   2  14  -6    3.40    0.33
  -2  14   6    3.69    0.35
  -1 -14   6   10.58    0.52
   1 -14  -6   11.96    0.49
  -1 -14   6   10.85    0.51
   1 -14  -6   10.78    0.54
  -1  14   6   10.87    0.55
   0 -14   6   22.55    0.88
   0 -14   6   23.85    0.89
   0 -14  -6   22.98    0.86
   0  14   6   23.55    0.91
   1 -14   6    6.37    0.44
  -1 -14  -6    6.40    0.40
   1 -14   6    7.50    0.40
   1  14   6    6.69    0.46
   2 -14   6    0.20    0.19
  -2 -14  -6   -0.17    0.22
  -2 -14  -6    0.00    0.13
   2 -14   6    0.40    0.23
   2  14   6    0.43    0.24
   3 -14   6    1.75    0.32
  -3 -14  -6    2.40    0.26
   3  14   6    1.54    0.39
  -5 -14  -6    1.40    0.21
  -7  15   6    2.72    0.20
   6 -15  -6    1.32    0.42
   6  15  -6    1.15    0.31
  -6  15   6    1.14    0.22
   5 -15  -6    2.33    0.32
  -5 -15   6    2.72    0.33
  -5  15   6    2.28    0.29
   5  15  -6    1.81    0.31
  -4 -15   6    5.10    0.35
  -4 -15   6    4.25    0.44
   4 -15  -6    4.63    0.41
   4 -15  -6    4.59    0.40
  -4  15   6    4.75    0.35
   3 -15  -6    0.29    0.16
  -3 -15   6    0.15    0.16
   3 -15  -6   -0.03    0.19
  -3 -15   6   -0.09    0.17
  -3  15   6    0.17    0.17
   3  15  -6    0.09    0.19
  -2 -15   6   16.53    0.66
   2 -15  -6   17.19    0.66
  -2 -15   6   14.23    0.74
   2 -15  -6   16.19    0.67
   2  15  -6   16.13    0.67
  -2  15   6   15.83    0.69
  -1 -15   6    1.90    0.36
  -1 -15   6    1.56    0.27
   1 -15  -6    2.42    0.37
   1 -15  -6    2.12    0.32
  -1  15   6    2.20    0.37
   0 -15  -6    0.99    0.19
   0 -15   6    0.83    0.25
   0 -15   6    0.50    0.27
   0  15   6    0.94    0.23
   1 -15   6    2.75    0.36
  -1 -15  -6    2.49    0.27
   1 -15   6    2.19    0.33
   1 -15   6    2.83    0.32
  -1 -15  -6    3.01    0.32
   2 -15   6    3.85    0.34
   2 -15   6    3.53    0.41
  -2 -15  -6    3.48    0.39
  -2 -15  -6    3.84    0.28
   2  15   6    3.88    0.45
   3 -15   6    0.96    0.22
  -3 -15  -6    0.64    0.14
  -4 -15  -6    4.50    0.29
  -5 -15  -6    0.44    0.13
  -7  16   6    0.26    0.10
  -6  16   6    5.85    0.31
   6  16  -6    5.59    0.41
  -5 -16   6    3.65    0.33
   5 -16  -6    2.91    0.35
   5  16  -6    2.57    0.33
  -5  16   6    3.88    0.30
  -4 -16   6   24.47    0.95
   4 -16  -6   24.02    0.91
  -4 -16   6   24.25    0.91
   4 -16  -6   25.11    0.92
   4  16  -6   22.64    0.91
  -4  16   6   23.82    0.90
  -3 -16   6   13.91    0.63
   3 -16  -6   14.47    0.62
  -3 -16   6   14.47    0.61
   3 -16  -6   14.51    0.62
   3  16  -6   14.50    0.63
  -3  16   6   14.66    0.61
   2 -16  -6   -0.20    0.14
  -2 -16   6    0.18    0.16
  -2 -16   6   -0.01    0.13
  -2  16   6    0.12    0.20
   2  16  -6   -0.02    0.17
  -1 -16   6   32.99    1.21
   1 -16  -6   33.62    1.18
  -1 -16   6   32.63    1.19
   0 -16  -6    2.49    0.29
   0 -16   6    2.88    0.31
   0 -16  -6    2.77    0.29
   0 -16   6    2.23    0.31
  -1 -16  -6   42.98    1.50
   1 -16   6   42.04    1.49
   1 -16   6   43.44    1.51
  -1 -16  -6   44.11    1.50
   1 -16   6   42.56    1.51
   1  16   6   42.77    1.53
  -2 -16  -6    4.67    0.41
  -2 -16  -6    5.55    0.33
   2 -16   6    5.09    0.38
   2 -16   6    5.53    0.43
  -3 -16  -6   -0.14    0.12
   3 -16   6    0.15    0.19
  -4 -16  -6   15.08    0.59
  -5 -16  -6   12.40    0.53
  -7  17   6    4.19    0.23
  -6  17   6    3.82    0.25
   6  17  -6    3.48    0.40
   5 -17  -6    4.73    0.39
  -5 -17   6    4.90    0.38
   5  17  -6    5.20    0.38
  -4 -17   6   12.47    0.59
  -4 -17   6   12.77    0.54
   4 -17  -6   12.81    0.57
   4 -17  -6   11.49    0.57
  -4  17   6   12.75    0.55
   4  17  -6   11.22    0.55
  -3 -17   6   59.15    2.02
   3 -17  -6   60.44    2.02
   3 -17  -6   58.20    2.04
  -3 -17   6   60.52    2.04
  -3  17   6   58.68    2.01
  -2 -17   6    4.09    0.35
  -2 -17   6    4.57    0.32
   2 -17  -6    4.36    0.32
  -2  17   6    3.53    0.39
   2  17  -6    4.35    0.37
  -1 -17   6   34.32    1.22
  -1 -17   6   34.04    1.23
   1 -17  -6   34.62    1.22
   1 -17  -6   33.34    1.22
  -1  17   6   33.41    1.23
   0 -17  -6    6.09    0.36
   0 -17   6    6.04    0.37
   0 -17  -6    6.64    0.38
   0 -17   6    5.99    0.39
   0  17   6    5.08    0.46
  -1 -17  -6    0.48    0.15
  -1 -17  -6    0.71    0.18
   1 -17   6    0.26    0.16
   1 -17   6    0.73    0.21
  -2 -17  -6   36.13    1.25
  -2 -17  -6   34.91    1.25
   2 -17   6   32.86    1.24
   2 -17   6   36.39    1.27
   3 -17   6    0.48    0.21
  -3 -17  -6    0.76    0.14
  -4 -17  -6   18.05    0.67
  -5 -17  -6    0.43    0.11
  -7  18   6    6.07    0.28
  -6 -18   6    5.69    0.52
   6  18  -6    7.92    0.52
  -6  18   6    7.83    0.34
  -5 -18   6    0.62    0.15
   5  18  -6    0.77    0.20
  -5  18   6    0.56    0.15
   4 -18  -6    0.13    0.17
   4 -18  -6    0.70    0.22
  -4 -18   6    0.25    0.21
  -4 -18   6    0.43    0.15
  -4  18   6    0.14    0.17
   4  18  -6   -0.05    0.18
   3 -18  -6    1.62    0.33
   3 -18  -6    1.89    0.28
  -3 -18   6    1.62    0.32
  -3 -18   6    1.69    0.26
  -3  18   6    1.40    0.24
   3  18  -6    1.28    0.23
   2 -18  -6   15.97    0.64
  -2 -18   6   14.97    0.64
  -2 -18   6   15.44    0.66
   2  18  -6   16.32    0.80
  -2  18   6   15.05    0.67
  -1 -18   6   35.64    1.30
  -1 -18   6   36.81    1.28
   1 -18  -6   35.35    1.28
   1 -18  -6   35.54    1.28
  -1  18   6   34.29    1.29
   1  18  -6   37.77    1.30
   0 -18   6    7.24    0.42
   0 -18  -6    6.90    0.39
   0 -18   6    7.41    0.41
   0 -18  -6    6.95    0.39
   1 -18   6    1.03    0.21
   1 -18   6    0.85    0.19
  -1 -18  -6    1.14    0.29
  -1 -18  -6    0.91    0.24
   2 -18   6    0.48    0.20
  -2 -18  -6    0.39    0.19
   2 -18   6    0.65    0.19
  -2 -18  -6    0.35    0.13
  -3 -18  -6    4.74    0.31
   3 -18   6    3.81    0.43
  -4 -18  -6    0.06    0.10
  -5 -18  -6    8.67    0.36
  -6  19   6    0.27    0.13
  -5 -19   6    0.32    0.13
   5  19  -6    0.36    0.21
  -5  19   6    0.27    0.14
   4 -19  -6   -0.21    0.14
  -4 -19   6    0.48    0.22
   4 -19  -6   -0.12    0.22
  -4 -19   6    0.11    0.13
   4  19  -6   -0.08    0.19
  -3 -19   6    0.12    0.17
  -3 -19   6   -0.05    0.14
   3 -19  -6   -0.10    0.14
  -3  19   6   -0.15    0.20
   3  19  -6   -0.24    0.19
  -2 -19   6    4.43    0.33
   2 -19  -6    4.74    0.32
  -2 -19   6    4.17    0.34
  -2  19   6    4.86    0.41
   2  19  -6    3.92    0.36
  -1 -19   6    7.26    0.40
  -1 -19   6    7.24    0.42
   1 -19  -6    7.41    0.44
   1 -19  -6    7.36    0.39
  -1  19   6    6.82    0.49
   1  19  -6    6.76    0.43
   0 -19  -6   34.91    1.24
   0 -19  -6   34.17    1.24
   0 -19   6   35.49    1.27
   0 -19   6   35.60    1.25
  -1 -19  -6    1.85    0.24
   1 -19   6    1.90    0.34
   1 -19   6    2.25    0.29
  -1 -19  -6    1.56    0.27
  -2 -19  -6    5.51    0.32
   2 -19   6    4.73    0.38
  -3 -19  -6    3.55    0.25
  -4 -19  -6    0.66    0.16
  -6  20   6   11.23    0.45
  -5 -20   6   31.24    1.08
  -5  20   6   31.80    1.07
   5  20  -6   28.96    1.12
  -4 -20   6   28.27    0.98
   4 -20  -6   27.42    0.98
  -4 -20   6   26.11    0.99
  -4  20   6   26.86    0.98
   4  20  -6   26.53    1.00
  -3 -20   6   16.00    0.65
  -3 -20   6   15.23    0.63
   3 -20  -6   15.54    0.63
  -3  20   6   15.03    0.65
   3  20  -6   14.49    0.65
   2 -20  -6   29.73    1.06
  -2 -20   6   29.58    1.07
  -2 -20   6   29.56    1.06
  -2  20   6   27.49    1.07
   2  20  -6   28.68    1.08
  -1 -20   6    1.35    0.27
  -1 -20   6    1.06    0.25
   1 -20  -6    1.47    0.24
   1 -20  -6    1.60    0.35
   1  20  -6    0.97    0.22
   0 -20  -6  101.76    3.47
   0 -20   6  105.94    3.50
   0 -20  -6  106.89    3.48
   0 -20   6  107.21    3.48
   1 -20   6   18.30    0.74
  -1 -20  -6   18.77    0.73
   1 -20   6   19.74    0.76
  -1 -20  -6   17.62    0.71
  -2 -20  -6    5.14    0.42
  -2 -20  -6    5.68    0.36
   2 -20   6    5.55    0.38
  -3 -20  -6    0.01    0.10
  -4 -20  -6    1.77    0.16
  -5 -21   6    5.07    0.28
   5  21  -6    4.92    0.46
  -5  21   6    4.50    0.31
  -4 -21   6    4.72    0.36
  -4 -21   6    4.90    0.28
   4 -21  -6    5.40    0.33
   4  21  -6    4.96    0.44
  -4  21   6    4.87    0.34
  -3 -21   6    7.43    0.40
   3 -21  -6    6.23    0.39
  -3 -21   6    7.12    0.51
   3  21  -6    6.40    0.43
  -3  21   6    6.69    0.44
  -2 -21   6   26.55    0.97
  -2 -21   6   27.16    0.96
   2 -21  -6   26.66    0.96
   2  21  -6   23.57    0.97
  -1 -21   6    4.12    0.30
  -1 -21   6    4.18    0.31
   1 -21  -6    3.82    0.29
   1  21  -6    3.39    0.35
   0 -21  -6    0.89    0.17
   0 -21   6    0.61    0.15
   0 -21   6    1.20    0.27
   0 -21  -6    0.99    0.22
   1 -21   6    0.60    0.21
  -2 -21  -6    3.83    0.25
   2 -21   6    3.43    0.31
  -2 -21  -6    3.72    0.33
  -3 -21  -6    8.68    0.37
  -4 -21  -6    3.75    0.20
  -5 -22   6    0.74    0.17
   4 -22  -6    0.31    0.15
  -4 -22   6    0.32    0.11
  -4 -22   6   -0.06    0.18
   4  22  -6    0.52    0.23
  -3 -22   6    2.41    0.26
   3 -22  -6    2.66    0.24
  -3 -22   6    2.47    0.22
   3  22  -6    2.69    0.34
   2  22  -6    0.12    0.20
   1 -22  -6   11.79    0.49
  -1 -22   6   11.15    0.50
   1  22  -6   10.40    0.53
   0 -22   6   23.82    0.84
   0 -22  -6   22.16    0.82
   0  22  -6   21.24    0.86
  -1 -22  -6    0.15    0.12
  -1 -22  -6    0.05    0.11
   1 -22   6    0.01    0.13
  -2 -22  -6    3.43    0.32
  -2 -22  -6    3.79    0.24
   2 -22   6    3.77    0.30
  -3 -22  -6    0.30    0.09
  -4 -22  -6    2.34    0.17
  -5 -23   6    4.02    0.23
  -4 -23   6   -0.06    0.10
  -4 -23   6    0.06    0.24
   4  23  -6    0.17    0.28
  -3 -23   6   11.49    0.46
  -3 -23   6   11.02    0.48
   3 -23  -6   10.90    0.46
   3  23  -6    9.90    0.54
  -2 -23   6   27.54    0.98
  -2 -23   6   27.24    0.97
   2 -23  -6   26.48    0.96
   2  23  -6   26.04    1.02
  -1 -23   6    5.08    0.30
  -1 -23   6    5.33    0.31
   1 -23  -6    4.64    0.29
   1  23  -6    4.80    0.39
   0 -23   6   10.78    0.47
   0 -23   6   10.24    0.47
   0 -23  -6   10.96    0.45
   0 -23  -6   10.60    0.45
   0  23  -6    9.66    0.56
  -1 -23  -6    0.03    0.11
  -1 -23  -6   -0.06    0.12
   1 -23   6    0.33    0.14
  -2 -23  -6    3.94    0.23
   2 -23   6    3.79    0.30
  -3 -23  -6    2.43    0.17
  -5 -24   6    3.62    0.21
  -4 -24   6   48.33    1.56
   4 -24  -6   45.07    1.56
   3 -24  -6    1.45    0.18
  -3 -24   6    1.40    0.19
  -3 -24   6    1.44    0.21
   3  24  -6    1.90    0.41
  -2 -24   6    3.82    0.24
  -2 -24   6    4.17    0.27
   2 -24  -6    3.68    0.24
   2  24  -6    2.92    0.41
  -1 -24   6    3.16    0.25
  -1 -24   6    2.95    0.24
   1 -24  -6    3.23    0.23
   1  24  -6    3.17    0.41
   0 -24  -6    5.41    0.33
   0 -24  -6    5.64    0.29
   0 -24   6    5.89    0.31
   0 -24   6    5.73    0.33
   0  24  -6    5.24    0.45
   1 -24   6  106.94    3.35
  -1 -24  -6  101.01    3.33
  -1 -24  -6   98.04    3.32
   2 -24   6    0.31    0.17
  -2 -24  -6    0.10    0.09
  -3 -24  -6    0.18    0.08
  -4 -25   6    1.67    0.16
  -3 -25   6   29.61    0.99
  -3 -25   6   28.23    0.99
   3 -25  -6   28.19    0.98
  -2 -25   6    7.74    0.34
   2 -25  -6    7.57    0.34
  -2 -25   6    7.94    0.36
   2  25  -6    6.89    0.68
   1 -25  -6    0.31    0.10
  -1 -25   6    0.15    0.12
  -1 -25   6    0.17    0.10
   1  25  -6    0.39    0.29
   0 -25  -6    0.50    0.20
   0 -25   6    0.71    0.17
   0 -25  -6    0.53    0.11
   0 -25   6    0.52    0.12
   1 -25   6    8.42    0.37
  -1 -25  -6    8.13    0.36
  -1 -25  -6    8.39    0.36
  -2 -25  -6    5.39    0.25
  -4 -26   6    1.69    0.14
   3 -26  -6    0.44    0.11
  -3 -26   6    0.30    0.13
  -2 -26   6    0.26    0.10
  -2 -26   6    0.59    0.16
   2 -26  -6    0.52    0.14
  -1 -26   6    0.15    0.12
  -1 -26   6    0.22    0.10
   1 -26  -6    0.02    0.08
   0 -26   6   -0.07    0.10
   0 -26  -6   -0.09    0.09
  -1 -26  -6   16.63    0.62
  -1 -26  -6   17.70    0.63
   1 -26   6   17.80    0.63
  -2 -26  -6    0.73    0.17
  -3 -27   6    6.94    0.29
  -2 -27   6   20.72    0.73
   2 -27  -6   20.74    0.73
  -2 -27   6   21.12    0.72
  -1 -27   6    7.08    0.32
   0 -27  -6    0.66    0.15
   1 -27   6    8.00    0.37
   1 -28  -6    0.06    0.09
  -1 -28   6    0.17    0.09
  -8   0   7    0.06    0.10
  -7   0   7    0.34    0.14
  -6   0   7   -0.06    0.14
   6   0  -7   -0.24    0.27
  -5   0   7    0.10    0.16
  -4   0   7    0.02    0.29
  -4   0   7    0.43    0.17
  -3   0   7    0.16    0.17
   2   0  -7    0.08    0.12
   1   0  -7   -0.07    0.11
  -1   0   7    0.06    0.18
   0   0   7    0.21    0.19
   0   0  -7    0.04    0.11
   1   0   7    0.27    0.18
   1   0   7   -0.07    0.16
   1   0   7    0.07    0.19
   2   0   7   -0.10    0.17
   2   0   7    0.12    0.17
   2   0   7   -0.07    0.17
   3   0   7   -0.23    0.20
   3   0   7    0.03    0.15
   3   0   7   -0.01    0.16
   4   0   7   -0.09    0.16
   4   0   7    0.10    0.16
   5   0   7   -0.03    0.14
   5   0   7   -0.01    0.14
   6   0   7    0.05    0.10
   6   0   7    0.16    0.11
  -8  -1   7   11.80    0.47
  -8   1   7   11.89    0.47
  -7  -1   7    0.89    0.16
  -7   1   7    1.09    0.23
  -6  -1   7   45.15    1.57
  -6   1   7   45.65    1.57
   6   1  -7   45.48    1.65
  -5  -1   7    9.46    0.46
  -5   1   7    9.05    0.52
  -4  -1   7   24.36    1.02
  -4  -1   7   27.29    0.94
  -4   1   7   27.12    0.94
  -4   1   7   24.51    1.01
  -3  -1   7   59.42    2.02
  -3   1   7   61.27    2.02
   2  -1  -7   11.60    0.52
   2   1  -7   11.69    0.53
   1  -1  -7  103.29    3.29
   1   1  -7  100.64    3.29
  -1   1   7   94.60    3.30
   0  -1  -7    5.72    0.35
   0  -1   7    5.35    0.38
   0   1  -7    5.79    0.33
   0   1   7    5.14    0.36
   1  -1   7    5.91    0.39
   1  -1   7    5.34    0.38
   1  -1   7    5.82    0.37
   1   1   7    5.44    0.38
   1   1   7    5.00    0.35
   1   1   7    5.03    0.37
   2  -1   7  101.85    3.37
   2  -1   7  101.69    3.36
   2  -1   7   99.15    3.36
   2   1   7  101.84    3.36
   2   1   7  102.77    3.37
   2   1   7  103.55    3.36
   3  -1   7    2.10    0.30
   3  -1   7    2.04    0.29
   3  -1   7    2.35    0.35
   3   1   7    2.70    0.32
   3   1   7    1.79    0.28
   4  -1   7    1.58    0.29
   4  -1   7    1.24    0.21
   4   1   7    1.66    0.28
   4   1   7    0.87    0.20
   5  -1   7   -0.06    0.16
   5  -1   7   -0.01    0.15
   5   1   7   -0.13    0.16
   5   1   7    0.06    0.15
   6  -1   7    0.03    0.11
   6  -1   7    0.13    0.10
   6   1   7    0.09    0.11
   6   1   7    0.26    0.11
  -8  -2   7   -0.11    0.10
  -8   2   7    0.30    0.11
  -7  -2   7    0.10    0.13
  -7   2   7   -0.13    0.13
  -6  -2   7    0.06    0.15
  -6   2   7   -0.08    0.15
  -5  -2   7   15.32    0.62
  -5   2   7   14.63    0.63
  -4  -2   7    2.84    0.28
  -4  -2   7    2.86    0.50
  -4   2   7    2.75    0.29
  -3  -2   7    6.38    0.39
  -3   2   7    6.75    0.38
   2  -2  -7   72.06    2.45
   2   2  -7   73.05    2.46
   1  -2  -7   94.17    3.12
  -1   2   7   93.08    3.15
   1   2  -7   96.40    3.14
   0  -2  -7   15.30    0.63
   0   2   7   15.53    0.65
   0   2  -7   16.75    0.64
   1  -2   7    1.28    0.31
   1  -2   7    1.61    0.34
   1  -2   7    1.56    0.31
   1   2   7    1.50    0.30
   1   2   7    1.91    0.31
   1   2   7    1.45    0.28
   2  -2   7   34.66    1.22
   2  -2   7   33.86    1.21
   2  -2   7   34.50    1.22
   2   2   7   33.84    1.21
   2   2   7   33.63    1.21
   2   2   7   33.30    1.22
   3  -2   7    2.92    0.30
   3  -2   7    3.67    0.39
   3  -2   7    3.33    0.33
   3   2   7    3.38    0.32
   3   2   7    2.93    0.42
   3   2   7    3.26    0.31
   4  -2   7    2.00    0.29
   4  -2   7    2.30    0.29
   4   2   7    2.09    0.29
   4   2   7    2.07    0.30
   5  -2   7    0.22    0.20
   5   2   7    0.28    0.22
   5   2   7    0.10    0.22
   6  -2   7    4.09    0.25
   6  -2   7    4.13    0.24
   6   2   7    4.40    0.24
   6   2   7    3.75    0.25
  -8  -3   7    0.70    0.16
  -8   3   7    0.58    0.12
  -8   3   7    0.74    0.17
  -7  -3   7    1.20    0.23
  -7   3   7    1.25    0.22
  -6  -3   7    8.04    0.42
  -6   3   7    8.30    0.42
  -5  -3   7    9.93    0.47
  -5   3   7    9.53    0.47
  -4  -3   7    0.47    0.27
  -4  -3   7    0.31    0.16
  -4   3   7    0.65    0.18
  -3  -3   7    6.45    0.38
  -3   3   7    5.96    0.38
  -3   3   7    6.55    0.43
   2  -3  -7    2.15    0.26
   2   3  -7    2.45    0.30
   1  -3  -7   12.97    0.54
  -1   3   7   12.76    0.62
   1   3  -7   13.49    0.58
   0  -3  -7   19.58    0.74
   0   3  -7   20.13    0.77
   1  -3   7   21.61    0.89
   1  -3   7   20.63    0.80
   1  -3   7   20.57    0.81
   1   3   7   21.03    0.80
   1   3   7   20.07    0.80
   1   3   7   21.15    0.81
   2  -3   7    0.42    0.19
   2  -3   7    0.62    0.18
   2  -3   7    0.43    0.19
   2   3   7    0.55    0.17
   2   3   7    0.49    0.18
   2   3   7    0.54    0.19
   3  -3   7    1.96    0.45
   3  -3   7    1.95    0.28
   3  -3   7    1.32    0.28
   3   3   7    1.45    0.31
   3   3   7    1.99    0.29
   3   3   7    2.17    0.30
   4  -3   7   -0.21    0.16
   4  -3   7    0.00    0.16
   4   3   7   -0.02    0.16
   4   3   7    0.06    0.15
   6  -3   7    1.95    0.20
   6  -3   7    2.01    0.19
   6   3   7    2.10    0.19
   6   3   7    1.88    0.20
  -8  -4   7   -0.06    0.10
  -8   4   7   -0.04    0.14
  -8   4   7    0.20    0.11
  -7  -4   7    0.62    0.16
  -6  -4   7    0.04    0.15
   6   4  -7    0.15    0.22
  -6   4   7    0.08    0.17
  -5  -4   7    6.48    0.38
  -5   4   7    6.53    0.38
  -4  -4   7   30.91    1.22
  -4  -4   7   33.63    1.14
  -4   4   7   31.61    1.13
  -3  -4   7    1.24    0.29
  -3   4   7    1.41    0.33
  -3   4   7    2.00    0.31
   2  -4  -7   11.29    0.53
   2   4  -7   10.89    0.55
   1  -4  -7    3.98    0.28
   1   4  -7    3.77    0.32
  -1   4   7    3.32    0.41
   0  -4  -7   11.25    0.48
   0   4  -7   11.08    0.53
   1  -4   7   25.95    1.10
   1  -4   7   26.45    0.97
   1  -4   7   26.53    0.97
   1   4   7   25.61    0.96
   1   4   7   26.57    0.96
   1   4   7   25.76    0.97
   2  -4   7    1.35    0.33
   2  -4   7    1.67    0.30
   2  -4   7    1.68    0.33
   2   4   7    2.32    0.29
   2   4   7    1.65    0.27
   2   4   7    1.86    0.28
   3  -4   7    1.28    0.28
   3  -4   7    1.25    0.28
   3   4   7    1.35    0.30
   3   4   7    2.00    0.30
   3   4   7    1.23    0.27
   4  -4   7   11.16    0.54
   4  -4   7   12.07    0.54
   4   4   7   11.95    0.55
   4   4   7   10.97    0.54
   5  -4   7    1.93    0.25
   5  -4   7    1.93    0.24
   5   4   7    1.74    0.28
   5   4   7    2.50    0.28
   6  -4   7    5.33    0.28
   6  -4   7    5.65    0.27
   6   4   7    5.56    0.27
   6   4   7    5.14    0.29
  -8  -5   7    6.99    0.32
  -8   5   7    7.43    0.34
  -8   5   7    7.65    0.33
  -7   5   7   11.14    0.53
  -6  -5   7    3.35    0.30
   6   5  -7    3.07    0.39
  -6   5   7    2.43    0.29
  -5  -5   7   55.89    1.86
  -5   5   7   53.49    1.85
  -4  -5   7   27.71    1.12
  -4  -5   7   28.85    1.03
  -4   5   7   28.97    1.03
  -3  -5   7    5.40    0.44
  -3  -5   7    5.28    0.38
  -3   5   7    5.38    0.38
  -3   5   7    5.36    0.38
   2  -5  -7  236.07    7.67
   2   5  -7  235.97    7.70
   1  -5  -7   37.01    1.33
   1   5  -7   38.73    1.37
   0  -5  -7    0.84    0.28
   0   5  -7    1.34    0.31
   1  -5   7   69.18    2.31
   1  -5   7   65.09    2.27
   1  -5   7   67.01    2.25
   1  -5   7   66.89    2.25
   1   5   7   67.09    2.26
   1   5   7   66.77    2.26
   1   5   7   67.58    2.25
   2  -5   7   22.39    0.87
   2  -5   7   22.77    0.86
   2  -5   7   22.06    0.87
   2   5   7   23.56    0.86
   2   5   7   21.69    0.86
   2   5   7   22.79    0.86
   3  -5   7  250.83    8.07
   3  -5   7  248.19    8.08
   3  -5   7  238.36    8.06
   3   5   7  258.71    8.08
   3   5   7  249.95    8.09
   4  -5   7    0.72    0.19
   4  -5   7    0.65    0.18
   4   5   7   -0.03    0.17
   4   5   7    0.22    0.16
   5  -5   7    0.15    0.13
   5  -5   7    0.33    0.15
   5   5   7    0.11    0.14
   5   5   7    0.39    0.15
   6  -5   7    8.78    0.37
   6  -5   7    8.44    0.37
   6   5   7    8.68    0.38
   6   5   7    8.43    0.37
  -8  -6   7    1.95    0.18
  -8   6   7    2.14    0.20
  -8   6   7    2.03    0.21
  -7  -6   7    9.12    0.41
  -7   6   7    9.01    0.42
  -6  -6   7    7.20    0.39
   6   6  -7    6.72    0.47
  -6   6   7    7.33    0.40
  -5  -6   7    0.88    0.17
  -5   6   7    1.12    0.28
  -4  -6   7    5.43    0.36
  -4  -6   7    5.27    0.54
  -4  -6   7    5.83    0.50
  -4   6   7    5.28    0.38
  -3  -6   7   16.85    0.70
  -3  -6   7   15.86    0.68
  -3  -6   7   16.58    0.67
  -3   6   7   16.05    0.66
  -3   6   7   16.02    0.69
  -2  -6   7    0.78    0.21
   2  -6  -7    0.60    0.20
  -2   6   7    0.62    0.18
   1  -6  -7    5.02    0.35
   1   6  -7    5.26    0.42
   0  -6   7    0.70    0.21
   0  -6   7    0.84    0.18
   0   6   7    1.13    0.20
   0   6  -7    0.74    0.21
   0   6   7    0.59    0.18
   1  -6   7    2.57    0.43
   1  -6   7    3.96    0.36
   1  -6   7    4.26    0.37
   1  -6   7    3.72    0.41
   1   6   7    3.52    0.32
   1   6   7    3.55    0.38
   1   6   7    3.08    0.31
   2  -6   7    4.40    0.40
   2  -6   7    4.27    0.40
   2  -6   7    4.62    0.36
   2   6   7    4.69    0.36
   2   6   7    5.46    0.35
   2   6   7    4.92    0.33
   3  -6   7   24.77    0.93
   3  -6   7   23.18    1.00
   3  -6   7   25.74    0.95
   3   6   7   24.52    0.95
   3   6   7   25.65    0.94
   4  -6   7    0.36    0.17
   4  -6   7   -0.07    0.18
   4   6   7    0.02    0.16
   4   6   7   -0.09    0.18
   5  -6   7    2.38    0.25
   5  -6   7    2.11    0.24
   5   6   7    2.59    0.25
   5   6   7    2.29    0.26
   6  -6   7    1.38    0.19
   6  -6   7    1.86    0.20
   6   6   7    1.97    0.21
   6   6   7    1.83    0.19
  -8  -7   7    1.63    0.18
  -8   7   7    1.77    0.19
  -7  -7   7    0.37    0.13
  -7   7   7    0.21    0.14
  -6  -7   7    1.61    0.26
  -6   7   7    1.81    0.27
   6   7  -7    2.15    0.38
  -5  -7   7    8.33    0.43
  -5   7   7    8.40    0.44
   5   7  -7    8.45    0.49
  -4  -7   7    6.14    0.40
  -4  -7   7    5.89    0.53
   4  -7  -7    6.86    0.45
  -4  -7   7    6.37    0.47
  -4   7   7    6.16    0.40
  -3  -7   7   14.24    0.63
  -3  -7   7   14.18    0.62
  -3  -7   7   14.33    0.64
  -3   7   7   13.34    0.63
  -3   7   7   14.36    0.60
  -2  -7   7   23.90    0.94
  -2  -7   7   24.71    0.93
   2  -7  -7   28.39    1.09
  -2   7   7   24.07    0.93
   1  -7  -7   91.34    3.10
  -1  -7   7   89.22    3.06
  -1   7   7   92.38    3.07
   1   7  -7   99.10    3.19
   0  -7   7    0.19    0.17
   0  -7   7    0.15    0.16
   0   7   7    0.45    0.17
   0   7  -7    0.44    0.25
   0   7   7    0.07    0.17
   1  -7   7   39.86    1.40
   1  -7   7   39.39    1.40
   1  -7   7   39.10    1.42
   1  -7   7   39.54    1.48
   1   7   7   42.35    1.39
   1   7   7   40.03    1.41
   1   7   7   38.71    1.40
   2  -7   7    2.07    0.33
   2  -7   7    1.55    0.36
   2  -7   7    1.42    0.36
   2   7   7    1.85    0.32
   2   7   7    1.81    0.28
   2   7   7    2.05    0.29
   3  -7   7   33.42    1.21
   3  -7   7   33.80    1.23
   3   7   7   34.18    1.23
   4  -7   7   13.61    0.60
   4  -7   7   14.02    0.60
   4   7   7   13.71    0.61
   4   7   7   13.28    0.60
  -5  -7  -7   47.23    1.61
   5  -7   7   47.20    1.61
   5  -7   7   47.20    1.62
   5   7   7   46.36    1.62
   5   7   7   48.39    1.62
   6  -7   7   10.72    0.42
   6  -7   7   10.68    0.43
   6   7   7   10.48    0.44
  -8   8   7   -0.03    0.10
  -8   8   7   -0.03    0.14
  -7  -8   7    8.47    0.40
  -7   8   7    9.21    0.41
  -6  -8   7   33.37    1.17
   6   8  -7   32.53    1.21
  -6   8   7   33.51    1.17
  -5  -8   7   19.52    0.74
   5   8  -7   19.47    0.78
  -5   8   7   18.36    0.75
  -4  -8   7   15.37    0.69
   4  -8  -7   16.08    0.68
  -4  -8   7   15.70    0.73
  -4  -8   7   15.82    0.65
  -4   8   7   15.22    0.66
  -3  -8   7    5.93    0.43
  -3  -8   7    6.56    0.43
  -3  -8   7    7.30    0.44
  -3   8   7    6.86    0.39
  -3   8   7    6.72    0.46
  -2  -8   7    2.76    0.33
  -2  -8   7    2.07    0.32
  -2  -8   7    2.69    0.39
  -2   8   7    2.77    0.31
   1  -8  -7   95.76    3.27
  -1  -8   7   99.89    3.24
  -1  -8   7   99.13    3.25
  -1   8   7   97.69    3.23
   0  -8   7  154.63    5.05
   0  -8   7  151.77    5.04
   0  -8   7  154.17    5.04
   0   8   7  157.22    5.04
   0   8   7  155.79    5.04
  -1  -8  -7   18.36    0.75
   1  -8   7   19.14    0.77
   1  -8   7   18.27    0.78
   1  -8   7   18.64    0.76
   1   8   7   20.39    0.74
   1   8   7   18.19    0.78
   1   8   7   19.02    0.75
   2  -8   7    0.49    0.21
   2  -8   7    0.38    0.21
   2  -8   7    0.49    0.24
   2   8   7    0.64    0.19
   2   8   7    0.85    0.21
   3  -8   7   15.64    0.66
   3  -8   7   15.80    0.68
   3   8   7   16.23    0.68
   3   8   7   15.85    0.68
   4  -8   7   13.76    0.60
   4  -8   7   14.40    0.61
  -4  -8  -7   13.69    0.59
   4   8   7   14.03    0.62
   4   8   7   14.16    0.61
   5  -8   7    5.96    0.34
  -5  -8  -7    6.09    0.37
   5  -8   7    6.33    0.34
   5   8   7    6.31    0.35
   5   8   7    5.92    0.34
   6  -8   7    2.28    0.20
   6  -8   7    2.44    0.25
   6   8   7    2.16    0.22
   6   8   7    2.25    0.25
  -8  -9   7    6.36    0.30
  -7  -9   7    0.24    0.14
  -7   9   7    0.28    0.16
  -6  -9   7   12.54    0.55
  -6   9   7   13.16    0.56
   6   9  -7   13.22    0.61
  -5  -9   7   12.27    0.54
   5   9  -7   12.68    0.59
  -5   9   7   11.41    0.56
   4  -9  -7   15.15    0.67
  -4  -9   7   15.00    0.71
  -4  -9   7   15.57    0.66
  -4  -9   7   15.10    0.64
  -4   9   7   14.56    0.67
   3  -9  -7   41.25    1.38
  -3  -9   7   40.80    1.40
  -3  -9   7   38.82    1.38
  -3  -9   7   40.59    1.39
  -3   9   7   38.76    1.37
  -3   9   7   35.33    1.40
  -2  -9   7   36.15    1.27
  -2  -9   7   33.31    1.28
  -2  -9   7   36.10    1.25
  -2   9   7   35.78    1.25
  -1  -9   7   30.95    1.09
   1  -9  -7   29.74    1.17
  -1  -9   7   30.74    1.10
  -1   9   7   30.54    1.09
  -1   9   7   29.30    1.10
   0  -9   7   14.55    0.71
   0  -9   7   16.43    0.67
   0  -9   7   16.57    0.68
   0   9   7   17.23    0.66
   0   9   7   16.34    0.67
   1  -9   7   13.34    0.63
   1  -9   7   14.07    0.60
   1  -9   7   12.65    0.61
  -1  -9  -7   13.09    0.58
   1   9   7   13.91    0.57
   1   9   7   12.96    0.59
   1   9   7   13.14    0.63
   2  -9   7   56.13    1.91
   2  -9   7   54.47    1.92
   2  -9   7   56.38    1.91
   2   9   7   56.10    1.91
   3  -9   7   24.15    0.95
   3  -9   7   24.59    0.94
   3   9   7   24.93    0.95
   3   9   7   25.33    0.95
  -4  -9  -7   40.57    1.43
   4  -9   7   40.49    1.43
   4  -9   7   40.85    1.44
   4   9   7   41.43    1.45
   4   9   7   41.70    1.44
  -5  -9  -7    9.45    0.44
   5  -9   7    8.98    0.42
   5  -9   7    8.77    0.42
   5   9   7    8.87    0.42
   5   9   7    9.67    0.44
   6  -9   7   10.86    0.43
  -8 -10   7    8.30    0.40
  -8  10   7    9.02    0.36
  -7 -10   7   19.69    0.73
  -7  10   7   20.17    0.74
  -7  10   7   19.78    0.75
  -6 -10   7    0.50    0.17
  -6  10   7    0.47    0.20
   6  10  -7    0.51    0.23
  -5 -10   7    0.79    0.24
  -5 -10   7    1.06    0.20
   5  10  -7    0.88    0.24
  -5  10   7    0.70    0.23
  -4 -10   7    0.31    0.23
   4 -10  -7    0.26    0.25
  -4  10   7    0.35    0.26
  -3 -10   7   21.98    0.85
   3 -10  -7   23.05    0.85
  -3 -10   7   20.50    0.87
  -3 -10   7   23.13    0.88
  -3  10   7   22.54    0.84
   2 -10  -7   51.08    1.69
  -2 -10   7   45.69    1.71
  -2 -10   7   50.27    1.71
  -2 -10   7   50.19    1.70
  -2  10   7   50.55    1.70
  -1 -10   7    1.36    0.27
   1 -10  -7    1.13    0.25
  -1 -10   7    0.87    0.18
  -1  10   7    1.42    0.22
  -1  10   7    2.19    0.34
   0 -10   7   11.34    0.54
   0 -10   7   11.33    0.62
   0 -10  -7   10.45    0.50
   0 -10   7   10.90    0.51
   0  10   7   11.44    0.52
   0  10   7   10.71    0.52
   1 -10   7    0.26    0.18
  -1 -10  -7    0.35    0.18
   1 -10   7   -0.10    0.25
   1 -10   7    0.17    0.19
   1  10   7    0.26    0.17
   1  10   7    0.12    0.25
   2 -10   7   12.94    0.83
   2 -10   7   12.21    0.71
   2  10   7   14.11    0.59
   2  10   7   12.95    0.67
   3 -10   7   15.92    0.68
   3 -10   7   15.39    0.68
   3  10   7   15.72    0.67
   3  10   7   15.98    0.69
   4 -10   7   15.75    0.71
   4 -10   7   16.57    0.67
  -4 -10  -7   15.99    0.65
   4  10   7   17.13    0.69
   4  10   7   16.39    0.68
   5 -10   7    0.84    0.17
   5 -10   7    0.54    0.15
  -5 -10  -7    0.56    0.15
   5  10   7    1.12    0.26
   5  10   7    0.97    0.23
   6 -10   7    1.87    0.22
  -8  11   7    1.12    0.16
  -7 -11   7    1.42    0.25
  -7  11   7    1.13    0.19
   6  11  -7    3.79    0.42
  -5 -11   7    2.35    0.33
  -5 -11   7    1.88    0.38
   5  11  -7    2.67    0.38
  -5  11   7    1.86    0.45
  -4 -11   7   30.02    1.09
  -4 -11   7   28.52    1.11
   4 -11  -7   29.53    1.08
  -4 -11   7   27.54    1.08
   4  11  -7   30.52    1.10
  -4  11   7   30.12    1.07
   3 -11  -7   10.96    0.52
  -3 -11   7   11.36    0.52
  -3 -11   7   11.06    0.55
  -3 -11   7   10.33    0.60
  -3  11   7   11.69    0.51
  -2 -11   7    4.89    0.38
  -2 -11   7    5.21    0.35
   2 -11  -7    5.25    0.34
  -2  11   7    5.61    0.37
   1 -11  -7    0.33    0.13
  -1 -11   7    0.27    0.14
  -1 -11   7    0.36    0.17
  -1  11   7    0.37    0.19
   0 -11  -7    0.04    0.14
   0 -11   7    0.08    0.17
   0 -11   7    0.21    0.17
   0  11   7    0.22    0.19
  -1 -11  -7   24.58    0.94
   1 -11   7   25.24    0.96
   1 -11   7   25.82    0.98
   1  11   7   26.48    0.96
   2 -11   7   20.40    0.85
   2 -11   7   19.91    0.84
   2 -11   7   20.00    0.85
   2  11   7   22.32    0.82
   2  11   7   19.76    0.84
   3 -11   7    8.86    0.53
   3 -11   7    9.44    0.54
   3  11   7    8.95    0.53
   3  11   7    9.69    0.49
  -4 -11  -7   13.95    0.56
   4 -11   7   13.31    0.58
   4 -11   7   13.62    0.59
   4  11   7   13.02    0.64
   5 -11   7    1.82    0.24
  -5 -11  -7    1.67    0.24
   5  11   7    1.29    0.29
   5  11   7    1.52    0.27
  -8  12   7    0.33    0.10
  -7 -12   7   15.72    0.67
  -7  12   7   18.81    0.65
  -6 -12   7   38.71    1.42
  -6  12   7   43.51    1.44
   6  12  -7   42.27    1.54
  -5 -12   7   28.32    1.04
  -5 -12   7   27.46    1.02
   5  12  -7   27.63    1.05
  -4 -12   7   86.01    2.80
  -4 -12   7   78.46    2.79
  -4 -12   7   83.59    2.82
   4 -12  -7   86.34    2.80
  -4  12   7   84.27    2.80
   4  12  -7   84.73    2.80
  -3 -12   7    5.54    0.39
  -2 -12   7   31.14    1.11
  -2 -12   7   30.55    1.13
   2 -12  -7   31.06    1.11
  -2  12   7   30.31    1.12
  -1 -12   7   51.09    1.77
  -1 -12   7   50.89    1.75
   1 -12  -7   51.49    1.75
  -1  12   7   51.07    1.76
   0 -12   7   49.37    1.70
   0 -12   7   49.49    1.71
   0 -12  -7   48.75    1.69
   0  12   7   50.11    1.71
  -1 -12  -7   47.06    1.61
   1  12   7   46.02    1.65
  -2 -12  -7    0.67    0.24
   2 -12   7    0.52    0.25
   2 -12   7    0.38    0.24
   2  12   7    0.72    0.21
  -3 -12  -7    1.79    0.23
   3  12   7    1.39    0.31
   3  12   7    1.31    0.28
   4 -12   7   36.99    1.33
  -4 -12  -7   38.06    1.34
   4  12   7   37.69    1.34
   4  12   7   39.95    1.35
  -5 -12  -7   15.82    0.58
   5 -12   7   15.20    0.61
  -7  13   7    0.13    0.11
  -6  13   7    1.82    0.23
  -5 -13   7    1.09    0.22
  -5  13   7    0.76    0.18
   5  13  -7    0.79    0.23
   4 -13  -7   73.07    2.41
  -4 -13   7   71.27    2.43
  -4 -13   7   72.33    2.41
   4  13  -7   70.61    2.41
  -4  13   7   71.04    2.41
   3 -13  -7    8.24    0.42
  -3 -13   7    8.02    0.42
  -3 -13   7    7.45    0.46
  -3  13   7    7.72    0.42
  -2 -13   7    1.70    0.30
  -2 -13   7    1.98    0.33
   2 -13  -7    2.20    0.34
  -2  13   7    2.21    0.31
  -1 -13   7   41.80    1.49
   1 -13  -7   43.52    1.48
  -1 -13   7   41.90    1.51
  -1  13   7   44.30    1.50
   0 -13   7    6.45    0.41
   0 -13  -7    7.77    0.39
   0 -13   7    6.40    0.49
   0  13   7    7.40    0.43
   1 -13   7    1.83    0.32
   1 -13   7    1.74    0.33
  -1 -13  -7    1.90    0.27
   1  13   7    1.84    0.34
   2 -13   7    7.35    0.50
   2 -13   7    7.13    0.48
  -2 -13  -7    5.42    0.47
   2  13   7    7.36    0.44
  -3 -13  -7    0.34    0.14
   3  13   7    0.50    0.20
  -4 -13  -7    5.84    0.32
   4  13   7    5.55    0.40
  -5 -13  -7    9.72    0.43
  -7  14   7    2.88    0.20
  -6  14   7   13.08    0.53
  -5 -14   7    3.56    0.35
  -5  14   7    3.34    0.29
   5  14  -7    3.32    0.40
   4 -14  -7   -0.01    0.18
  -4 -14   7    0.23    0.16
  -4 -14   7   -0.06    0.21
  -4  14   7   -0.06    0.15
  -3 -14   7   40.04    1.46
   3 -14  -7   40.42    1.43
  -3 -14   7   40.83    1.44
  -3  14   7   40.90    1.43
   3  14  -7   42.45    1.46
  -2 -14   7   28.57    1.09
   2 -14  -7   29.34    1.08
  -2 -14   7   31.90    1.12
  -2  14   7   30.54    1.10
  -1 -14   7    9.30    0.46
  -1 -14   7    9.03    0.48
   1 -14  -7    9.58    0.44
  -1  14   7   10.19    0.75
   0 -14  -7    4.27    0.30
   0 -14   7    3.89    0.33
   0 -14   7    4.38    0.34
   0  14   7    4.20    0.37
   1 -14   7    5.91    0.40
  -1 -14  -7    5.97    0.37
   1 -14   7    5.60    0.40
   1  14   7    5.97    0.42
  -2 -14  -7    2.91    0.39
   2 -14   7    3.29    0.42
  -2 -14  -7    2.93    0.27
   2 -14   7    3.76    0.42
   2  14   7    3.02    0.37
  -3 -14  -7    0.44    0.14
   3  14   7    0.13    0.21
  -4 -14  -7    6.32    0.32
   4  14   7    6.03    0.45
  -5 -14  -7    6.96    0.33
  -7  15   7   10.82    0.42
  -6  15   7    3.07    0.23
  -5 -15   7    9.97    0.48
  -5  15   7    9.31    0.44
   5  15  -7    8.62    0.53
  -4 -15   7    0.85    0.19
  -4 -15   7    0.72    0.22
   4 -15  -7    1.04    0.20
   4  15  -7    0.98    0.25
  -4  15   7    0.66    0.17
   3 -15  -7   47.25    1.60
  -3 -15   7   45.65    1.60
  -3 -15   7   47.09    1.63
   3  15  -7   44.27    1.61
  -3  15   7   46.57    1.60
  -2 -15   7    0.38    0.17
   2 -15  -7    0.63    0.15
  -2 -15   7    0.62    0.17
  -2  15   7    0.61    0.20
  -1 -15   7   33.48    1.20
   1 -15  -7   32.83    1.17
  -1 -15   7   31.91    1.18
   1 -15  -7   32.65    1.18
  -1  15   7   32.96    1.18
   0 -15   7    8.81    0.46
   0 -15  -7    8.64    0.43
   0 -15   7    8.59    0.45
   0 -15  -7    8.51    0.43
   0  15   7    8.88    0.48
  -1 -15  -7   14.27    0.62
   1 -15   7   14.96    0.64
   1 -15   7   14.16    0.64
  -1 -15  -7   14.64    0.60
   1  15   7   14.17    0.64
   2 -15   7   11.25    0.58
  -2 -15  -7   11.26    0.57
  -2 -15  -7   12.09    0.51
   2  15   7   11.88    0.59
  -3 -15  -7    4.94    0.31
   3  15   7    4.52    0.45
  -4 -15  -7    9.55    0.41
  -5 -15  -7    4.36    0.25
  -7  16   7   14.00    0.54
  -6  16   7   27.72    0.98
  -5 -16   7   36.89    1.31
  -5  16   7   38.13    1.34
   5  16  -7   35.38    1.42
   4 -16  -7    0.19    0.18
  -4 -16   7    0.31    0.16
  -4 -16   7    0.28    0.21
  -4  16   7    0.19    0.16
   4  16  -7   -0.18    0.23
  -3 -16   7   10.78    0.49
  -3 -16   7    9.97    0.52
   3 -16  -7   10.32    0.49
  -3  16   7   10.60    0.51
  -2 -16   7   30.88    1.13
   2 -16  -7   29.49    1.10
  -2 -16   7   29.86    1.11
   2  16  -7   31.55    1.18
  -2  16   7   30.64    1.11
  -1 -16   7  102.76    3.37
  -1 -16   7  103.33    3.39
   1 -16  -7   96.78    3.35
   1 -16  -7  101.56    3.37
  -1  16   7  104.45    3.37
   0 -16   7   49.40    1.76
   0 -16  -7   50.93    1.75
   0 -16   7   51.66    1.75
   0 -16  -7   51.00    1.74
   0  16   7   51.28    1.76
  -1 -16  -7    2.09    0.25
   1 -16   7    2.46    0.33
   1 -16   7    2.35    0.32
  -1 -16  -7    1.54    0.28
   1  16   7    2.24    0.37
  -2 -16  -7    5.76    0.43
   2 -16   7    5.83    0.44
  -2 -16  -7    5.88    0.34
   2  16   7    6.02    0.44
  -4 -16  -7    9.65    0.40
  -5 -16  -7   35.25    1.18
  -7  17   7    0.72    0.16
  -6  17   7   14.99    0.57
  -5 -17   7    8.02    0.40
  -5  17   7    7.36    0.38
   4 -17  -7   16.17    0.67
  -4 -17   7   16.59    0.71
  -4 -17   7   17.88    0.68
  -4  17   7   16.77    0.67
   4  17  -7   15.43    0.72
  -3 -17   7    4.84    0.37
  -3 -17   7    5.35    0.35
   3 -17  -7    5.71    0.35
   3  17  -7    4.84    0.45
  -3  17   7    5.21    0.38
  -2 -17   7    1.41    0.29
   2 -17  -7    1.91    0.26
  -2 -17   7    2.11    0.27
  -2  17   7    1.85    0.33
  -1 -17   7   37.34    1.35
   1 -17  -7   37.23    1.33
   1 -17  -7   37.55    1.33
  -1 -17   7   38.16    1.34
  -1  17   7   38.28    1.34
   0 -17  -7    0.52    0.16
   0 -17  -7    0.50    0.14
   0 -17   7    0.56    0.17
   0 -17   7    0.59    0.17
   0  17   7    0.60    0.22
   1 -17   7   10.35    0.52
  -1 -17  -7   10.16    0.50
  -1 -17  -7   10.67    0.48
   1 -17   7   10.94    0.53
   1  17   7   10.78    0.56
   2 -17   7    7.19    0.44
  -2 -17  -7    6.48    0.42
  -2 -17  -7    6.32    0.36
  -3 -17  -7    3.23    0.24
  -4 -17  -7    0.68    0.15
  -6  18   7    0.13    0.12
  -5 -18   7    1.62    0.23
  -5  18   7    1.11    0.23
  -4 -18   7    0.13    0.14
   4 -18  -7    0.14    0.21
   4  18  -7    0.22    0.27
  -4  18   7    0.02    0.16
  -3 -18   7    5.60    0.35
  -3 -18   7    5.11    0.38
   3 -18  -7    6.15    0.36
  -3  18   7    6.16    0.39
   3  18  -7    5.26    0.45
   2 -18  -7   10.56    0.48
  -2 -18   7    9.85    0.51
  -2 -18   7   10.17    0.49
   2  18  -7    9.96    0.57
  -2  18   7   10.72    0.52
  -1 -18   7    6.72    0.41
   1 -18  -7    7.37    0.38
   1 -18  -7    7.05    0.44
  -1 -18   7    6.99    0.40
  -1  18   7    7.63    0.45
   0 -18   7   10.86    0.50
   0 -18  -7   10.39    0.48
   0 -18  -7   10.02    0.47
   0 -18   7   10.06    0.50
   0  18   7   10.22    0.55
   1 -18   7    7.54    0.44
  -1 -18  -7    7.65    0.39
   1 -18   7    6.83    0.42
  -1 -18  -7    7.19    0.40
   2 -18   7    5.31    0.40
  -2 -18  -7    5.29    0.31
  -2 -18  -7    5.46    0.39
  -3 -18  -7    0.30    0.10
  -4 -18  -7    6.76    0.30
  -5 -19   7    0.86    0.15
  -5  19   7    0.91    0.22
  -4 -19   7   27.62    1.03
  -4 -19   7   27.94    1.02
   4 -19  -7   28.26    1.01
  -4  19   7   28.57    1.01
  -3 -19   7   36.07    1.29
  -3 -19   7   35.94    1.28
   3 -19  -7   36.08    1.27
  -3  19   7   36.97    1.27
   3  19  -7   34.24    1.32
  -2 -19   7    8.67    0.45
  -2 -19   7    8.69    0.44
   2 -19  -7    9.37    0.44
   2  19  -7    8.69    0.57
  -2  19   7    8.96    0.48
  -1 -19   7    4.11    0.34
  -1 -19   7    4.17    0.31
   1 -19  -7    5.00    0.38
   1 -19  -7    4.36    0.30
  -1  19   7    4.11    0.40
   0 -19   7   21.84    0.86
   0 -19   7   22.27    0.85
   0 -19  -7   23.03    0.84
   0 -19  -7   21.73    0.83
  -1 -19  -7    0.49    0.13
   1 -19   7    0.63    0.17
  -1 -19  -7    0.97    0.23
   1 -19   7    0.83    0.32
  -2 -19  -7    8.16    0.37
   2 -19   7    7.81    0.44
  -2 -19  -7    7.62    0.44
  -3 -19  -7    5.40    0.28
  -4 -19  -7    1.00    0.17
  -6  20   7    0.34    0.13
  -5 -20   7    7.23    0.35
  -5  20   7    7.71    0.36
  -4 -20   7    0.81    0.17
  -4 -20   7    0.79    0.21
   4 -20  -7    1.24    0.24
  -4  20   7    0.76    0.17
  -3 -20   7    1.57    0.24
  -3  20   7    1.73    0.30
  -2 -20   7    0.97    0.24
  -2 -20   7    0.46    0.15
   2 -20  -7    0.77    0.15
  -2  20   7    0.34    0.22
  -1 -20   7    3.00    0.29
  -1 -20   7    3.32    0.30
   1 -20  -7    2.90    0.27
  -1  20   7    2.61    0.40
   0 -20  -7   46.69    1.66
   0 -20   7   49.32    1.69
   0 -20  -7   48.28    1.67
   0 -20   7   50.57    1.68
  -1 -20  -7    8.78    0.41
   1 -20   7    8.37    0.43
   1 -20   7    8.80    0.46
  -1 -20  -7    8.16    0.43
  -2 -20  -7    1.12    0.19
  -2 -20  -7    1.02    0.20
   2 -20   7    0.88    0.18
  -3 -20  -7    0.69    0.14
  -4 -20  -7    0.35    0.09
  -5 -21   7    0.07    0.11
  -5  21   7   -0.08    0.15
  -4 -21   7    0.02    0.10
   4 -21  -7   -0.08    0.13
  -4 -21   7    0.00    0.16
  -4  21   7   -0.06    0.16
  -3 -21   7    4.81    0.31
  -3 -21   7    4.49    0.29
   3 -21  -7    4.77    0.28
  -3  21   7    4.83    0.35
  -2  21   7    6.62    0.44
  -1 -21   7    5.28    0.33
   1 -21  -7    4.53    0.30
   0 -21   7   42.56    1.65
   0 -21  -7   44.49    1.50
   0 -21   7   44.08    1.51
  -1 -21  -7    7.97    0.38
   1 -21   7    7.91    0.44
  -1 -21  -7    8.76    0.39
   1 -21   7    8.50    0.41
  -2 -21  -7    0.08    0.10
   2 -21   7    0.28    0.17
  -3 -21  -7    0.56    0.14
  -5 -22   7    0.28    0.11
  -4 -22   7    0.35    0.10
  -4 -22   7    0.60    0.17
  -3 -22   7    0.30    0.13
  -3 -22   7    0.26    0.10
   3 -22  -7    0.08    0.11
   2 -22  -7    0.67    0.17
  -2 -22   7    0.54    0.13
  -2 -22   7    0.36    0.12
  -1 -22   7    0.96    0.22
   1 -22  -7    0.69    0.19
  -1 -22   7    1.07    0.22
   0 -22   7   -0.18    0.14
   0 -22   7    0.03    0.11
   0 -22  -7    0.10    0.14
   0 -22  -7    0.17    0.11
  -1 -22  -7   -0.12    0.11
   1 -22   7    0.04    0.13
  -1 -22  -7    0.08    0.12
   2 -22   7    2.70    0.31
  -2 -22  -7    2.03    0.18
  -5 -23   7   -0.05    0.10
  -4 -23   7    2.47    0.19
  -4 -23   7    2.24    0.31
   4 -23  -7    2.30    0.24
  -3 -23   7    9.91    0.43
  -3 -23   7   10.84    0.44
   3 -23  -7   10.47    0.43
  -2 -23   7   10.01    0.44
  -2 -23   7    9.86    0.43
   2 -23  -7    9.76    0.42
  -1 -23   7   -0.01    0.11
  -1 -23   7    0.16    0.11
   1 -23  -7    0.00    0.09
   0 -23  -7    0.32    0.14
   0 -23  -7    0.32    0.10
   0 -23   7    0.41    0.12
   0 -23   7    0.38    0.15
  -1 -23  -7   11.87    0.48
  -1 -23  -7   12.37    0.48
   1 -23   7   12.33    0.50
  -2 -23  -7    0.03    0.09
  -3 -23  -7    5.39    0.24
   4 -24  -7    7.93    0.48
  -3 -24   7    1.10    0.20
   3 -24  -7    1.72    0.18
  -3 -24   7    1.61    0.17
  -2 -24   7    0.88    0.17
  -2 -24   7    0.48    0.11
   2 -24  -7    0.60    0.15
  -1 -24   7    0.34    0.11
  -1 -24   7    0.49    0.12
   1 -24  -7    0.31    0.10
   0 -24  -7    4.04    0.23
   0 -24   7    3.61    0.28
   0 -24   7    3.63    0.24
  -1 -24  -7    0.29    0.13
   1 -24   7    0.06    0.12
  -1 -24  -7    0.16    0.11
  -2 -24  -7    0.01    0.09
  -4 -25   7    0.05    0.08
  -3 -25   7   14.32    0.54
   3 -25  -7   14.67    0.53
  -3 -25   7   13.77    0.52
  -2 -25   7    0.17    0.09
   2 -25  -7    0.22    0.09
  -2 -25   7    0.12    0.09
  -1 -25   7    0.13    0.11
  -1 -25   7    0.25    0.10
   1 -25  -7    0.25    0.09
   0 -25  -7    0.06    0.09
   0 -25   7    0.11    0.17
   0 -25   7    0.08    0.09
   1 -25   7    0.39    0.12
  -1 -25  -7    0.26    0.12
  -1 -25  -7    0.34    0.13
  -2 -25  -7    1.26    0.16
   3 -26  -7    5.58    0.25
  -3 -26   7    4.83    0.23
  -3 -26   7    4.37    0.27
  -2 -26   7    4.80    0.25
   2 -26  -7    4.86    0.24
  -2 -26   7    5.00    0.24
   1 -26  -7    0.67    0.14
  -1 -26   7    0.69    0.15
  -1 -26   7    1.02    0.19
   0 -26  -7    0.62    0.15
   0 -26   7    0.27    0.10
  -2 -27   7    0.52    0.10
   2 -27  -7    0.69    0.14
  -2 -27   7    0.47    0.10
   1 -27  -7    0.81    0.14
  -1 -27   7    0.86    0.14
   0 -27  -7    2.91    0.20
   0 -27   7    3.05    0.19
  -8   0   8    0.08    0.10
  -7   0   8   18.49    0.97
  -7   0   8   20.33    0.84
  -6   0   8   31.94    1.14
  -6   0   8   32.20    1.16
  -5   0   8   55.10    1.94
  -5   0   8   59.02    1.94
  -4   0   8    5.79    0.44
  -4   0   8    5.28    0.34
  -4   0   8    5.24    0.45
  -3   0   8    4.15    0.39
  -3   0   8    4.45    0.45
  -3   0   8    4.37    0.34
  -2   0   8   55.61    1.91
  -2   0   8   56.23    1.89
  -1   0   8    4.43    0.37
   1   0  -8    4.67    0.41
  -1   0   8    4.93    0.36
  -1   0   8    4.20    0.35
   0   0   8   32.84    1.20
   0   0   8   34.56    1.22
   0   0   8   35.02    1.20
   0   0   8   32.64    1.21
   1   0   8    5.22    0.36
   1   0   8    5.11    0.35
   1   0   8    5.60    0.35
   1   0   8    4.76    0.44
   2   0   8    2.28    0.29
   2   0   8    2.50    0.29
   2   0   8    1.43    0.27
   3   0   8   36.66    1.29
   3   0   8   35.08    1.29
   3   0   8   36.74    1.30
   4   0   8   35.20    1.28
   4   0   8   36.09    1.29
   5   0   8   18.34    0.71
   5   0   8   18.40    0.70
  -8  -1   8    8.23    0.35
  -8   1   8    8.24    0.35
  -7  -1   8    0.12    0.18
  -7   1   8    0.30    0.16
  -7   1   8    0.52    0.20
  -6  -1   8    0.60    0.17
  -6  -1   8    0.62    0.27
  -6   1   8    0.51    0.15
  -6   1   8    0.35    0.21
  -5  -1   8   11.63    0.61
  -5  -1   8   11.56    0.52
  -5   1   8   11.76    0.57
  -5   1   8   12.93    0.53
  -4  -1   8   13.10    0.63
  -4  -1   8   12.91    0.54
  -4  -1   8   12.87    0.61
  -4   1   8   12.56    0.54
  -4   1   8   12.52    0.61
  -4   1   8   12.18    0.59
  -3  -1   8   62.62    2.03
  -3  -1   8   59.37    2.05
  -3  -1   8   58.06    2.06
  -3   1   8   61.12    2.03
  -3   1   8   62.44    2.06
  -3   1   8   58.42    2.04
  -2  -1   8   96.68    3.24
  -2  -1   8   95.33    3.22
  -2   1   8   98.05    3.24
  -2   1   8   94.00    3.22
  -2   1   8  105.59    3.27
  -1  -1   8   35.94    1.28
  -1  -1   8   35.20    1.26
  -1  -1   8   34.84    1.26
   1  -1  -8   35.21    1.31
  -1   1   8   36.42    1.32
  -1   1   8   35.14    1.26
  -1   1   8   37.55    1.27
   1   1  -8   36.46    1.32
  -1   1   8   35.30    1.26
   0  -1   8   33.53    1.18
   0  -1   8   32.79    1.20
   0  -1   8   34.17    1.19
   0  -1   8   33.30    1.21
   0   1   8   32.55    1.19
   0   1  -8   31.85    1.26
   0   1   8   34.80    1.19
   0   1   8   34.11    1.21
   0   1   8   33.09    1.18
   1  -1   8    3.96    0.42
   1  -1   8    3.66    0.31
   1  -1   8    3.86    0.34
   1  -1   8    4.16    0.33
   1   1   8    3.94    0.41
   1   1   8    3.99    0.33
   1   1   8    3.76    0.33
   1   1   8    3.97    0.31
   2  -1   8  190.21    6.01
   2  -1   8  173.20    6.06
   2  -1   8  194.55    6.00
   2   1   8  172.03    6.02
   2   1   8  175.54    6.03
   2   1   8  199.30    6.00
   3  -1   8    5.72    0.37
   3  -1   8    5.60    0.36
   3  -1   8    5.65    0.38
   3   1   8    5.10    0.37
   3   1   8    5.48    0.36
   3   1   8    5.36    0.36
   4  -1   8   16.85    0.71
   4  -1   8   17.58    0.72
   4   1   8   17.67    0.71
   4   1   8   17.70    0.72
   5  -1   8    4.81    0.29
   5  -1   8    5.15    0.30
   5   1   8    4.90    0.30
   5   1   8    5.02    0.29
   6  -1   8    1.03    0.23
  -8  -2   8   12.80    0.49
  -8   2   8   12.59    0.49
  -7  -2   8    0.33    0.14
  -7   2   8    0.30    0.12
  -7   2   8    0.18    0.18
  -6  -2   8    7.07    0.39
  -6   2   8    8.04    0.44
  -6   2   8    7.41    0.40
  -5  -2   8   21.48    0.80
  -5   2   8   20.58    0.82
  -5   2   8   20.78    0.80
  -4  -2   8   23.95    0.87
  -4  -2   8   24.48    0.94
  -4   2   8   22.79    0.89
  -4   2   8   23.22    0.87
  -3  -2   8   27.05    0.99
  -3  -2   8   23.90    0.99
  -3   2   8   25.98    0.97
  -3   2   8   27.13    0.99
  -3   2   8   26.46    0.95
  -2  -2   8    6.44    0.40
  -2  -2   8    6.37    0.44
  -2  -2   8    6.92    0.42
  -2   2   8    6.97    0.41
  -2   2   8    7.33    0.45
  -2   2   8    6.84    0.39
   1  -2  -8   10.72    0.54
  -1  -2   8   10.40    0.50
  -1  -2   8   10.48    0.50
  -1  -2   8   10.83    0.51
  -1   2   8   10.55    0.51
  -1   2   8   10.40    0.50
   1   2  -8    9.89    0.56
  -1   2   8   10.52    0.50
  -1   2   8   10.38    0.50
   0  -2   8   12.82    0.55
   0  -2   8   12.81    0.59
   0  -2   8   12.80    0.56
   0  -2   8   12.01    0.61
   0   2   8   13.05    0.56
   0   2   8   12.95    0.56
   0   2   8   12.64    0.58
   0   2   8   12.88    0.55
   0   2  -8   12.41    0.65
   1  -2   8   35.26    1.24
   1  -2   8   33.58    1.24
   1  -2   8   33.80    1.26
   1  -2   8   36.03    1.24
   1   2   8   35.89    1.24
   1   2   8   34.59    1.24
   1   2   8   31.96    1.25
   1   2   8   37.21    1.24
   2  -2   8   21.88    0.85
   2  -2   8   22.26    0.84
   2   2   8   21.62    0.84
   2   2   8   21.24    1.00
   3  -2   8    8.46    0.44
   3  -2   8    8.17    0.45
   3  -2   8    8.33    0.47
   3   2   8    8.75    0.45
   3   2   8    8.33    0.45
   3   2   8    8.39    0.45
   4  -2   8    0.22    0.16
   4  -2   8    0.06    0.15
   4   2   8    0.04    0.15
   4   2   8    0.28    0.16
   5  -2   8    1.00    0.20
   5  -2   8    0.53    0.14
   5   2   8    0.44    0.13
   5   2   8    0.57    0.14
   6  -2   8    0.17    0.10
   6  -2   8    0.06    0.14
   6   2   8   -0.04    0.12
   6   2   8    0.04    0.11
  -8  -3   8   11.61    0.45
  -8   3   8   11.79    0.45
  -8   3   8   10.61    0.50
  -7  -3   8    0.50    0.13
  -7   3   8    0.35    0.13
  -7   3   8    0.28    0.17
  -6  -3   8    0.28    0.14
  -6   3   8    0.21    0.15
  -6   3   8    0.43    0.19
  -5  -3   8   20.01    0.78
  -5   3   8   20.46    0.80
  -5   3   8   20.53    0.78
  -4  -3   8   48.53    1.69
  -4  -3   8   48.96    1.65
  -4   3   8   47.91    1.65
  -4   3   8   48.03    1.66
  -3  -3   8   77.17    2.73
  -3  -3   8   82.98    2.75
  -3  -3   8   84.22    2.72
  -3   3   8   84.70    2.75
  -3   3   8   82.97    2.73
  -3   3   8   80.40    2.72
  -2  -3   8   15.91    0.65
  -2  -3   8   16.92    0.67
  -2  -3   8   15.70    0.67
  -2   3   8   16.00    0.66
  -2   3   8   16.26    0.68
  -2   3   8   16.35    0.68
  -1  -3   8    1.50    0.22
  -1  -3   8    1.13    0.30
   1  -3  -8    1.47    0.33
  -1  -3   8    1.53    0.29
  -1   3   8    1.65    0.31
  -1   3   8    1.32    0.28
  -1   3   8    1.31    0.21
  -1   3   8    1.36    0.29
   1   3  -8    1.75    0.39
   0  -3   8   94.48    3.08
   0  -3   8   87.30    3.07
   0  -3   8   95.29    3.07
   0  -3   8   93.19    3.06
   0   3  -8   91.33    3.13
   0   3   8   92.80    3.07
   0   3   8   92.60    3.07
   0   3   8   93.26    3.06
   0   3   8   94.53    3.08
   1  -3   8   33.63    1.18
   1  -3   8   30.92    1.18
   1  -3   8   32.19    1.20
   1  -3   8   32.51    1.17
   1   3   8   32.26    1.17
   1   3   8   34.03    1.17
   1   3   8   33.03    1.17
   2  -3   8   12.22    0.68
   2  -3   8   11.60    0.54
   2   3   8   10.71    0.65
   3  -3   8   40.89    1.47
   3  -3   8   42.04    1.48
   3  -3   8   43.12    1.48
   3   3   8   40.68    1.48
   3   3   8   42.96    1.47
   3   3   8   41.45    1.48
   4  -3   8    0.21    0.15
   4  -3   8   -0.12    0.16
   4   3   8    0.05    0.15
   4   3   8   -0.01    0.17
   5  -3   8    3.92    0.27
   5  -3   8    3.90    0.27
   5   3   8    4.14    0.27
   5   3   8    4.34    0.28
   6  -3   8    9.75    0.39
   6  -3   8   10.19    0.39
   6   3   8    9.60    0.38
   6   3   8    9.70    0.39
  -8  -4   8    8.24    0.34
  -8   4   8    7.74    0.38
  -8   4   8    7.72    0.34
  -7  -4   8    5.55    0.30
  -7   4   8    5.20    0.33
  -7   4   8    5.13    0.30
  -6  -4   8   16.70    0.65
  -6   4   8   15.79    0.67
  -6   4   8   16.41    0.66
  -5  -4   8  113.34    3.74
  -5   4   8  111.57    3.74
  -5   4   8  116.21    3.73
  -4  -4   8   12.02    0.53
  -4  -4   8   12.50    0.61
  -4   4   8   12.16    0.54
  -4   4   8   12.17    0.54
  -3  -4   8   44.74    1.52
  -3  -4   8   42.93    1.48
  -3  -4   8   41.04    1.49
  -3   4   8   42.14    1.48
  -3   4   8   44.51    1.50
  -2  -4   8   12.67    0.57
  -2  -4   8   12.67    0.56
  -2  -4   8   12.73    0.57
  -2   4   8   12.76    0.56
  -2   4   8   12.91    0.57
   1  -4  -8  123.63    4.24
  -1  -4   8  127.60    4.20
  -1  -4   8  127.39    4.20
  -1  -4   8  130.92    4.21
  -1   4   8  132.78    4.21
  -1   4   8  128.46    4.20
  -1   4   8  125.63    4.20
  -1   4   8  130.68    4.20
   0  -4   8   85.68    2.89
   0  -4   8   80.65    2.90
   0  -4   8   88.99    2.91
   0  -4   8   91.12    2.90
   0   4   8   86.52    2.89
   0   4  -8   84.62    2.97
   0   4   8   86.62    2.89
   0   4   8   90.24    2.91
   0   4   8   90.48    2.90
   1  -4   8   24.66    0.89
   1  -4   8   22.33    0.91
   1  -4   8   22.18    0.92
   1  -4   8   24.01    0.89
   1   4   8   23.80    0.89
   1   4   8   22.97    0.89
   1   4   8   24.21    0.88
   2  -4   8    2.94    0.30
   2   4   8    2.64    0.29
   2   4   8    2.26    0.34
   2   4   8    2.58    0.30
   3  -4   8   49.88    1.71
   3  -4   8   48.12    1.71
   3  -4   8   49.90    1.72
   3   4   8   49.38    1.72
   3   4   8   49.79    1.72
   4  -4   8    8.12    0.42
   4  -4   8    7.42    0.42
   4   4   8    7.53    0.42
   4   4   8    7.78    0.43
   5  -4   8    3.00    0.24
   5  -4   8    2.66    0.24
   5   4   8    2.93    0.24
   5   4   8    2.63    0.24
   6  -4   8    3.44    0.21
   6  -4   8    3.29    0.21
   6   4   8    3.23    0.22
   6   4   8    3.81    0.21
  -8  -5   8    0.80    0.16
  -8   5   8    1.23    0.23
  -8   5   8    1.10    0.18
  -7  -5   8    0.21    0.12
  -7   5   8    0.01    0.14
  -7   5   8    0.11    0.13
  -6  -5   8    0.96    0.18
  -6   5   8    1.19    0.24
  -6   5   8    0.82    0.19
  -5  -5   8   21.80    0.80
  -5   5   8   20.57    0.80
  -5   5   8   20.44    0.81
  -4  -5   8   19.88    0.75
  -4  -5   8   18.55    0.81
  -4  -5   8   20.01    0.82
  -4   5   8   20.00    0.76
  -4   5   8   18.88    0.75
  -3  -5   8    2.00    0.34
  -3  -5   8    1.69    0.33
  -3  -5   8    2.25    0.29
  -3   5   8    2.06    0.29
  -3   5   8    1.79    0.31
  -2  -5   8   51.25    1.75
  -2  -5   8   52.89    1.77
  -2  -5   8   50.46    1.75
  -2   5   8   52.97    1.76
  -2   5   8   49.50    1.75
  -1  -5   8    0.51    0.17
  -1  -5   8    0.61    0.20
   1  -5  -8    0.40    0.24
  -1  -5   8    0.38    0.17
  -1   5   8    0.59    0.19
  -1   5   8    0.48    0.18
  -1   5   8    0.52    0.19
   0  -5   8   18.40    0.72
   0  -5   8   16.95    0.79
   0  -5   8   17.84    0.74
   0  -5   8   18.43    0.72
   0   5   8   18.78    0.73
   0   5   8   18.44    0.71
   0   5   8   17.81    0.72
   1  -5   8   24.72    0.93
   1  -5   8   26.03    0.94
   1  -5   8   24.30    0.96
   1  -5   8   23.94    0.94
   1   5   8   23.99    0.93
   1   5   8   25.40    0.92
   1   5   8   24.98    0.93
   2  -5   8    2.67    0.30
   2  -5   8    2.62    0.37
   2  -5   8    2.80    0.34
   2   5   8    2.55    0.30
   2   5   8    2.58    0.29
   2   5   8    2.52    0.30
   3  -5   8    1.96    0.35
   3  -5   8    1.90    0.28
   3  -5   8    2.28    0.32
   3   5   8    2.35    0.29
   3   5   8    2.24    0.28
   4  -5   8    0.12    0.16
   4  -5   8   -0.02    0.15
   4   5   8   -0.12    0.16
   4   5   8    0.33    0.16
   5  -5   8    2.24    0.22
   5  -5   8    2.31    0.22
   5   5   8    2.10    0.23
   5   5   8    2.14    0.22
   6  -5   8    2.44    0.19
   6  -5   8    1.88    0.19
   6   5   8    2.22    0.19
   6   5   8    2.27    0.20
  -8  -6   8    1.73    0.18
  -8   6   8    1.58    0.21
  -7  -6   8    2.39    0.23
  -7   6   8    2.17    0.24
  -7   6   8    2.24    0.23
  -6  -6   8    2.35    0.27
  -6   6   8    2.37    0.27
  -6   6   8    2.42    0.30
  -5  -6   8    2.87    0.29
  -5   6   8    2.93    0.30
  -5   6   8    2.63    0.30
  -4  -6   8   27.97    1.02
  -4  -6   8   26.76    1.04
  -4  -6   8   27.40    1.06
  -4   6   8   28.48    1.02
  -3  -6   8    1.24    0.28
  -3  -6   8    1.49    0.34
  -3  -6   8    1.06    0.21
  -3   6   8    1.40    0.23
  -3   6   8    1.18    0.27
  -2  -6   8    3.36    0.35
  -2  -6   8    3.24    0.33
  -2  -6   8    3.61    0.33
  -2   6   8    2.95    0.41
  -2   6   8    3.91    0.35
  -2   6   8    3.31    0.37
   1  -6  -8    1.44    0.46
  -1  -6   8    1.39    0.27
  -1  -6   8    1.50    0.33
  -1  -6   8    1.67    0.27
  -1   6   8    1.63    0.30
  -1   6   8    1.48    0.32
  -1   6   8    1.40    0.29
   0  -6   8    1.47    0.21
   0  -6   8    1.25    0.30
   0  -6   8    1.44    0.32
   0   6   8    1.26    0.27
   0   6   8    1.71    0.22
   0   6   8    1.34    0.31
   1  -6   8   -0.07    0.20
   1  -6   8   -0.09    0.17
   1  -6   8    0.34    0.24
   1  -6   8    0.20    0.18
   1   6   8    0.05    0.15
   1   6   8    0.46    0.17
   1   6   8    0.11    0.18
   2  -6   8   37.90    1.40
   2  -6   8   39.17    1.40
   2  -6   8   39.90    1.39
   2   6   8   40.05    1.40
   2   6   8   40.65    1.41
   2   6   8   39.52    1.39
   3  -6   8   26.15    0.97
   3  -6   8   25.90    0.99
   3  -6   8   25.85    0.98
   3   6   8   26.40    0.99
   3   6   8   26.06    0.97
   4  -6   8    0.41    0.16
   4  -6   8    0.76    0.18
   4   6   8    0.40    0.17
   4   6   8    1.10    0.26
   5  -6   8    0.34    0.13
   5  -6   8    0.34    0.13
   5   6   8    0.11    0.12
   5   6   8    0.21    0.13
   6  -6   8    1.51    0.20
   6  -6   8    1.47    0.18
   6   6   8    1.28    0.18
   6   6   8    1.37    0.21
  -8  -7   8    0.98    0.19
  -8   7   8    0.82    0.18
  -8   7   8    0.57    0.14
  -7  -7   8   19.34    0.72
  -7   7   8   19.80    0.73
  -7   7   8   19.26    0.73
  -6  -7   8    0.19    0.15
  -6   7   8    0.04    0.16
  -6   7   8    0.25    0.16
  -5  -7   8    2.50    0.29
  -5   7   8    1.97    0.28
  -5   7   8    1.97    0.30
   4  -7  -8   13.46    0.60
  -4  -7   8   12.96    0.62
  -4  -7   8   11.37    0.65
  -4  -7   8   13.52    0.63
  -4   7   8   14.69    0.58
  -4   7   8   12.81    0.58
  -3  -7   8   26.38    0.96
  -3  -7   8   26.44    0.98
  -3  -7   8   25.96    0.97
  -3   7   8   24.66    0.95
  -3   7   8   25.38    0.97
  -2  -7   8   96.61    3.12
  -2  -7   8   92.77    3.11
  -2  -7   8   94.21    3.10
  -2   7   8   93.24    3.11
  -2   7   8   88.17    3.11
  -2   7   8   98.65    3.11
  -1  -7   8    8.02    0.41
  -1  -7   8    8.43    0.44
  -1  -7   8    7.91    0.46
  -1   7   8    8.33    0.45
  -1   7   8    8.23    0.47
  -1   7   8    7.45    0.43
   0  -7   8    2.27    0.32
   0  -7   8    1.99    0.31
   0  -7   8    2.12    0.28
   0   7   8    2.58    0.30
   0   7   8    2.61    0.34
   0   7   8    2.01    0.29
   1  -7   8   24.19    0.94
   1  -7   8   22.72    0.96
   1  -7   8   24.81    0.92
   1  -7   8   23.78    0.92
   1   7   8   25.75    0.92
   1   7   8   24.16    0.92
   1   7   8   24.61    0.93
   2  -7   8   15.03    0.66
   2  -7   8   14.92    0.63
   2  -7   8   14.39    0.64
   2   7   8   14.41    0.62
   2   7   8   14.78    0.64
   2   7   8   15.09    0.63
   3  -7   8    8.53    0.47
   3  -7   8    9.37    0.45
   3  -7   8    7.98    0.49
   3   7   8    8.27    0.45
   3   7   8    9.35    0.47
   4  -7   8    7.64    0.51
   4  -7   8    5.92    0.42
   4   7   8    6.70    0.39
   4   7   8    6.86    0.40
   5  -7   8   -0.16    0.12
   5  -7   8    0.18    0.12
   5   7   8    0.10    0.13
   5   7   8    0.09    0.12
   6  -7   8    4.73    0.25
  -8  -8   8    5.58    0.28
  -8   8   8    5.73    0.28
  -8   8   8    5.34    0.34
  -7  -8   8   19.59    0.72
  -7   8   8   19.29    0.72
  -7   8   8   19.74    0.73
  -6  -8   8    3.71    0.29
  -6   8   8    3.22    0.31
  -6   8   8    3.48    0.32
  -5  -8   8    1.82    0.29
  -5   8   8    2.61    0.34
  -5   8   8    2.19    0.28
  -4  -8   8   31.52    1.11
   4  -8  -8   30.57    1.13
  -4   8   8   30.74    1.11
  -3  -8   8   11.01    0.57
  -3  -8   8   12.98    0.58
  -3  -8   8   12.78    0.57
  -3   8   8   12.64    0.60
  -3   8   8   13.03    0.56
  -2  -8   8   18.04    0.75
  -2  -8   8   19.01    0.76
  -2  -8   8   19.41    0.75
  -2   8   8   20.40    0.75
  -2   8   8   17.11    0.80
  -2   8   8   19.10    0.79
  -1  -8   8   56.43    1.96
  -1  -8   8   58.34    1.97
  -1  -8   8   59.66    1.96
  -1   8   8   56.07    1.96
  -1   8   8   58.43    1.96
  -1   8   8   57.85    1.96
   0  -8   8    1.90    0.29
   0  -8   8    2.54    0.32
   0  -8   8    2.50    0.33
   0   8   8    1.99    0.29
   0   8   8    2.45    0.36
   0   8   8    2.02    0.29
   1  -8   8   98.60    3.34
   1  -8   8  100.70    3.32
   1  -8   8  101.65    3.33
  -1  -8  -8   94.58    3.31
   1   8   8  101.71    3.32
   1   8   8  102.26    3.33
   1   8   8  104.00    3.34
   2  -8   8   10.72    0.51
   2  -8   8   10.24    0.52
   2  -8   8    9.79    0.56
   2   8   8   10.32    0.50
   2   8   8   10.19    0.51
   3  -8   8    9.04    0.47
   3  -8   8    9.85    0.50
   3   8   8    9.32    0.48
   3   8   8    9.91    0.49
   4  -8   8   71.64    2.34
   4  -8   8   72.33    2.35
  -4  -8  -8   68.13    2.39
   4   8   8   67.03    2.44
   5  -8   8    0.04    0.13
   5  -8   8    0.03    0.13
   5   8   8    0.00    0.13
   5   8   8   -0.14    0.13
  -8  -9   8   13.91    0.53
  -8   9   8   14.62    0.53
  -7  -9   8    8.53    0.38
  -7   9   8    8.06    0.39
  -7   9   8    8.75    0.39
  -6  -9   8   25.08    0.93
  -6   9   8   25.90    0.93
  -6   9   8   25.11    0.94
  -5  -9   8    1.99    0.43
  -5  -9   8    0.82    0.19
  -5   9   8    1.06    0.26
  -5   9   8    0.62    0.21
  -4  -9   8    1.54    0.38
  -4  -9   8    1.62    0.31
  -4  -9   8    1.91    0.34
   4  -9  -8    1.58    0.31
  -4   9   8    1.22    0.27
  -4   9   8    1.76    0.37
   3  -9  -8   68.65    2.26
  -3  -9   8   67.14    2.25
  -3  -9   8   66.97    2.26
  -3  -9   8   68.17    2.27
  -3   9   8   64.98    2.26
  -3   9   8   65.78    2.25
  -2  -9   8    2.50    0.29
  -2  -9   8    1.46    0.28
  -2  -9   8    2.16    0.37
  -2   9   8    2.18    0.41
  -2   9   8    2.30    0.44
  -2   9   8    1.97    0.29
  -1  -9   8   24.92    0.92
  -1  -9   8   24.72    0.94
  -1  -9   8   25.59    0.94
  -1   9   8   25.73    0.93
  -1   9   8   23.19    0.95
  -1   9   8   24.49    0.93
   0  -9   8    3.76    0.37
   0  -9   8    4.29    0.33
   0  -9   8    3.62    0.35
   0   9   8    3.81    0.32
   0   9   8    3.77    0.32
   0   9   8    3.65    0.42
   1  -9   8   14.54    0.67
   1  -9   8   15.77    0.67
  -1  -9  -8   14.83    0.64
   1   9   8   16.84    0.72
   1   9   8   14.97    0.63
   1   9   8   15.91    0.67
   2  -9   8    0.67    0.24
   2  -9   8    0.25    0.19
   2  -9   8    0.11    0.19
   2   9   8    0.06    0.19
   2   9   8    0.10    0.17
   3  -9   8    4.74    0.37
   3  -9   8    4.77    0.39
   3   9   8    4.81    0.39
   3   9   8    4.58    0.35
   4  -9   8    2.30    0.28
   4  -9   8    2.58    0.28
  -4  -9  -8    2.13    0.24
   4   9   8    2.37    0.28
   4   9   8    2.38    0.29
   5  -9   8    1.28    0.22
  -5  -9  -8    1.51    0.27
   5  -9   8    1.78    0.23
   5   9   8    1.41    0.22
   5   9   8    1.48    0.22
  -8  10   8    0.83    0.17
  -7 -10   8    0.53    0.14
  -7  10   8    1.02    0.20
  -7  10   8    0.93    0.19
  -6 -10   8    0.04    0.26
  -6  10   8    0.14    0.14
  -6  10   8    0.11    0.19
  -5 -10   8   10.08    0.49
  -5 -10   8    9.63    0.54
  -5  10   8   10.19    0.48
  -5  10   8   11.06    0.53
   4 -10  -8    6.87    0.41
  -4 -10   8    6.08    0.45
  -4 -10   8    6.28    0.42
  -4 -10   8    6.28    0.42
  -4  10   8    5.27    0.46
  -4  10   8    6.02    0.38
  -3 -10   8    0.84    0.24
  -3  10   8    0.84    0.27
  -3  10   8    0.38    0.15
  -2 -10   8    6.51    0.39
  -2 -10   8    7.00    0.39
  -2 -10   8    5.96    0.45
   2 -10  -8    6.19    0.36
  -2  10   8    5.84    0.39
  -2  10   8    6.53    0.50
  -1 -10   8    3.17    0.39
  -1 -10   8    2.93    0.29
   1 -10  -8    2.92    0.28
  -1  10   8    3.15    0.43
  -1  10   8    3.26    0.33
  -1  10   8    3.21    0.34
   0 -10   8    0.16    0.16
   0 -10  -8    0.28    0.15
   0 -10   8    0.43    0.23
   0 -10   8    0.61    0.16
   0  10   8    0.32    0.16
   0  10   8    0.23    0.16
   0  10   8    0.53    0.26
  -1 -10  -8    4.15    0.44
   1 -10   8    3.73    0.36
   1 -10   8    4.46    0.36
   1  10   8    4.11    0.35
   1  10   8    3.64    0.39
   2 -10   8   12.29    0.57
   2 -10   8   12.15    0.58
   2 -10   8   12.01    0.78
   2  10   8   11.71    0.55
   2  10   8   12.05    0.57
   3 -10   8    1.46    0.35
   3 -10   8    0.72    0.21
   3  10   8    0.51    0.17
   3  10   8    0.50    0.22
   4 -10   8   38.01    1.35
  -4 -10  -8   39.26    1.35
   4 -10   8   38.00    1.35
   4  10   8   39.01    1.35
   4  10   8   40.66    1.37
   5 -10   8    3.04    0.30
  -5 -10  -8    3.21    0.29
   5  10   8    2.64    0.27
   5  10   8    3.75    0.26
  -8  11   8    6.10    0.27
  -7 -11   8    0.31    0.16
  -7  11   8    0.14    0.11
  -6 -11   8    0.26    0.16
  -6  11   8    0.05    0.30
  -5 -11   8   11.40    0.53
  -5 -11   8   11.06    0.57
  -5  11   8   11.43    0.58
  -5  11   8   11.96    0.52
  -4 -11   8    0.21    0.21
  -4 -11   8    0.55    0.18
   4 -11  -8    0.51    0.17
  -4 -11   8    0.55    0.22
  -4  11   8    0.55    0.17
   3 -11  -8   32.39    1.15
  -3 -11   8   31.59    1.16
  -3 -11   8   32.52    1.18
  -3  11   8   31.92    1.16
   2 -11  -8    0.78    0.21
  -2 -11   8    0.53    0.27
  -2 -11   8    0.70    0.22
  -2 -11   8    0.62    0.27
  -2  11   8    0.65    0.19
   1 -11  -8   81.16    2.72
  -1 -11   8   81.37    2.72
  -1 -11   8   80.19    2.75
  -1 -11   8   82.12    2.74
  -1  11   8   83.19    2.73
   0 -11   8    0.17    0.15
   0 -11   8    0.38    0.27
   0 -11   8   -0.10    0.26
  -1 -11  -8   16.27    0.67
   1 -11   8   17.03    0.68
   1 -11   8   16.30    0.69
   1 -11   8   14.42    0.70
   1  11   8   15.55    0.73
   1  11   8   17.64    0.69
   2 -11   8    0.38    0.25
   2 -11   8    0.90    0.21
   2 -11   8    1.02    0.24
   2  11   8    0.70    0.24
   2  11   8    1.12    0.29
   3 -11   8    0.93    0.24
   3 -11   8    0.80    0.23
   3  11   8    1.00    0.24
   3  11   8    0.94    0.19
   4 -11   8    0.26    0.18
  -4 -11  -8    0.42    0.12
   4 -11   8    0.79    0.19
   4  11   8    0.64    0.19
   4  11   8    0.37    0.17
   5 -11   8    1.91    0.28
  -5 -11  -8    1.69    0.27
   5  11   8    1.84    0.27
  -7  12   8    0.27    0.11
  -6 -12   8   -0.18    0.18
  -6  12   8    0.17    0.13
  -5 -12   8    1.69    0.35
  -5 -12   8    2.09    0.34
  -5  12   8    1.91    0.27
  -4 -12   8    0.67    0.24
   4 -12  -8    0.75    0.17
  -4 -12   8    1.02    0.23
  -4 -12   8    1.02    0.20
  -4  12   8    0.81    0.17
  -3 -12   8    0.81    0.18
  -3 -12   8    0.43    0.17
   3 -12  -8    0.57    0.16
  -3  12   8    1.25    0.28
   2 -12  -8    1.14    0.24
  -2 -12   8    0.79    0.18
  -2 -12   8    0.49    0.16
  -2  12   8    0.80    0.20
   1 -12  -8   -0.05    0.13
  -1 -12   8   -0.11    0.16
  -1 -12   8    0.19    0.15
  -1  12   8    0.16    0.16
   0 -12   8    4.17    0.32
   0 -12  -8    3.64    0.32
   0 -12   8    3.36    0.32
   0  12   8    3.51    0.32
   1 -12   8    2.82    0.35
  -1 -12  -8    2.86    0.30
   1 -12   8    2.95    0.34
   1  12   8    3.88    0.33
   2 -12   8    1.86    0.43
   2 -12   8    1.78    0.35
   2  12   8    2.52    0.34
  -3 -12  -8    2.21    0.24
   3  12   8    1.49    0.29
  -4 -12  -8    1.35    0.21
   4  12   8    1.69    0.27
  -5 -12  -8    2.68    0.27
  -7  13   8   19.92    0.71
  -6  13   8   -0.09    0.11
  -5 -13   8    0.51    0.20
  -5  13   8    0.94    0.24
   4 -13  -8   15.83    0.65
  -4 -13   8   16.10    0.69
  -4 -13   8   14.99    0.65
  -4  13   8   15.51    0.64
  -3 -13   8   30.60    1.14
   3 -13  -8   31.42    1.13
  -3 -13   8   31.28    1.16
  -3  13   8   32.65    1.15
  -2 -13   8  111.84    3.65
  -2 -13   8  108.87    3.63
   2 -13  -8  108.09    3.63
  -2  13   8  111.35    3.63
  -1 -13   8    8.50    0.46
   1 -13  -8    8.69    0.43
  -1 -13   8    8.88    0.45
  -1  13   8    9.12    0.46
   0 -13   8   20.47    0.82
   0 -13  -8   20.85    0.80
   0 -13   8   20.84    0.81
   0  13   8   21.23    0.81
  -1 -13  -8    2.83    0.29
   1 -13   8    2.75    0.34
   1 -13   8    3.19    0.33
   1  13   8    2.45    0.31
   2 -13   8   11.10    0.58
   2 -13   8   10.65    0.55
  -2 -13  -8   10.35    0.67
   2  13   8   11.82    0.54
  -3 -13  -8    1.75    0.23
  -4 -13  -8    0.14    0.11
   4  13   8    0.18    0.18
  -7  14   8    2.63    0.19
  -6  14   8    3.45    0.24
  -5 -14   8    2.32    0.41
  -5  14   8    2.84    0.27
  -4 -14   8    0.34    0.20
  -4 -14   8    0.55    0.16
   4 -14  -8    0.68    0.18
  -4  14   8    0.41    0.16
  -3 -14   8   58.70    2.02
  -3 -14   8   58.93    2.00
   3 -14  -8   57.73    1.99
  -3  14   8   58.86    2.00
  -2 -14   8   10.84    0.49
   2 -14  -8   10.03    0.47
  -2 -14   8    9.64    0.51
  -2  14   8    9.98    0.50
  -1 -14   8    0.60    0.16
   1 -14  -8    0.89    0.22
  -1  14   8    0.61    0.19
   0 -14   8   12.08    0.53
   0 -14  -8   11.48    0.52
   0 -14   8   11.39    0.55
   0  14   8   11.93    0.54
  -1 -14  -8   10.33    0.49
   1 -14   8   10.62    0.52
   1 -14   8   10.25    0.51
   1  14   8   10.81    0.51
  -2 -14  -8    3.87    0.28
   2 -14   8    4.09    0.40
  -2 -14  -8    2.82    0.43
   2 -14   8    3.57    0.42
   2  14   8    3.85    0.35
  -3 -14  -8    2.15    0.22
   3  14   8    1.58    0.30
  -4 -14  -8    2.35    0.20
   4  14   8    2.25    0.48
  -6  15   8   -0.10    0.11
  -5 -15   8    0.83    0.18
  -4 -15   8    0.48    0.20
  -4 -15   8    0.19    0.15
   4 -15  -8   -0.15    0.15
  -4  15   8    0.35    0.16
  -3 -15   8   29.96    1.13
   3 -15  -8   30.19    1.10
  -3 -15   8   31.30    1.12
  -3  15   8   30.54    1.11
  -2 -15   8   -0.28    0.16
   2 -15  -8    0.02    0.12
  -2 -15   8   -0.23    0.13
  -2  15   8   -0.12    0.16
  -1 -15   8    3.97    0.32
   1 -15  -8    3.94    0.29
  -1 -15   8    3.44    0.33
   1 -15  -8    4.00    0.35
  -1  15   8    4.06    0.34
   0 -15  -8    3.36    0.28
   0 -15  -8    2.59    0.27
   0 -15   8    2.62    0.31
   0 -15   8    2.64    0.30
   0  15   8    3.06    0.32
  -1 -15  -8    1.28    0.23
   1 -15   8    1.81    0.30
   1 -15   8    2.10    0.31
  -1 -15  -8    1.95    0.30
   1  15   8    1.84    0.32
  -2 -15  -8    2.11    0.24
   2 -15   8    1.96    0.38
  -2 -15  -8    2.62    0.46
   2  15   8    2.71    0.33
  -3 -15  -8    0.35    0.12
   3  15   8    0.44    0.20
  -4 -15  -8   15.34    0.57
  -7  16   8    0.95    0.15
  -6  16   8    0.68    0.18
  -5 -16   8   30.11    1.06
  -5  16   8   28.98    1.05
   4 -16  -8   -0.13    0.15
  -4 -16   8   -0.02    0.14
  -4 -16   8    0.08    0.18
  -4  16   8   -0.12    0.15
  -3 -16   8   -0.03    0.14
   3 -16  -8    0.06    0.13
  -3 -16   8   -0.14    0.15
  -3  16   8   -0.14    0.16
  -2 -16   8   57.74    2.00
  -2 -16   8   56.86    1.98
   2 -16  -8   58.29    1.98
  -2  16   8   59.36    1.98
  -1 -16   8    0.19    0.15
  -1 -16   8   -0.19    0.14
   1 -16  -8    0.30    0.13
   1 -16  -8    0.46    0.19
  -1  16   8    0.38    0.18
   0 -16   8   13.91    0.58
   0 -16   8   13.26    0.60
   0 -16  -8   13.30    0.57
   0 -16  -8   13.57    0.57
   0  16   8   12.74    0.60
   1 -16   8    0.97    0.20
  -1 -16  -8    0.96    0.18
  -1 -16  -8    0.89    0.22
   1 -16   8    0.76    0.18
   1  16   8    0.88    0.21
   2 -16   8   -0.04    0.19
  -2 -16  -8   -0.02    0.11
   2  16   8    0.05    0.19
  -3 -16  -8    2.58    0.21
  -4 -16  -8    6.07    0.28
  -6  17   8    1.58    0.18
  -5 -17   8   12.88    0.53
  -5  17   8   12.42    0.52
   4 -17  -8    1.79    0.29
  -4 -17   8    1.41    0.24
  -4  17   8    1.91    0.27
   3 -17  -8    2.17    0.26
  -3 -17   8    2.68    0.26
  -3 -17   8    2.46    0.30
  -3  17   8    2.70    0.29
   2 -17  -8   20.18    0.76
  -2 -17   8   19.55    0.76
  -2 -17   8   18.93    0.79
  -2  17   8   19.11    0.76
  -1 -17   8   10.07    0.50
  -1 -17   8    9.94    0.48
   1 -17  -8   10.19    0.50
   1 -17  -8   10.86    0.48
  -1  17   8   10.69    0.50
   0 -17   8    0.54    0.16
   0 -17   8    0.70    0.17
   0 -17  -8    0.55    0.15
   0 -17  -8    0.40    0.14
   0  17   8    0.69    0.20
  -1 -17  -8   19.53    0.76
  -1 -17  -8   19.70    0.75
   1 -17   8   19.78    0.78
   1 -17   8   19.34    0.77
   1  17   8   20.17    0.78
   2 -17   8    9.83    0.50
  -2 -17  -8   10.04    0.44
   2  17   8    9.38    0.51
  -3 -17  -8   13.84    0.54
  -6  18   8    1.54    0.18
  -5 -18   8    0.74    0.14
  -5  18   8    0.88    0.19
   4 -18  -8    4.74    0.31
  -4 -18   8    4.24    0.34
  -4 -18   8    4.12    0.30
  -4  18   8    4.67    0.31
  -3 -18   8    1.23    0.24
   3 -18  -8    1.36    0.23
  -3 -18   8    0.92    0.17
  -3  18   8    1.15    0.27
  -2 -18   8   17.08    0.70
  -2 -18   8   17.33    0.71
   2 -18  -8   17.61    0.69
  -2  18   8   17.36    0.70
   1 -18  -8   27.70    1.06
   1 -18  -8   29.25    1.07
  -1 -18   8   29.86    1.08
  -1 -18   8   30.03    1.09
  -1  18   8   31.09    1.08
   0 -18   8    7.33    0.41
   0 -18   8    7.48    0.42
   0 -18  -8    7.49    0.40
   0 -18  -8    7.76    0.39
   0  18   8    7.49    0.45
   1 -18   8   -0.11    0.17
  -1 -18  -8    0.02    0.13
   1  18   8    0.27    0.23
  -2 -18  -8    0.19    0.10
   2 -18   8    0.10    0.18
  -3 -18  -8    2.50    0.19
  -4 -18  -8    0.26    0.09
  -6  19   8    0.03    0.11
  -5 -19   8    0.44    0.12
  -5  19   8    0.23    0.12
   4 -19  -8    1.73    0.24
  -4 -19   8    1.49    0.22
  -4 -19   8    1.71    0.28
  -4  19   8    1.85    0.24
   3 -19  -8    0.25    0.14
  -3 -19   8    0.51    0.17
  -3  19   8    0.71    0.17
  -2 -19   8   -0.11    0.14
   2 -19  -8   -0.28    0.11
  -2 -19   8    0.08    0.12
  -2  19   8   -0.21    0.17
   1 -19  -8    2.50    0.38
  -1 -19   8    2.37    0.26
  -1 -19   8    1.91    0.27
   1 -19  -8    2.04    0.24
  -1  19   8    2.01    0.33
   0 -19  -8    0.41    0.14
   0 -19   8    0.01    0.13
   0  19   8   -0.33    0.21
  -1 -19  -8    2.51    0.23
  -1 -19  -8    2.66    0.26
   1 -19   8    2.78    0.28
   1 -19   8    2.93    0.31
   2 -19   8    1.43    0.32
  -2 -19  -8    2.02    0.20
  -3 -19  -8    0.77    0.14
  -4 -19  -8    0.07    0.09
  -5 -20   8   10.50    0.43
  -5  20   8   10.73    0.43
  -4 -20   8    3.14    0.29
  -4 -20   8    3.24    0.24
   4 -20  -8    3.11    0.25
  -4  20   8    3.37    0.26
  -3 -20   8    6.04    0.35
  -3 -20   8    6.44    0.34
   3 -20  -8    6.23    0.33
  -3  20   8    6.13    0.36
  -2 -20   8    2.10    0.29
  -2 -20   8    2.30    0.27
   2 -20  -8    2.02    0.25
  -2  20   8    1.99    0.28
   1 -20  -8   32.07    1.32
  -1 -20   8   35.44    1.27
  -1  20   8   37.40    1.25
   0 -20   8    6.73    0.38
   0 -20  -8    6.86    0.35
   0 -20   8    7.61    0.38
   0 -20  -8    6.78    0.36
  -1 -20  -8   19.60    0.73
   1 -20   8   20.39    0.76
  -1 -20  -8   19.26    0.73
   1 -20   8   20.01    0.75
  -2 -20  -8    7.18    0.32
  -3 -20  -8   22.43    0.78
  -5 -21   8   11.69    0.44
  -5  21   8   11.09    0.45
  -4 -21   8   11.53    0.45
  -4 -21   8   10.88    0.48
   4 -21  -8   10.79    0.45
  -4  21   8   11.06    0.46
   3 -21  -8    3.95    0.25
  -3 -21   8    4.12    0.27
  -3 -21   8    4.18    0.29
  -3  21   8    4.04    0.31
  -2 -21   8    0.12    0.12
  -2 -21   8    0.24    0.11
   2 -21  -8    0.24    0.11
  -2  21   8    0.05    0.19
  -1 -21   8    3.43    0.26
   1 -21  -8    3.00    0.23
  -1 -21   8    3.01    0.26
   0 -21  -8   10.34    0.46
   0 -21   8   11.07    0.47
   0 -21  -8   10.35    0.45
   0 -21   8   11.46    0.48
  -1 -21  -8    1.45    0.21
   1 -21   8    1.90    0.40
  -1 -21  -8    1.55    0.18
   1 -21   8    1.52    0.23
  -2 -21  -8    1.95    0.17
  -3 -21  -8    0.18    0.08
  -5 -22   8    0.19    0.11
  -4 -22   8   14.53    0.53
  -4 -22   8   13.76    0.55
   4 -22  -8   13.51    0.53
  -4  22   8   13.68    0.56
  -3 -22   8    4.42    0.27
   3 -22  -8    4.27    0.25
  -3 -22   8    4.44    0.25
  -2 -22   8   -0.07    0.10
  -2 -22   8   -0.10    0.10
   2 -22  -8    0.12    0.10
   1 -22  -8    3.40    0.23
  -1 -22   8    3.57    0.25
  -1 -22   8    3.84    0.26
   0 -22   8    3.81    0.27
   0 -22  -8    3.28    0.26
   0 -22  -8    3.65    0.23
   0 -22   8    3.79    0.25
  -1 -22  -8    7.63    0.36
  -1 -22  -8    7.67    0.34
   1 -22   8    8.13    0.37
  -2 -22  -8    1.67    0.15
   4 -23  -8    0.55    0.15
  -3 -23   8    5.09    0.28
  -3 -23   8    4.89    0.26
   3 -23  -8    5.31    0.26
  -2 -23   8    3.28    0.22
  -2 -23   8    3.28    0.23
   2 -23  -8    3.32    0.21
  -1 -23   8    0.68    0.17
   1 -23  -8    0.63    0.16
  -1 -23   8    0.82    0.18
   0 -23   8    9.66    0.42
   0 -23   8    9.66    0.42
   0 -23  -8   10.57    0.56
   0 -23  -8    9.70    0.40
  -1 -23  -8   -0.10    0.12
   1 -23   8    0.09    0.14
  -2 -23  -8    3.84    0.20
  -4 -24   8    0.23    0.09
  -3 -24   8    0.02    0.08
  -3 -24   8    0.29    0.11
   3 -24  -8    0.13    0.12
  -2 -24   8   23.09    0.83
  -2 -24   8   23.66    0.83
   2 -24  -8   24.02    0.83
  -1 -24   8   10.06    0.41
  -1 -24   8    9.74    0.41
   1 -24  -8    9.97    0.40
   0 -24  -8   12.18    0.46
   0 -24   8   12.11    0.47
   0 -24   8   12.21    0.50
  -1 -24  -8    7.75    0.38
   1 -24   8    8.32    0.36
  -1 -24  -8    8.28    0.35
  -3 -25   8    0.05    0.08
  -3 -25   8    0.02    0.11
   3 -25  -8   -0.10    0.10
  -2 -25   8    0.31    0.10
  -2 -25   8    0.15    0.10
   2 -25  -8    0.28    0.14
  -1 -25   8    0.87    0.16
   1 -25  -8    0.73    0.19
  -1 -25   8    1.09    0.19
   0 -25   8    0.11    0.10
   0 -25  -8    0.09    0.09
  -2 -26   8    0.14    0.09
   2 -26  -8    0.12    0.08
  -2 -26   8    0.22    0.10
   1 -26  -8    0.94    0.14
  -1 -26   8    0.97    0.15
   0 -26   8    0.29    0.10
  -8   0   9   -0.02    0.09
  -7   0   9    0.22    0.12
  -6   0   9   -0.01    0.22
  -6   0   9    0.11    0.14
  -5   0   9    0.00    0.14
  -5   0   9    0.03    0.21
  -4   0   9   -0.24    0.19
  -4   0   9    0.50    0.23
  -4   0   9    0.08    0.15
  -3   0   9    0.09    0.17
  -3   0   9    0.05    0.15
  -3   0   9    0.34    0.23
  -3   0   9    0.34    0.22
  -2   0   9   -0.06    0.18
  -2   0   9    0.03    0.18
  -2   0   9    0.04    0.16
  -2   0   9   -0.18    0.15
  -1   0   9   -0.15    0.16
  -1   0   9    0.10    0.16
  -1   0   9    0.02    0.15
  -1   0   9    0.01    0.19
   0   0   9    0.01    0.18
   0   0   9    0.02    0.18
   0   0   9   -0.07    0.15
   0   0   9    0.18    0.13
   1   0   9   -0.14    0.20
   1   0   9    0.24    0.17
   1   0   9   -0.22    0.21
   1   0   9   -0.08    0.20
   2   0   9   -0.03    0.16
   2   0   9    0.21    0.15
   2   0   9   -0.10    0.13
   3   0   9    0.11    0.16
   3   0   9    0.21    0.16
   3   0   9   -0.07    0.16
   4   0   9   -0.05    0.22
   4   0   9   -0.05    0.15
   5   0   9    0.05    0.11
   5   0   9    0.03    0.10
  -8  -1   9    1.11    0.15
  -8   1   9    0.95    0.15
  -7  -1   9    3.69    0.26
  -7   1   9    2.56    0.37
  -7   1   9    3.64    0.26
  -6  -1   9    6.05    0.36
  -6   1   9    6.66    0.36
  -6   1   9    6.20    0.42
  -5  -1   9   28.99    1.05
  -5  -1   9   28.21    1.09
  -5   1   9   28.55    1.06
  -5   1   9   30.13    1.06
  -4  -1   9    7.80    0.49
  -4  -1   9    9.07    0.43
  -4  -1   9    8.85    0.54
  -4   1   9    9.17    0.43
  -4   1   9    7.81    0.58
  -4   1   9    8.62    0.48
  -3  -1   9    6.83    0.47
  -3  -1   9    5.90    0.41
  -3  -1   9    6.85    0.39
  -3  -1   9    5.67    0.48
  -3   1   9    5.85    0.52
  -3   1   9    6.75    0.41
  -3   1   9    7.00    0.38
  -3   1   9    6.61    0.45
  -2  -1   9    0.58    0.23
  -2  -1   9    1.32    0.29
  -2  -1   9    1.04    0.21
  -2  -1   9    1.29    0.27
  -2   1   9    0.96    0.20
  -2   1   9    1.35    0.27
  -2   1   9    1.33    0.23
  -2   1   9    1.08    0.22
  -1  -1   9    8.41    0.45
  -1  -1   9    8.21    0.43
  -1  -1   9    8.72    0.44
  -1  -1   9    8.43    0.46
  -1   1   9    8.34    0.44
  -1   1   9    7.73    0.42
  -1   1   9    8.83    0.45
  -1   1   9    8.15    0.46
   0  -1   9   11.59    0.55
   0  -1   9   10.59    0.51
   0  -1   9   11.53    0.53
   0  -1   9   11.06    0.51
   0   1   9   12.07    0.54
   0   1   9   11.68    0.54
   0   1   9   11.25    0.51
   0   1   9   11.47    0.51
   1  -1   9   31.58    1.35
   1  -1   9   34.59    1.20
   1  -1   9   33.89    1.22
   1   1   9   38.41    1.26
   1   1   9   33.00    1.21
   1   1   9   27.79    1.34
   2  -1   9   70.93    2.44
   2  -1   9   74.33    2.44
   2  -1   9   70.53    2.44
   2   1   9   73.81    2.44
   2   1   9   72.19    2.44
   2   1   9   72.07    2.44
   3  -1   9    4.96    0.33
   3  -1   9    4.68    0.34
   3  -1   9    4.74    0.36
   3   1   9    5.34    0.34
   3   1   9    4.78    0.35
   3   1   9    4.79    0.34
   4  -1   9    0.00    0.13
   4  -1   9   -0.08    0.14
   4   1   9   -0.08    0.13
   4   1   9   -0.02    0.15
   5  -1   9    0.07    0.10
   5  -1   9    0.00    0.11
   5   1   9    0.21    0.11
   5   1   9    0.06    0.10
  -8  -2   9    2.23    0.17
  -8   2   9    2.40    0.18
  -7  -2   9    1.75    0.22
  -7   2   9    1.57    0.22
  -7   2   9    1.71    0.30
  -6  -2   9    2.36    0.26
  -6   2   9    2.37    0.26
  -6   2   9    2.35    0.35
  -5  -2   9   13.66    0.58
  -5   2   9   13.11    0.57
  -5   2   9   13.86    0.61
  -4  -2   9    3.12    0.29
  -4  -2   9    2.57    0.39
  -4   2   9    2.83    0.45
  -4   2   9    3.31    0.30
  -3  -2   9    8.90    0.72
  -3  -2   9   11.25    0.56
  -3  -2   9   12.14    0.55
  -3  -2   9   11.57    0.52
  -3   2   9   12.17    0.56
  -3   2   9   12.33    0.54
  -3   2   9   12.04    0.53
  -3   2   9   11.51    0.61
  -2  -2   9    0.51    0.18
  -2  -2   9    0.37    0.25
  -2  -2   9    0.27    0.17
  -2  -2   9    0.24    0.17
  -2   2   9    0.18    0.17
  -2   2   9    0.44    0.19
  -2   2   9    0.19    0.18
  -2   2   9    0.89    0.19
  -1  -2   9    4.28    0.41
  -1  -2   9    3.86    0.32
  -1  -2   9    4.03    0.34
  -1  -2   9    3.99    0.35
  -1   2   9    4.36    0.35
  -1   2   9    3.89    0.32
  -1   2   9    4.47    0.33
  -1   2   9    5.19    0.34
   0  -2   9    3.56    0.34
   0  -2   9    3.56    0.31
   0  -2   9    3.93    0.38
   0  -2   9    3.53    0.30
   0   2   9    3.57    0.30
   0   2   9    3.61    0.33
   0   2   9    3.91    0.31
   0   2   9    3.10    0.33
   1  -2   9   55.02    1.91
   1  -2   9   55.69    1.90
   2  -2   9    6.30    0.40
   2  -2   9    6.44    0.39
   2  -2   9    6.35    0.38
   2   2   9    6.59    0.39
   2   2   9    6.94    0.39
   2   2   9    6.89    0.39
   3  -2   9   24.22    0.93
   3  -2   9   24.46    0.92
   3  -2   9   24.75    0.92
   3   2   9   24.55    0.93
   3   2   9   24.32    0.92
   3   2   9   24.27    0.92
   4  -2   9    1.71    0.24
   4  -2   9    1.73    0.24
   4   2   9    1.26    0.23
   4   2   9    1.87    0.25
   5  -2   9    4.14    0.24
   5  -2   9    3.95    0.25
   5   2   9    3.90    0.25
   5   2   9    4.15    0.24
  -8  -3   9    2.35    0.18
  -8   3   9    2.30    0.18
  -7  -3   9    2.02    0.23
  -7   3   9    2.42    0.28
  -7   3   9    2.02    0.23
  -6  -3   9   -0.15    0.15
  -6   3   9    0.06    0.18
  -6   3   9   -0.19    0.14
  -5  -3   9   30.79    1.10
  -5   3   9   30.95    1.10
  -5   3   9   29.76    1.11
  -4  -3   9   31.18    1.10
  -4   3   9   29.67    1.09
  -4   3   9   30.25    1.10
  -3  -3   9    1.85    0.29
  -3  -3   9    2.52    0.32
  -3  -3   9    1.75    0.36
  -3   3   9    2.48    0.34
  -3   3   9    2.34    0.29
  -3   3   9    1.47    0.29
  -2  -3   9    0.68    0.18
  -2  -3   9    0.13    0.16
  -2  -3   9    0.27    0.17
  -2   3   9    0.57    0.19
  -2   3   9   -0.04    0.15
  -2   3   9    0.38    0.18
  -2   3   9    0.19    0.19
  -1  -3   9    1.75    0.28
  -1  -3   9    1.60    0.26
  -1  -3   9    1.53    0.29
  -1  -3   9    1.32    0.28
  -1   3   9    1.27    0.29
  -1   3   9    1.20    0.26
  -1   3   9    1.28    0.27
  -1   3   9    1.69    0.30
   0  -3   9    0.54    0.19
   0  -3   9    0.88    0.17
   0  -3   9    1.42    0.35
   0  -3   9    1.17    0.25
   0   3   9    0.72    0.16
   0   3   9    0.68    0.17
   0   3   9    0.37    0.15
   0   3   9    1.54    0.26
   1  -3   9   11.00    0.63
   1  -3   9   11.27    0.56
   1  -3   9   12.27    0.56
   1  -3   9   10.48    0.60
   1   3   9   11.54    0.55
   1   3   9   12.04    0.52
   2  -3   9   15.39    0.64
   2  -3   9   14.68    0.66
   2  -3   9   15.62    0.65
   2   3   9   16.03    0.66
   2   3   9   16.24    0.65
   2   3   9   15.41    0.65
   3  -3   9   39.59    1.40
   3  -3   9   37.64    1.39
   3  -3   9   40.55    1.40
   3   3   9   39.95    1.41
   3   3   9   39.96    1.40
   4  -3   9    0.03    0.13
   4  -3   9    0.09    0.14
   4   3   9    0.18    0.14
   4   3   9   -0.02    0.13
   5  -3   9    3.61    0.23
   5  -3   9    3.63    0.24
   5   3   9    3.33    0.23
   5   3   9    4.10    0.24
  -8  -4   9    1.50    0.16
  -7  -4   9    8.19    0.38
  -7   4   9    8.01    0.38
  -7   4   9    8.11    0.40
  -6  -4   9   10.01    0.47
  -6   4   9   10.02    0.49
  -6   4   9   10.23    0.47
  -5  -4   9    8.58    0.44
  -5   4   9    8.47    0.46
  -5   4   9    8.25    0.44
  -4  -4   9    5.93    0.35
  -4  -4   9    4.92    0.47
  -4  -4   9    5.48    0.43
  -4   4   9    5.22    0.35
  -4   4   9    5.01    0.36
  -3  -4   9    3.20    0.33
  -3  -4   9    2.35    0.34
  -3  -4   9    2.33    0.30
  -3   4   9    2.32    0.32
  -3   4   9    2.94    0.32
  -2  -4   9    9.57    0.48
  -2  -4   9   10.18    0.49
  -2  -4   9   10.31    0.49
  -2   4   9   10.09    0.49
  -2   4   9    9.28    0.50
  -2   4   9   10.23    0.49
  -1  -4   9   34.20    1.22
  -1  -4   9   33.63    1.23
  -1  -4   9   34.33    1.22
  -1   4   9   35.42    1.24
  -1   4   9   34.45    1.22
  -1   4   9   34.95    1.23
  -1   4   9   33.68    1.22
   0  -4   9   16.03    0.65
   0  -4   9   15.63    0.67
   0  -4   9   14.92    0.68
   0  -4   9   15.76    0.65
   0   4   9   15.52    0.65
   0   4   9   15.75    0.65
   0   4   9   16.25    0.65
   1  -4   9   20.79    0.79
   1  -4   9   19.62    0.87
   1  -4   9   20.48    0.78
   1  -4   9   19.34    0.80
   1   4   9   19.91    0.79
   1   4   9   18.61    0.78
   1   4   9   20.27    0.78
   2  -4   9    1.49    0.27
   2  -4   9    1.76    0.30
   2  -4   9    1.80    0.27
   2   4   9    1.08    0.26
   2   4   9    1.03    0.26
   2   4   9    1.20    0.26
   3  -4   9   12.94    0.59
   3  -4   9   13.37    0.59
   3  -4   9   12.72    0.57
   3   4   9   13.22    0.58
   3   4   9   13.73    0.58
   4  -4   9   15.27    0.62
   4  -4   9   15.57    0.63
   4   4   9   15.64    0.62
   4   4   9   15.57    0.64
   5  -4   9    1.53    0.19
   5  -4   9    1.98    0.19
   5   4   9    1.79    0.19
   5   4   9    1.73    0.18
  -8   5   9   10.43    0.39
  -8   5   9    9.05    0.44
  -7  -5   9    0.54    0.14
  -7   5   9    0.70    0.15
  -7   5   9    0.93    0.20
  -6  -5   9   20.04    0.76
  -6   5   9   19.79    0.77
  -6   5   9   19.45    0.76
  -5  -5   9    1.05    0.26
  -5   5   9    1.03    0.19
  -5   5   9    1.24    0.28
  -4  -5   9  206.18    6.68
  -4  -5   9  204.74    6.66
  -4   5   9  206.80    6.66
  -4   5   9  204.11    6.67
  -3  -5   9   38.95    1.37
  -3  -5   9   39.41    1.39
  -3  -5   9   39.45    1.38
  -3   5   9   39.43    1.37
  -3   5   9   37.91    1.36
  -2  -5   9    0.07    0.15
  -2  -5   9    0.47    0.18
  -2  -5   9   -0.04    0.14
  -2   5   9    0.08    0.17
  -2   5   9    0.49    0.21
  -2   5   9    0.15    0.19
  -1  -5   9   13.17    0.59
  -1  -5   9   13.51    0.58
  -1  -5   9   13.01    0.57
  -1   5   9   13.38    0.58
  -1   5   9   13.91    0.58
   0  -5   9    0.09    0.16
   0  -5   9    0.61    0.17
   0  -5   9    0.21    0.24
   0  -5   9    0.45    0.16
   0   5   9    0.38    0.18
   0   5   9    0.41    0.14
   0   5   9    0.31    0.15
   1  -5   9   44.37    1.58
   1  -5   9   44.49    1.58
   1   5   9   45.84    1.58
   1   5   9   47.26    1.59
   1   5   9   45.18    1.58
   2  -5   9   36.44    1.29
   2  -5   9   35.64    1.29
   2  -5   9   34.99    1.29
   2   5   9   36.14    1.30
   2   5   9   37.00    1.29
   2   5   9   36.39    1.29
   3  -5   9   17.66    0.73
   3  -5   9   17.77    0.72
   3  -5   9   18.18    0.74
   3   5   9   19.03    0.73
   3   5   9   17.92    0.73
   4  -5   9   20.41    0.78
   4  -5   9   20.63    0.77
   4   5   9   21.06    0.77
   4   5   9   19.41    0.77
   5  -5   9    4.13    0.25
   5  -5   9    3.76    0.24
   5   5   9    4.21    0.25
   5   5   9    4.37    0.24
  -8  -6   9    3.17    0.20
  -8   6   9    2.83    0.23
  -8   6   9    2.55    0.27
  -7  -6   9    5.89    0.31
  -7   6   9    5.68    0.31
  -7   6   9    5.89    0.32
  -6  -6   9    5.95    0.35
  -6   6   9    5.76    0.37
  -6   6   9    6.19    0.36
  -5  -6   9   20.35    0.77
  -5   6   9   19.52    0.77
  -5   6   9   19.14    0.76
  -4  -6   9   46.98    1.66
  -4  -6   9   49.21    1.64
  -4  -6   9   47.54    1.67
  -4   6   9   45.92    1.64
  -4   6   9   48.78    1.64
  -3  -6   9    0.19    0.17
  -3  -6   9    0.15    0.18
  -3  -6   9    0.06    0.17
  -3   6   9   -0.03    0.18
  -3   6   9    0.30    0.20
  -2  -6   9    1.21    0.20
  -2  -6   9    0.85    0.18
  -2  -6   9    1.23    0.22
  -2   6   9    1.58    0.30
  -2   6   9    1.22    0.19
  -2   6   9    0.74    0.21
  -1  -6   9    4.99    0.37
  -1  -6   9    5.13    0.34
  -1  -6   9    5.31    0.36
  -1   6   9    5.34    0.35
  -1   6   9    4.69    0.36
  -1   6   9    4.97    0.35
   0  -6   9   30.65    1.07
   0  -6   9   28.86    1.08
   0  -6   9   28.71    1.07
   0   6   9   29.15    1.07
   0   6   9   29.88    1.07
   0   6   9   29.33    1.07
   1  -6   9    2.35    0.36
   1  -6   9    2.82    0.30
   1  -6   9    2.82    0.40
   1  -6   9    2.25    0.30
   1   6   9    2.67    0.30
   1   6   9    2.15    0.26
   1   6   9    2.89    0.29
   2  -6   9    4.31    0.34
   2  -6   9    4.10    0.35
   2  -6   9    3.98    0.36
   2   6   9    4.12    0.32
   2   6   9    4.66    0.34
   2   6   9    4.81    0.35
   3  -6   9    1.96    0.32
   3  -6   9    1.37    0.29
   3  -6   9    0.75    0.17
   3   6   9    1.32    0.26
   3   6   9    1.34    0.26
   4  -6   9    0.17    0.14
   4  -6   9    0.45    0.14
   4   6   9    0.23    0.14
   4   6   9    0.14    0.14
   5  -6   9    0.67    0.13
   5  -6   9    0.71    0.17
   5   6   9    0.78    0.17
   5   6   9    0.68    0.18
  -8  -7   9    0.14    0.11
  -8   7   9    0.33    0.16
  -8   7   9    0.07    0.14
  -7  -7   9   -0.09    0.12
  -7   7   9    0.12    0.13
  -7   7   9   -0.16    0.12
  -6  -7   9   15.03    0.60
  -6   7   9   14.84    0.60
  -6   7   9   14.81    0.61
  -5  -7   9   -0.05    0.15
  -5   7   9   -0.07    0.17
  -5   7   9    0.08    0.15
  -4  -7   9   33.83    1.20
   4  -7  -9   32.94    1.18
  -4  -7   9   30.69    1.24
  -4  -7   9   33.18    1.17
  -4   7   9   32.06    1.17
  -4   7   9   33.16    1.18
  -3  -7   9    2.89    0.39
  -3   7   9    3.56    0.31
  -3   7   9    3.69    0.34
  -2  -7   9   63.79    2.20
  -2  -7   9   66.59    2.21
  -2  -7   9   64.83    2.22
  -2   7   9   65.73    2.22
  -2   7   9   64.71    2.20
  -2   7   9   66.89    2.21
  -1  -7   9   19.23    0.76
  -1  -7   9   19.30    0.75
  -1  -7   9   18.96    0.75
  -1   7   9   18.44    0.75
  -1   7   9   18.56    0.75
  -1   7   9   19.48    0.76
   0  -7   9   -0.02    0.17
   0  -7   9    0.12    0.17
   0   7   9    0.09    0.19
   0   7   9    0.28    0.18
   1  -7   9   17.46    0.79
   1  -7   9   18.84    0.75
   1  -7   9   18.26    0.77
   1  -7   9   18.62    0.75
   1   7   9   19.02    0.76
   1   7   9   19.81    0.75
   1   7   9   19.57    0.75
   2  -7   9    3.39    0.32
   2  -7   9    3.06    0.32
   2  -7   9    2.88    0.36
   2   7   9    3.18    0.30
   2   7   9    3.20    0.32
   3  -7   9    0.89    0.20
   3  -7   9    0.35    0.16
   3  -7   9    1.60    0.34
   3   7   9    0.43    0.16
   3   7   9    0.47    0.18
   4  -7   9    3.62    0.28
   4  -7   9    2.60    0.27
  -4  -7  -9    2.98    0.25
   4   7   9    3.24    0.27
   4   7   9    3.49    0.27
   5  -7   9    1.91    0.20
   5  -7   9    1.47    0.22
   5   7   9    1.89    0.20
  -8  -8   9   14.11    0.52
  -8   8   9   14.14    0.53
  -7  -8   9   13.70    0.53
  -7   8   9   13.40    0.54
  -7   8   9   13.83    0.54
  -6   8   9   43.15    1.53
  -5  -8   9   12.97    0.56
  -5   8   9   12.96    0.59
  -5   8   9   14.03    0.58
  -4  -8   9   28.87    1.10
   4  -8  -9   30.10    1.07
  -4  -8   9   28.41    1.07
  -4  -8   9   29.45    1.06
  -4   8   9   28.90    1.07
  -4   8   9   29.54    1.07
  -3  -8   9   10.87    0.51
  -3  -8   9    9.66    0.50
  -3  -8   9    9.91    0.49
  -3   8   9    9.55    0.49
  -2  -8   9    0.35    0.16
  -2  -8   9    0.47    0.19
  -2   8   9    0.40    0.22
  -2   8   9    0.15    0.20
  -1  -8   9   15.96    0.76
  -1  -8   9   18.34    0.71
  -1   8   9   17.69    0.71
  -1   8   9   17.11    0.71
  -1   8   9   17.41    0.70
   0  -8   9    0.24    0.15
   0  -8   9   -0.04    0.14
   0   8   9    0.10    0.14
   0   8   9    0.29    0.16
   0   8   9    0.19    0.21
   1  -8   9   35.18    1.26
   1  -8   9   34.73    1.27
  -1  -8  -9   34.66    1.25
   1  -8   9   33.94    1.25
   1   8   9   36.37    1.27
   1   8   9   35.56    1.26
   1   8   9   35.77    1.26
   2  -8   9   38.82    1.36
   2  -8   9   36.85    1.37
   2  -8   9   38.70    1.36
   2   8   9   38.88    1.36
   2   8   9   39.32    1.38
   3  -8   9    1.54    0.32
   3  -8   9    2.21    0.28
   3   8   9    1.85    0.26
   3   8   9    2.67    0.31
  -4  -8  -9    5.31    0.30
   4  -8   9    5.40    0.31
   4  -8   9    5.16    0.32
   4   8   9    5.09    0.31
   4   8   9    5.32    0.32
   5  -8   9    5.23    0.30
   5  -8   9    5.66    0.29
   5   8   9    5.47    0.28
   5   8   9    5.40    0.28
  -8   9   9    0.90    0.20
  -7  -9   9    6.21    0.32
  -7   9   9    6.22    0.34
  -7   9   9    6.35    0.31
  -6  -9   9    6.13    0.34
  -6   9   9    5.95    0.37
  -6   9   9    6.03    0.38
   5  -9  -9   19.02    0.87
  -5  -9   9   21.61    0.86
  -5  -9   9   22.66    0.82
  -5   9   9   21.33    0.83
  -5   9   9   22.78    0.83
  -4  -9   9   13.18    0.58
  -4  -9   9   12.60    0.59
  -4  -9   9   13.27    0.61
   4  -9  -9   12.41    0.57
  -4   9   9   12.57    0.60
  -4   9   9   13.43    0.57
  -3  -9   9   57.86    1.94
  -3  -9   9   55.42    1.92
  -3  -9   9   56.40    1.91
   3  -9  -9   56.11    1.91
  -3   9   9   54.37    1.91
  -3   9   9   56.20    1.92
  -2  -9   9   14.61    0.61
  -2  -9   9   13.66    0.73
  -2  -9   9   14.82    0.63
  -2   9   9   15.24    0.62
  -2   9   9   14.10    0.66
  -2   9   9   14.10    0.64
  -1  -9   9    5.25    0.35
  -1  -9   9    5.06    0.34
  -1  -9   9    4.45    0.36
  -1   9   9    3.91    0.34
  -1   9   9    5.01    0.40
  -1   9   9    4.55    0.33
   0  -9   9   24.12    0.94
   0  -9   9   24.95    0.94
   0  -9   9   26.13    0.96
   0  -9  -9   24.86    0.92
   0   9   9   24.79    0.94
   0   9   9   24.42    0.93
  -1  -9  -9    8.14    0.44
   1  -9   9    7.93    0.45
   1  -9   9    8.64    0.46
   1  -9   9    8.32    0.46
   1   9   9    8.21    0.45
   1   9   9    8.00    0.44
   2  -9   9   16.00    0.67
   2  -9   9   15.87    0.67
   2  -9   9   15.69    0.71
   2   9   9   16.64    0.68
   2   9   9   16.34    0.68
   3  -9   9    0.38    0.20
   3   9   9    0.30    0.19
   3   9   9    0.68    0.16
   4  -9   9    0.24    0.15
   4  -9   9    0.58    0.17
  -4  -9  -9    0.48    0.12
   4   9   9    0.59    0.15
   4   9   9    0.45    0.15
   5  -9   9    3.16    0.29
   5   9   9    3.13    0.27
   5   9   9    3.41    0.24
  -7 -10   9    2.19    0.24
  -7  10   9    2.18    0.20
  -6 -10   9    0.29    0.16
  -6  10   9    0.49    0.19
  -6  10   9    0.51    0.14
  -5 -10   9    8.46    0.45
  -5 -10   9    8.54    0.50
   5 -10  -9    8.23    0.49
  -5  10   9    8.64    0.47
  -5  10   9    8.81    0.44
  -4 -10   9   41.11    1.45
  -4 -10   9   41.48    1.43
  -4 -10   9   40.01    1.41
   4 -10  -9   41.84    1.42
  -4  10   9   39.18    1.42
  -4  10   9   38.73    1.42
  -3 -10   9    9.70    0.51
  -3 -10   9   10.18    0.51
   3 -10  -9   10.24    0.48
  -3 -10   9   10.47    0.49
  -3  10   9    9.97    0.55
  -3  10   9    9.51    0.48
   2 -10  -9   10.40    0.48
  -2 -10   9   11.03    0.51
  -2 -10   9    9.93    0.52
  -2 -10   9    9.75    0.48
  -2  10   9    9.55    0.59
  -2  10   9   11.11    0.51
  -1 -10   9   54.10    1.93
  -1 -10   9   56.08    1.93
  -1 -10   9   57.52    1.95
   1 -10  -9   58.09    1.93
  -1  10   9   56.34    1.93
  -1  10   9   54.89    1.93
  -1  10   9   58.71    1.94
   0 -10  -9    1.92    0.26
   0 -10   9    1.98    0.30
   0 -10   9    1.72    0.27
   0 -10   9    1.55    0.35
   0  10   9    1.77    0.27
   0  10   9    1.57    0.37
   1 -10   9   21.97    0.82
   1 -10   9   20.55    0.83
   1 -10   9   20.71    0.82
  -1 -10  -9   20.36    0.81
   1  10   9   19.85    0.81
   1  10   9   21.47    0.82
   2 -10   9    3.39    0.35
   2 -10   9    2.55    0.33
   2  10   9    3.07    0.35
   2  10   9    3.15    0.32
   3 -10   9    8.18    0.43
   3 -10   9    7.91    0.45
   3  10   9    8.04    0.43
   4 -10   9    0.58    0.17
  -4 -10  -9    0.51    0.12
   4 -10   9    0.40    0.18
   4  10   9    0.67    0.17
   4  10   9    0.84    0.22
   5  10   9    2.68    0.26
  -7 -11   9   -0.01    0.17
  -7  11   9    0.02    0.11
  -6 -11   9    2.59    0.29
  -6  11   9    3.82    0.26
  -5 -11   9   24.34    0.89
   5 -11  -9   23.40    0.93
  -5 -11   9   24.19    0.91
  -5  11   9   23.26    0.91
  -5  11   9   24.61    0.90
  -4 -11   9    3.84    0.37
   4 -11  -9    3.24    0.32
  -4 -11   9    3.02    0.36
  -4 -11   9    3.49    0.33
  -4  11   9    3.25    0.43
  -4  11   9    3.17    0.31
  -3 -11   9   17.69    0.72
  -3 -11   9   18.50    0.74
  -3 -11   9   17.15    0.74
   3 -11  -9   17.90    0.71
  -3  11   9   17.38    0.71
  -2 -11   9   26.65    0.98
   2 -11  -9   25.79    0.96
  -2 -11   9   24.06    0.97
  -2 -11   9   26.66    0.97
  -2  11   9   25.91    0.97
   1 -11  -9   24.62    0.90
  -1 -11   9   24.04    0.91
  -1 -11   9   24.35    0.93
  -1 -11   9   22.57    0.92
  -1  11   9   24.55    0.92
   0 -11   9    8.77    0.45
   0 -11   9    8.30    0.44
   0 -11  -9    8.87    0.43
   0 -11   9    7.51    0.49
   0  11   9    7.55    0.52
   0  11   9    8.31    0.44
   1 -11   9   44.04    1.53
  -1 -11  -9   42.66    1.52
   1 -11   9   43.59    1.54
   1 -11   9   44.92    1.53
   1  11   9   43.22    1.53
   1  11   9   43.99    1.54
   2 -11   9    2.14    0.31
   2 -11   9    2.50    0.34
   2  11   9    2.34    0.36
   2  11   9    2.10    0.29
   3 -11   9    0.90    0.21
  -3 -11  -9    0.45    0.13
   3  11   9    0.69    0.20
   3  11   9    0.58    0.16
  -4 -11  -9    5.43    0.29
   4  11   9    5.74    0.32
   4  11   9    4.80    0.38
  -7  12   9   33.85    1.15
  -6 -12   9   15.83    0.65
  -6  12   9   17.37    0.64
   5 -12  -9   15.26    0.66
  -5 -12   9   13.38    0.75
  -5 -12   9   15.59    0.69
  -5  12   9   16.62    0.63
   4 -12  -9    0.13    0.15
  -4 -12   9    0.25    0.19
  -4 -12   9    0.11    0.17
  -4 -12   9    0.26    0.23
  -4  12   9    0.16    0.16
  -3 -12   9   25.58    0.99
  -3 -12   9   25.96    1.00
   3 -12  -9   26.12    0.96
  -3 -12   9   26.21    0.98
  -3  12   9   26.49    0.97
   2 -12  -9  133.38    4.38
  -2 -12   9  134.22    4.41
  -2 -12   9  130.10    4.38
  -2 -12   9  132.64    4.40
  -2  12   9  137.31    4.39
   1 -12  -9   48.56    1.67
  -1 -12   9   47.07    1.68
  -1 -12   9   48.23    1.70
  -1  12   9   50.38    1.69
   0 -12   9   41.36    1.50
   0 -12   9   43.55    1.49
   0 -12  -9   41.42    1.48
   0  12   9   43.77    1.50
   1 -12   9   38.51    1.47
   1 -12   9   38.10    1.38
   1 -12   9   39.77    1.37
  -1 -12  -9   37.21    1.35
   1  12   9   39.52    1.38
   2 -12   9    2.38    0.41
   2 -12   9    2.62    0.34
   2  12   9    3.12    0.30
   2  12   9    3.94    0.48
  -3 -12  -9   19.58    0.74
   3  12   9   20.33    0.76
  -4 -12  -9   21.06    0.74
   4  12   9   20.42    0.76
  -7  13   9    0.07    0.10
  -6  13   9   14.53    0.57
   5 -13  -9   10.35    0.54
  -5 -13   9   11.81    0.52
  -5  13   9   12.13    0.51
  -4 -13   9    1.33    0.32
   4 -13  -9    1.16    0.27
  -4 -13   9    1.19    0.28
  -4  13   9    0.99    0.26
  -3 -13   9    3.95    0.34
   3 -13  -9    4.08    0.29
  -3 -13   9    3.97    0.32
  -3  13   9    4.32    0.33
   2 -13  -9    2.30    0.25
  -2 -13   9    1.85    0.29
  -2 -13   9    1.89    0.27
  -2  13   9    2.27    0.29
  -1 -13   9    8.31    0.44
   1 -13  -9    8.25    0.40
  -1 -13   9    7.74    0.42
  -1  13   9    7.63    0.43
   0 -13   9   35.59    1.28
   0 -13  -9   33.96    1.25
   0 -13   9   36.59    1.27
   0  13   9   35.51    1.27
  -1 -13  -9   34.43    1.23
   1 -13   9   35.01    1.24
   1 -13   9   34.17    1.26
   1  13   9   35.65    1.25
   2 -13   9    6.90    0.52
   2  13   9    6.82    0.39
  -3 -13  -9    0.08    0.10
   3  13   9    0.02    0.15
  -4 -13  -9    6.34    0.29
   4  13   9    5.82    0.35
  -7  14   9    0.18    0.09
  -6  14   9    3.44    0.24
  -5 -14   9    0.77    0.17
   5 -14  -9    0.48    0.20
  -5  14   9    1.24    0.22
  -4 -14   9    2.40    0.34
  -4 -14   9    3.61    0.30
   4 -14  -9    2.65    0.29
  -4  14   9    3.06    0.28
   3 -14  -9   30.06    1.10
  -3 -14   9   30.57    1.12
  -3 -14   9   29.60    1.11
  -3  14   9   31.17    1.11
  -2 -14   9   20.57    0.80
  -2 -14   9   20.12    0.82
   2 -14  -9   20.44    0.79
  -2  14   9   21.61    0.81
   1 -14  -9    6.51    0.36
  -1 -14   9    6.34    0.38
  -1 -14   9    6.48    0.40
  -1  14   9    6.91    0.40
   0 -14   9    0.22    0.16
   0 -14   9    0.14    0.15
   0 -14  -9    0.22    0.14
   0  14   9    0.18    0.16
  -1 -14  -9    0.32    0.16
   1 -14   9    0.34    0.16
   1 -14   9    0.13    0.17
   1  14   9    0.71    0.19
  -2 -14  -9   48.67    1.61
   2 -14   9   44.17    1.57
   2  14   9   44.22    1.59
  -3 -14  -9   12.18    0.49
   3  14   9   11.66    0.51
  -4 -14  -9    2.71    0.21
  -7  15   9    1.41    0.15
  -6  15   9    1.79    0.19
   5 -15  -9    3.07    0.42
  -5 -15   9    2.81    0.27
  -5  15   9    2.97    0.25
  -4 -15   9   14.27    0.60
   4 -15  -9   13.92    0.63
  -4 -15   9   14.72    0.63
  -4  15   9   14.86    0.60
  -3 -15   9   15.28    0.64
  -3 -15   9   14.91    0.65
   3 -15  -9   15.32    0.63
  -3  15   9   15.43    0.64
  -2 -15   9    1.86    0.28
  -2 -15   9    2.17    0.27
   2 -15  -9    2.16    0.25
  -2  15   9    2.67    0.29
   1 -15  -9    4.05    0.33
   1 -15  -9    3.53    0.28
  -1 -15   9    3.03    0.31
  -1 -15   9    3.76    0.30
  -1  15   9    3.44    0.31
   0 -15   9    1.08    0.27
   0 -15  -9    1.48    0.24
   0 -15   9    1.24    0.26
   0 -15  -9    1.45    0.24
   0  15   9    1.19    0.27
  -1 -15  -9   15.51    0.65
   1 -15   9   15.91    0.67
   1 -15   9   16.41    0.66
  -1 -15  -9   16.45    0.64
   1  15   9   16.21    0.66
  -2 -15  -9    6.38    0.32
   2 -15   9    5.96    0.43
   2  15   9    5.70    0.36
  -3 -15  -9    3.23    0.22
   3  15   9    3.18    0.30
  -4 -15  -9    0.09    0.09
  -6  16   9    9.22    0.38
  -5 -16   9    1.81    0.24
  -5  16   9    1.98    0.22
  -4 -16   9    0.66    0.18
  -4 -16   9    0.59    0.17
   4 -16  -9    0.71    0.15
   3 -16  -9    4.24    0.31
  -3 -16   9    4.23    0.33
  -3 -16   9    4.63    0.31
  -3  16   9    4.66    0.32
  -2 -16   9   68.01    2.31
  -2 -16   9   69.52    2.33
   2 -16  -9   66.28    2.30
  -2  16   9   69.73    2.31
  -1 -16   9   20.60    0.79
   1 -16  -9   19.64    0.77
  -1 -16   9   20.11    0.81
   1 -16  -9   20.35    0.78
  -1  16   9   20.43    0.79
   0 -16  -9    7.54    0.39
   0 -16   9    7.44    0.42
   0 -16   9    7.54    0.41
   0 -16  -9    8.33    0.41
   0  16   9    7.20    0.42
  -1 -16  -9   11.92    0.51
   1 -16   9   11.16    0.57
   1 -16   9   11.94    0.53
  -2 -16  -9   40.26    1.40
   2  16   9   41.09    1.40
  -3 -16  -9   20.97    0.75
  -4 -16  -9    1.94    0.16
  -6  17   9   10.46    0.41
  -5 -17   9   -0.21    0.13
  -5  17   9    0.10    0.12
  -4 -17   9    0.41    0.13
   4 -17  -9    0.53    0.14
  -4 -17   9    0.36    0.16
  -4  17   9    0.46    0.14
   3 -17  -9    0.21    0.13
  -3 -17   9    0.26    0.13
  -3 -17   9   -0.14    0.13
  -3  17   9    0.19    0.15
  -2 -17   9   10.26    0.48
  -2 -17   9   10.44    0.50
   2 -17  -9   10.34    0.47
  -2  17   9   11.21    0.50
  -1 -17   9    3.03    0.29
   1 -17  -9    2.57    0.32
   1 -17  -9    3.15    0.27
  -1 -17   9    3.05    0.28
  -1  17   9    3.06    0.30
   0 -17   9    4.39    0.32
   0 -17  -9    4.13    0.29
   0 -17  -9    4.38    0.30
   0 -17   9    3.64    0.31
   0  17   9    5.17    0.36
   1 -17   9    0.62    0.17
  -1 -17  -9    0.78    0.19
  -1 -17  -9    0.67    0.15
   1 -17   9    0.55    0.16
   1  17   9    0.80    0.18
  -2 -17  -9    5.81    0.30
   2  17   9    5.31    0.37
  -3 -17  -9    0.26    0.09
  -6  18   9    2.43    0.19
  -5 -18   9    2.31    0.23
  -5  18   9    2.47    0.21
  -4 -18   9    1.66    0.22
   4 -18  -9    1.63    0.22
  -4 -18   9    1.54    0.26
  -4  18   9    1.18    0.22
  -3 -18   9    2.59    0.24
   3 -18  -9    2.37    0.24
  -3 -18   9    2.58    0.27
  -3  18   9    2.65    0.26
  -2 -18   9    0.16    0.13
   2 -18  -9    0.42    0.13
  -2 -18   9    0.38    0.13
  -1 -18   9    0.68    0.15
   1 -18  -9    0.47    0.13
   1 -18  -9    0.38    0.17
   0 -18  -9    2.60    0.24
   0 -18   9    2.83    0.26
   0 -18  -9    2.29    0.25
   0 -18   9    2.54    0.26
   0  18   9    2.39    0.30
   1 -18   9    2.09    0.28
   1 -18   9    1.71    0.25
  -1 -18  -9    2.33    0.25
  -1 -18  -9    2.14    0.20
   1  18   9    2.05    0.31
  -2 -18  -9    6.36    0.30
  -3 -18  -9   13.47    0.49
  -6  19   9    0.09    0.11
  -5 -19   9    4.61    0.33
  -5  19   9    5.56    0.28
   4 -19  -9    0.31    0.12
  -4 -19   9    0.27    0.14
  -4 -19   9    0.23    0.11
  -4  19   9    0.78    0.19
  -3 -19   9    8.60    0.41
  -3 -19   9    8.39    0.40
   3 -19  -9    8.82    0.40
  -3  19   9    9.29    0.41
  -2 -19   9    2.52    0.24
  -2 -19   9    2.52    0.26
   2 -19  -9    2.39    0.22
  -2  19   9    2.56    0.27
   1 -19  -9    3.15    0.24
  -1 -19   9    3.31    0.27
   1 -19  -9    2.54    0.31
  -1 -19   9    3.08    0.25
  -1  19   9    3.45    0.30
   0 -19  -9    7.36    0.37
   0 -19  -9    7.61    0.37
   0 -19   9    7.59    0.38
   0 -19   9    7.69    0.39
   0  19   9    7.78    0.41
  -1 -19  -9   13.91    0.55
  -1 -19  -9   13.92    0.54
   1 -19   9   14.05    0.56
   1 -19   9   13.09    0.56
  -2 -19  -9    5.60    0.27
  -5 -20   9    0.27    0.12
  -5  20   9    0.22    0.12
   4 -20  -9    0.72    0.19
  -4 -20   9    0.94    0.24
  -4 -20   9    0.98    0.17
  -4  20   9    1.10    0.20
   3 -20  -9    2.27    0.20
  -3 -20   9    2.17    0.21
  -3 -20   9    2.22    0.24
  -3  20   9    2.29    0.25
  -2 -20   9    5.94    0.33
   2 -20  -9    5.97    0.31
  -2 -20   9    5.83    0.31
  -2  20   9    6.17    0.34
   1 -20  -9    7.68    0.37
  -1 -20   9    8.98    0.40
  -1 -20   9    8.16    0.40
  -1  20   9    8.21    0.42
   0 -20   9   10.15    0.44
   0 -20  -9    9.93    0.43
   0 -20   9   10.47    0.45
   0 -20  -9   10.04    0.43
   1 -20   9    4.34    0.28
  -1 -20  -9    4.01    0.27
  -1 -20  -9    4.08    0.24
  -2 -20  -9    0.00    0.08
  -3 -20  -9    3.61    0.19
  -5 -21   9    0.11    0.13
  -4 -21   9    1.72    0.24
  -4 -21   9    1.84    0.17
   4 -21  -9    1.19    0.20
  -4  21   9    1.79    0.22
  -3 -21   9    5.97    0.32
  -3 -21   9    6.13    0.30
   3 -21  -9    5.98    0.29
  -3  21   9    5.56    0.34
  -2 -21   9    0.09    0.11
  -2 -21   9    0.03    0.10
   2 -21  -9    0.08    0.09
  -2  21   9   -0.06    0.18
  -1 -21   9    0.09    0.10
   1 -21  -9    0.03    0.10
  -1 -21   9    0.26    0.11
   0 -21   9    3.34    0.24
   0 -21  -9    3.51    0.23
   0 -21  -9    3.68    0.24
   0 -21   9    3.38    0.25
   1 -21   9    4.22    0.35
  -1 -21  -9    3.91    0.35
  -1 -21  -9    3.85    0.23
  -2 -21  -9    0.04    0.09
  -4 -22   9   17.95    0.67
   4 -22  -9   18.07    0.65
  -4 -22   9   18.03    0.65
  -3 -22   9    1.33    0.19
   3 -22  -9    1.30    0.17
  -3 -22   9    1.66    0.16
  -2 -22   9    0.00    0.09
   2 -22  -9    0.14    0.09
  -2 -22   9    0.07    0.10
   1 -22  -9    8.16    0.35
  -1 -22   9    7.72    0.36
  -1 -22   9    8.31    0.36
   0 -22  -9    0.60    0.15
   0 -22   9    0.68    0.18
   0 -22  -9    0.83    0.16
  -1 -22  -9    0.07    0.10
   1 -22   9   -0.01    0.13
  -1 -22  -9    0.10    0.16
  -2 -22  -9    3.94    0.20
   3 -23  -9    0.98    0.15
  -3 -23   9    1.25    0.18
  -3 -23   9    1.10    0.15
   2 -23  -9    0.18    0.08
  -2 -23   9    0.04    0.10
  -2 -23   9    0.12    0.09
  -1 -23   9    0.55    0.11
   1 -23  -9    0.57    0.14
  -1 -23   9    0.55    0.11
   0 -23   9    2.66    0.26
   0 -23  -9    3.00    0.23
  -1 -23  -9    4.60    0.25
   3 -24  -9    0.20    0.09
  -3 -24   9    0.19    0.11
  -3 -24   9    0.18    0.09
  -2 -24   9    0.22    0.09
   2 -24  -9    0.43    0.09
  -2 -24   9    0.30    0.09
  -1 -24   9    1.54    0.19
   1 -24  -9    1.59    0.15
  -1 -24   9    1.49    0.16
   0 -24  -9    0.01    0.10
   0 -24   9    0.17    0.10
  -2 -25   9    2.04    0.18
   2 -25  -9    2.10    0.16
  -2 -25   9    2.08    0.17
   1 -25  -9   -0.01    0.08
  -1 -25   9    0.11    0.09
  -8   0  10    2.65    0.19
  -7   0  10   22.48    0.81
  -6   0  10   12.62    0.54
  -5   0  10    6.89    0.49
  -5   0  10    7.53    0.39
  -4   0  10   22.37    0.90
  -4   0  10   23.16    0.89
  -4   0  10   23.12    0.87
  -3   0  10   46.63    1.59
  -3   0  10   46.43    1.61
  -3   0  10   44.37    1.59
  -2   0  10   85.67    2.80
  -2   0  10   82.04    2.80
  -1   0  10    3.31    0.35
  -1   0  10    3.57    0.33
   0   0  10   13.57    0.58
   0   0  10   13.28    0.61
   0   0  10   14.31    0.59
   0   0  10   13.28    0.60
   1   0  10  107.94    3.56
   1   0  10  107.17    3.55
   1   0  10  108.22    3.56
   1   0  10  105.83    3.55
   2   0  10    0.70    0.18
   2   0  10    0.46    0.15
   2   0  10    0.54    0.17
   3   0  10   13.37    0.57
   3   0  10   12.86    0.56
   4   0  10    0.78    0.19
   4   0  10    0.72    0.18
   5   0  10    0.14    0.09
   5   0  10    0.15    0.10
  -8  -1  10    0.76    0.16
  -8   1  10    0.64    0.15
  -7  -1  10    1.51    0.20
  -7   1  10    1.70    0.20
  -6  -1  10    6.54    0.36
  -6   1  10    6.62    0.44
  -6   1  10    6.74    0.36
  -5  -1  10  131.40    4.31
  -5   1  10  132.53    4.31
  -5   1  10  130.81    4.31
  -4  -1  10    3.07    0.44
  -4  -1  10    3.94    0.31
  -4  -1  10    3.45    0.34
  -4   1  10    3.31    0.30
  -4   1  10    3.44    0.38
  -3  -1  10   12.80    0.56
  -3  -1  10   12.26    0.53
  -3  -1  10   10.55    0.66
  -3  -1  10   10.51    0.66
  -3   1  10   12.11    0.55
  -3   1  10   11.79    0.58
  -3   1  10   11.41    0.58
  -3   1  10   12.94    0.53
  -2  -1  10   12.50    0.62
  -2  -1  10   13.92    0.60
  -2   1  10   13.63    0.59
  -2   1  10   13.88    0.60
  -1  -1  10    0.34    0.20
  -1  -1  10   -0.02    0.22
  -1   1  10    0.18    0.15
  -1   1  10    0.12    0.16
   0  -1  10   15.53    0.68
   0  -1  10   16.92    0.67
   0  -1  10   16.42    0.67
   0  -1  10   16.77    0.69
   0   1  10   15.34    0.67
   0   1  10   16.38    0.68
   0   1  10   16.37    0.67
   0   1  10   16.66    0.67
   1  -1  10  115.33    3.84
   1  -1  10  112.27    3.83
   1  -1  10  114.53    3.84
   1  -1  10  121.30    3.85
   1   1  10  119.03    3.84
   1   1  10  114.17    3.84
   1   1  10  117.55    3.84
   2  -1  10    4.86    0.34
   2  -1  10    5.12    0.36
   2  -1  10    5.04    0.33
   2   1  10    4.99    0.34
   2   1  10    5.07    0.34
   2   1  10    4.67    0.33
   3  -1  10    9.36    0.44
   3  -1  10    8.31    0.43
   3   1  10    8.68    0.44
   3   1  10    8.64    0.43
   4  -1  10    5.75    0.32
   4  -1  10    6.21    0.31
   4   1  10    6.09    0.32
   4   1  10    5.80    0.31
   5  -1  10   31.49    1.10
   5  -1  10   32.93    1.10
   5   1  10   32.91    1.10
   5   1  10   32.56    1.10
  -8  -2  10    5.41    0.26
  -8   2  10    5.56    0.26
  -7  -2  10    0.62    0.13
  -7   2  10    0.81    0.18
  -6  -2  10   42.59    1.41
  -6   2  10   41.35    1.40
  -6   2  10   36.97    1.40
  -5  -2  10   40.44    1.43
  -5   2  10   41.71    1.43
  -5   2  10   41.13    1.44
  -4  -2  10    0.22    0.17
  -4  -2  10    0.46    0.17
  -4   2  10    0.03    0.16
  -4   2  10    0.47    0.19
  -3  -2  10   -0.50    0.25
  -3  -2  10    0.17    0.16
  -3  -2  10    0.41    0.17
  -3   2  10    0.27    0.19
  -3   2  10    0.28    0.23
  -3   2  10    0.47    0.17
  -3   2  10    0.29    0.15
  -2  -2  10    0.66    0.18
  -2  -2  10    0.67    0.22
  -2  -2  10    0.97    0.25
  -2  -2  10    0.85    0.27
  -2   2  10    0.42    0.19
  -2   2  10    0.46    0.24
  -2   2  10    0.80    0.19
  -1  -2  10    4.57    0.48
  -1  -2  10    3.77    0.40
  -1   2  10    3.98    0.39
  -1   2  10    4.13    0.41
   0  -2  10   40.08    1.45
   0  -2  10   40.52    1.45
   0  -2  10   41.87    1.47
   0  -2  10   42.12    1.45
   0   2  10   42.10    1.46
   0   2  10   41.50    1.46
   0   2  10   40.84    1.45
   0   2  10   41.39    1.46
   1  -2  10    6.44    0.44
   1  -2  10    6.86    0.39
   1  -2  10    6.80    0.41
   1  -2  10    6.73    0.39
   1   2  10    6.58    0.39
   1   2  10    6.80    0.38
   1   2  10    6.38    0.39
   2  -2  10    1.81    0.29
   2  -2  10    2.18    0.26
   2  -2  10    2.23    0.27
   2   2  10    2.47    0.27
   2   2  10    2.64    0.27
   2   2  10    2.30    0.27
   3  -2  10    0.69    0.17
   3  -2  10    0.67    0.19
   3  -2  10    1.17    0.23
   3   2  10    0.75    0.16
   3   2  10    0.60    0.16
   4  -2  10    7.52    0.36
   4  -2  10    7.33    0.35
   4   2  10    7.13    0.36
   4   2  10    7.68    0.36
   5  -2  10    1.31    0.17
   5  -2  10    1.04    0.15
   5   2  10    1.04    0.15
   5   2  10    1.19    0.15
  -8  -3  10    0.17    0.10
  -8   3  10   -0.05    0.10
  -7  -3  10    4.06    0.25
  -7   3  10    3.59    0.32
  -7   3  10    3.76    0.25
  -6  -3  10   16.24    0.64
  -6   3  10   15.27    0.65
  -6   3  10   16.90    0.64
  -5  -3  10    2.89    0.27
  -5   3  10    2.57    0.32
  -5   3  10    2.40    0.29
  -4  -3  10   80.23    2.68
  -4  -3  10   82.29    2.70
  -4  -3  10   77.34    2.69
  -4   3  10   81.47    2.68
  -4   3  10   79.81    2.68
  -3  -3  10    0.25    0.18
  -3  -3  10    0.30    0.15
  -3  -3  10    0.58    0.17
  -3   3  10    0.22    0.23
  -3   3  10    0.31    0.17
  -3   3  10    0.04    0.15
  -2  -3  10   -0.05    0.15
  -2  -3  10    0.00    0.15
  -2  -3  10    0.38    0.27
  -2   3  10    0.15    0.15
  -2   3  10    0.06    0.18
  -2   3  10    0.17    0.20
  -1  -3  10   30.72    1.10
  -1  -3  10   30.79    1.08
  -1  -3  10   29.45    1.08
  -1  -3  10   28.94    1.10
  -1   3  10   31.42    1.10
  -1   3  10   29.63    1.11
  -1   3  10   25.71    1.16
   0  -3  10   69.72    2.34
   0  -3  10   65.88    2.32
   0  -3  10   68.73    2.32
   0  -3  10   69.29    2.33
   0   3  10   72.43    2.33
   0   3  10   69.05    2.32
   0   3  10   67.26    2.33
   1  -3  10   47.81    1.62
   1  -3  10   45.92    1.62
   1  -3  10   45.37    1.61
   1  -3  10   46.58    1.61
   1   3  10   47.43    1.61
   1   3  10   46.67    1.61
   1   3  10   43.83    1.61
   2  -3  10    0.14    0.14
   2  -3  10    0.15    0.16
   2  -3  10    0.17    0.16
   2   3  10    0.14    0.14
   2   3  10    0.11    0.13
   2   3  10    0.16    0.14
   3  -3  10    2.83    0.29
   3  -3  10    2.77    0.42
   3  -3  10    2.15    0.25
   3   3  10    2.58    0.28
   3   3  10    2.59    0.26
   4  -3  10   21.61    0.81
   4  -3  10   22.17    0.80
   4   3  10   22.01    0.81
   4   3  10   22.10    0.80
   5  -3  10    6.96    0.31
   5  -3  10    6.73    0.30
   5   3  10    6.66    0.30
   5   3  10    6.92    0.30
  -8  -4  10   10.97    0.41
  -8   4  10   10.83    0.42
  -7  -4  10   12.61    0.50
  -7   4  10   11.90    0.51
  -7   4  10   12.72    0.50
  -6  -4  10    0.41    0.15
  -6   4  10    0.48    0.16
  -6   4  10    0.46    0.18
  -5  -4  10    4.37    0.41
   5  -4 -10    4.05    0.41
  -5  -4  10    4.45    0.32
  -5   4  10    4.23    0.36
  -5   4  10    4.76    0.34
  -4  -4  10    1.41    0.31
  -4  -4  10    1.31    0.25
  -4  -4  10    1.66    0.27
  -4   4  10    1.72    0.31
  -4   4  10    1.82    0.29
  -3  -4  10   29.23    1.10
  -3  -4  10   30.48    1.12
  -3  -4  10   31.22    1.10
  -3   4  10   31.16    1.10
  -3   4  10   30.35    1.10
  -3   4  10   29.13    1.15
  -2  -4  10    4.95    0.34
  -2  -4  10    4.89    0.36
  -2  -4  10    4.58    0.34
  -2   4  10    4.78    0.34
  -2   4  10    4.44    0.34
  -2   4  10    4.13    0.37
  -1  -4  10    3.28    0.29
  -1  -4  10    2.79    0.32
  -1  -4  10    3.11    0.31
  -1  -4  10    3.11    0.43
  -1   4  10    2.88    0.30
  -1   4  10    2.68    0.30
  -1   4  10    2.51    0.31
   0  -4  10    0.56    0.17
   0  -4  10    0.50    0.16
   0  -4  10    0.74    0.16
   0  -4  10    0.91    0.24
   0   4  10    0.45    0.16
   0   4  10    1.01    0.25
   0   4  10    0.61    0.16
   1  -4  10   11.42    0.52
   1  -4  10   11.82    0.53
   1  -4  10   11.45    0.54
   1  -4  10   11.20    0.56
   1   4  10   11.08    0.52
   1   4  10   10.83    0.52
   1   4  10   11.09    0.52
   2  -4  10   10.38    0.49
   2  -4  10   10.29    0.51
   2  -4  10   10.40    0.49
   2   4  10    9.90    0.49
   2   4  10   10.44    0.49
   2   4  10    9.56    0.48
   3  -4  10   66.83    2.41
   3  -4  10   64.78    2.25
   3   4  10   67.74    2.30
   3   4  10   70.26    2.29
   4  -4  10   17.04    0.64
  -4  -4 -10   16.70    0.63
   4  -4  10   16.69    0.64
   4   4  10   16.85    0.65
   4   4  10   16.91    0.64
   5  -4  10    1.19    0.18
   5  -4  10    1.28    0.16
   5   4  10    0.94    0.15
   5   4  10    1.17    0.16
  -8  -5  10    3.70    0.21
  -8   5  10    3.31    0.23
  -7  -5  10   10.80    0.44
  -7   5  10   10.75    0.44
  -7   5  10   10.39    0.45
  -6   5  10    3.65    0.31
   5  -5 -10   19.25    0.77
  -5  -5  10   18.86    0.79
  -5  -5  10   19.38    0.75
  -5   5  10   19.48    0.76
  -5   5  10   18.37    0.74
  -4  -5  10   20.71    0.76
  -4  -5  10   18.20    0.78
  -4  -5  10   19.19    0.78
  -4   5  10   19.64    0.75
  -4   5  10   18.19    0.76
  -3  -5  10    0.35    0.17
  -3  -5  10   -0.08    0.17
  -3  -5  10    0.17    0.17
  -3   5  10   -0.10    0.16
  -3   5  10    0.15    0.17
  -2  -5  10    4.17    0.34
  -2  -5  10    3.98    0.34
  -2  -5  10    3.83    0.33
  -2   5  10    4.09    0.32
  -1  -5  10    6.66    0.40
  -1  -5  10    7.15    0.41
  -1  -5  10    6.93    0.40
  -1   5  10    7.60    0.40
  -1   5  10    7.13    0.41
  -1   5  10    7.38    0.41
   0  -5  10   63.46    2.30
   0  -5  10   70.82    2.31
   0  -5  10   68.85    2.32
   0  -5  10   68.96    2.30
   0   5  10   69.30    2.31
   0   5  10   68.81    2.31
   0   5  10   67.82    2.31
   1  -5  10    0.06    0.16
   1  -5  10    0.15    0.21
   1  -5  10    0.07    0.14
   1  -5  10    0.53    0.19
   1   5  10    0.07    0.13
   1   5  10    0.22    0.14
   1   5  10    0.33    0.15
   2  -5  10    5.95    0.39
   2  -5  10    5.67    0.37
   2  -5  10    5.99    0.37
   2   5  10    5.63    0.36
   2   5  10    6.17    0.36
   2   5  10    5.78    0.36
   3  -5  10    1.07    0.25
   3  -5  10    1.37    0.25
   3  -5  10    1.13    0.27
   4  -5  10   12.23    0.50
  -4  -5 -10   11.61    0.49
   4  -5  10   12.58    0.50
   4   5  10   12.34    0.50
   4   5  10   12.62    0.50
   5  -5  10    0.21    0.13
   5  -5  10    0.24    0.11
   5   5  10    0.09    0.10
   5   5  10    0.19    0.10
  -8  -6  10    0.06    0.11
  -7  -6  10    0.73    0.18
  -7   6  10    0.19    0.14
  -7   6  10   -0.01    0.13
  -6  -6  10    5.15    0.31
  -6   6  10    4.33    0.31
  -6   6  10    4.90    0.33
  -5  -6  10   17.24    0.68
  -5  -6  10   16.08    0.73
   5  -6 -10   16.87    0.71
  -5   6  10   16.85    0.68
  -5   6  10   17.08    0.69
  -4  -6  10   48.96    1.72
  -4  -6  10   50.37    1.72
  -4  -6  10   50.38    1.74
  -4   6  10   50.28    1.72
  -4   6  10   50.05    1.72
  -3  -6  10    1.58    0.28
  -3  -6  10    1.47    0.30
  -3  -6  10    1.20    0.30
  -3   6  10    1.46    0.27
  -3   6  10    1.34    0.31
  -2  -6  10    5.11    0.35
  -2  -6  10    4.54    0.34
  -2  -6  10    5.07    0.35
  -2   6  10    4.38    0.38
  -2   6  10    4.61    0.35
  -1  -6  10    3.48    0.30
  -1  -6  10    3.25    0.32
  -1  -6  10    3.42    0.31
  -1   6  10    3.47    0.32
  -1   6  10    3.96    0.32
  -1   6  10    3.78    0.32
   0  -6  10    6.52    0.42
   0  -6  10    6.91    0.40
   0  -6  10    7.11    0.39
   0   6  10    6.99    0.40
   0   6  10    6.77    0.41
   0   6  10    6.75    0.38
   1  -6  10    1.17    0.20
   1  -6  10    1.09    0.25
   1  -6  10    1.08    0.23
   1  -6  10    1.44    0.32
   1   6  10    1.26    0.26
   1   6  10    1.20    0.27
   1   6  10    1.18    0.24
   2  -6  10   17.15    0.67
   2  -6  10   15.78    0.66
   2  -6  10   15.90    0.68
   2   6  10   16.04    0.67
   2   6  10   16.29    0.66
   3  -6  10    3.55    0.32
   3  -6  10    3.51    0.30
   3  -6  10    3.87    0.29
   3   6  10    3.35    0.28
   3   6  10    3.62    0.30
   4  -6  10    0.25    0.12
   4  -6  10    0.13    0.13
  -4  -6 -10    0.50    0.13
   4   6  10    0.71    0.18
   4   6  10    0.24    0.13
   5  -6  10   -0.27    0.15
   5   6  10    0.11    0.12
   5   6  10   -0.08    0.11
  -7  -7  10    7.00    0.34
  -7   7  10    7.46    0.35
  -7   7  10    7.37    0.34
  -6  -7  10    0.64    0.15
  -6   7  10    0.65    0.16
  -6   7  10    0.59    0.16
  -5  -7  10   45.34    1.61
  -5  -7  10   47.67    1.58
   5  -7 -10   43.84    1.59
  -5   7  10   46.88    1.59
  -5   7  10   45.67    1.58
   4  -7 -10    1.99    0.29
  -4  -7  10    1.93    0.32
  -4  -7  10    1.81    0.34
  -4  -7  10    1.50    0.29
  -4   7  10    2.12    0.28
  -4   7  10    1.35    0.29
  -3  -7  10   43.60    1.54
  -3  -7  10   45.44    1.56
  -3  -7  10   44.39    1.54
  -3   7  10   43.50    1.53
  -3   7  10   44.04    1.54
  -2  -7  10    3.50    0.31
  -2  -7  10    3.39    0.31
  -2  -7  10    2.94    0.31
  -2   7  10    2.82    0.29
  -2   7  10    2.79    0.36
  -2   7  10    3.50    0.32
  -1  -7  10    5.35    0.38
  -1  -7  10    5.89    0.37
  -1  -7  10    5.10    0.35
  -1   7  10    5.43    0.35
  -1   7  10    5.65    0.37
  -1   7  10    5.68    0.37
   0  -7  10   99.59    3.35
   0  -7  10  100.01    3.33
   0  -7  10  103.33    3.34
   0   7  10   98.55    3.33
   0   7  10   99.37    3.34
   0   7  10  102.61    3.33
   1  -7  10    0.41    0.23
  -1  -7 -10   -0.06    0.16
   1  -7  10    0.29    0.16
   1  -7  10    0.26    0.15
   1   7  10    0.21    0.17
   1   7  10    0.33    0.15
   1   7  10    0.36    0.14
   2  -7  10    1.41    0.25
   2  -7  10    1.70    0.27
   2  -7  10    1.78    0.27
   2   7  10    1.68    0.26
   2   7  10    1.29    0.27
   3  -7  10    3.44    0.32
   3  -7  10    3.40    0.31
   3  -7  10    3.56    0.29
   3   7  10    3.54    0.28
   3   7  10    3.43    0.29
  -4  -7 -10    0.30    0.12
   4  -7  10    0.16    0.15
   4  -7  10    0.42    0.13
   4   7  10    0.35    0.13
   4   7  10    0.49    0.13
   5   7  10   16.48    0.59
  -7  -8  10    3.25    0.22
  -7   8  10    2.18    0.25
  -7   8  10    2.56    0.22
  -6  -8  10   12.10    0.51
  -6   8  10   12.22    0.52
  -6   8  10   12.62    0.53
   5  -8 -10    7.03    0.44
  -5  -8  10    6.91    0.45
  -5  -8  10    7.18    0.40
  -5   8  10    7.53    0.41
  -5   8  10    6.98    0.40
  -4  -8  10    8.25    0.46
   4  -8 -10    7.94    0.43
  -4  -8  10    8.01    0.46
  -4  -8  10    8.69    0.43
  -4   8  10    8.51    0.44
  -4   8  10    8.43    0.45
  -3  -8  10   73.75    2.45
  -3  -8  10   74.11    2.44
  -3  -8  10   71.62    2.47
  -3   8  10   72.95    2.44
  -3   8  10   71.49    2.45
  -2  -8  10    7.81    0.43
  -2  -8  10    8.02    0.44
  -2  -8  10    8.11    0.44
  -2   8  10    8.17    0.45
  -2   8  10    8.14    0.42
  -2   8  10    7.72    0.52
  -1  -8  10   11.84    0.53
  -1  -8  10   11.74    0.53
  -1  -8  10   11.51    0.54
  -1   8  10   11.71    0.54
  -1   8  10   11.36    0.53
  -1   8  10   11.28    0.53
   0  -8  10    0.97    0.18
   0  -8  10    0.95    0.19
   0  -8  10    0.87    0.17
   0   8  10    0.51    0.15
   0   8  10    0.91    0.20
   0   8  10    0.59    0.18
   1  -8  10   39.35    1.43
   1  -8  10   42.28    1.42
   1  -8  10   41.40    1.43
  -1  -8 -10   39.40    1.41
   1   8  10   40.03    1.43
   1   8  10   40.11    1.42
   1   8  10   40.20    1.42
   2  -8  10   16.93    0.67
   2  -8  10   15.31    0.70
   2  -8  10   16.59    0.67
   2   8  10   16.23    0.68
   2   8  10   17.17    0.67
   3  -8  10    1.73    0.28
   3  -8  10    2.43    0.26
   3   8  10    2.31    0.26
   3   8  10    1.71    0.23
   4  -8  10    2.88    0.23
  -4  -8 -10    2.81    0.21
   4   8  10    2.64    0.22
   4   8  10    2.71    0.23
  -7  -9  10    2.04    0.23
  -7   9  10    2.85    0.21
  -7   9  10    2.66    0.31
  -6  -9  10    0.80    0.16
  -6   9  10    0.80    0.15
  -6   9  10    0.98    0.18
  -5  -9  10    1.48    0.38
  -5  -9  10    0.87    0.18
  -5   9  10    0.60    0.17
  -5   9  10    0.94    0.20
  -4  -9  10   15.93    0.69
   4  -9 -10   17.02    0.66
  -4  -9  10   16.73    0.66
  -4  -9  10   15.18    0.67
  -4   9  10   14.80    0.65
  -4   9  10   15.89    0.67
   3  -9 -10   32.93    1.18
  -3  -9  10   32.86    1.21
  -3  -9  10   34.09    1.19
  -3  -9  10   32.75    1.19
  -3   9  10   32.11    1.19
  -3   9  10   33.16    1.19
  -2  -9  10   19.44    0.78
  -2  -9  10   18.93    0.76
  -2  -9  10   18.99    0.76
  -2   9  10   18.81    0.77
  -2   9  10   19.99    0.76
  -2   9  10   18.47    0.76
  -1  -9  10    9.91    0.48
  -1  -9  10    9.23    0.48
   1  -9 -10    9.53    0.46
  -1  -9  10   10.35    0.49
  -1   9  10    9.67    0.48
  -1   9  10   10.41    0.49
  -1   9  10    9.53    0.50
   0  -9  10   64.02    2.12
   0  -9  10   61.29    2.13
   0  -9 -10   61.95    2.12
   0  -9  10   61.06    2.12
   0   9  10   64.32    2.13
   0   9  10   63.46    2.12
   0   9  10   61.18    2.12
  -1  -9 -10    4.96    0.36
   1  -9  10    5.29    0.36
   1  -9  10    5.27    0.40
   1  -9  10    4.84    0.34
   1   9  10    4.46    0.36
   1   9  10    5.25    0.34
   2  -9  10    1.39    0.28
   2  -9  10    1.39    0.28
   2   9  10    1.42    0.25
   2   9  10    0.83    0.19
   3  -9  10   -0.15    0.19
   3  -9  10    0.09    0.15
   3   9  10    0.13    0.16
   3   9  10    0.07    0.13
   4  -9  10   -0.16    0.15
  -4  -9 -10    0.01    0.11
   4  -9  10    0.01    0.20
   4   9  10   -0.03    0.11
   4   9  10   -0.01    0.17
  -7 -10  10   -0.19    0.14
  -7  10  10    0.25    0.11
  -6 -10  10    0.95    0.16
  -6  10  10    1.05    0.21
  -6  10  10    0.91    0.15
  -5 -10  10    7.02    0.45
   5 -10 -10    7.05    0.42
  -5 -10  10    8.00    0.48
  -5  10  10    7.99    0.39
  -5  10  10    5.59    0.50
  -4 -10  10    0.27    0.17
  -4 -10  10    0.15    0.17
  -4 -10  10    0.67    0.19
   4 -10 -10    0.41    0.15
  -4  10  10    0.60    0.17
  -4  10  10    0.59    0.22
  -3 -10  10   40.76    1.41
  -3 -10  10   39.47    1.42
   3 -10 -10   39.36    1.40
  -3 -10  10   40.29    1.40
  -3  10  10   40.36    1.41
  -3  10  10   38.61    1.40
  -2 -10  10    1.08    0.26
  -2 -10  10    1.02    0.27
   2 -10 -10    1.13    0.23
  -2 -10  10    1.12    0.21
  -2  10  10    1.28    0.24
  -2  10  10    1.13    0.25
   1 -10 -10    7.18    0.39
  -1 -10  10    7.58    0.42
  -1 -10  10    7.06    0.40
  -1 -10  10    7.30    0.43
  -1  10  10    7.29    0.41
  -1  10  10    6.83    0.45
   0 -10  10    1.59    0.25
   0 -10  10    1.50    0.27
   0 -10 -10    1.35    0.25
   0 -10  10    1.06    0.21
   0  10  10    1.12    0.20
   0  10  10    1.79    0.35
   1 -10  10    7.86    0.46
  -1 -10 -10    8.27    0.43
   1 -10  10    8.64    0.44
   1 -10  10    8.32    0.45
   1  10  10    7.90    0.46
   1  10  10    7.82    0.42
   2 -10  10    5.75    0.45
   2 -10  10    5.44    0.36
   2  10  10    5.95    0.35
  -3 -10 -10    4.14    0.26
   3 -10  10    4.15    0.31
   3  10  10    4.10    0.32
   3  10  10    3.98    0.28
   4  10  10    0.14    0.12
   4  10  10   -0.39    0.17
  -7  11  10    0.74    0.17
  -6 -11  10   11.86    0.50
  -6  11  10   12.54    0.50
  -5 -11  10    5.54    0.44
  -5 -11  10    6.31    0.41
  -5 -11  10    5.82    0.36
   5 -11 -10    5.85    0.39
  -5  11  10    5.88    0.47
  -4 -11  10    4.32    0.34
   4 -11 -10    4.53    0.32
  -4 -11  10    4.31    0.36
  -4 -11  10    4.51    0.37
  -4  11  10    3.46    0.41
  -4  11  10    4.13    0.32
  -3 -11  10    0.58    0.22
   3 -11 -10    0.41    0.14
  -3 -11  10    0.38    0.17
  -3 -11  10    1.07    0.26
  -3  11  10   -0.07    0.24
  -3  11  10    0.66    0.17
  -2 -11  10    3.19    0.33
  -2 -11  10    2.98    0.35
  -2 -11  10    3.22    0.30
   2 -11 -10    4.08    0.29
  -2  11  10    3.86    0.40
  -2  11  10    3.70    0.31
  -1 -11  10    0.29    0.15
  -1 -11  10   -0.07    0.14
   1 -11 -10    0.17    0.13
  -1 -11  10   -0.03    0.20
  -1  11  10    0.34    0.25
  -1  11  10    0.01    0.15
   0 -11  10    4.00    0.34
   0 -11  10    3.92    0.32
   0 -11  10    4.28    0.37
   0 -11 -10    3.58    0.30
   0  11  10    3.79    0.32
   0  11  10    3.25    0.39
   1 -11  10    1.02    0.22
   1 -11  10    0.65    0.18
   1 -11  10    0.79    0.17
  -1 -11 -10    0.64    0.16
   1  11  10    0.87    0.22
   1  11  10    0.60    0.16
   2 -11  10    1.93    0.29
   2 -11  10    1.80    0.31
   2  11  10    2.48    0.35
   3 -11  10    0.14    0.18
  -3 -11 -10    0.40    0.11
   3  11  10    0.41    0.20
   3  11  10    0.32    0.13
  -4 -11 -10    1.70    0.18
   4  11  10    1.90    0.21
  -7  12  10    2.34    0.18
  -6 -12  10   -0.03    0.18
  -6  12  10    0.20    0.11
  -5 -12  10    0.52    0.18
   5 -12 -10    0.44    0.18
  -5 -12  10    0.73    0.23
  -5 -12  10    0.80    0.19
  -5  12  10    0.71    0.15
   4 -12 -10    2.02    0.26
  -4 -12  10    2.25    0.28
  -4 -12  10    2.02    0.31
  -4 -12  10    1.56    0.35
  -4  12  10    1.70    0.26
   3 -12 -10   13.96    0.59
  -3 -12  10   13.82    0.62
  -3 -12  10   13.72    0.59
  -3 -12  10   14.37    0.63
  -3  12  10   13.87    0.60
  -2 -12  10    0.01    0.14
  -2 -12  10    0.35    0.15
   2 -12 -10    0.21    0.13
  -2 -12  10    0.59    0.23
  -2  12  10    0.36    0.15
   1 -12 -10    6.85    0.38
  -1 -12  10    6.81    0.47
  -1 -12  10    7.30    0.40
  -1 -12  10    7.00    0.42
  -1  12  10    7.37    0.41
   0 -12  10    0.31    0.14
   0 -12  10    0.24    0.23
   0 -12  10    0.14    0.15
   0 -12 -10    0.16    0.13
   0  12  10    0.10    0.15
   1 -12  10    0.13    0.16
   1 -12  10    0.31    0.15
  -1 -12 -10   -0.03    0.14
   1  12  10    0.21    0.15
   2 -12  10    0.52    0.17
   2  12  10    0.50    0.15
  -3 -12 -10    0.23    0.10
   3  12  10    0.26    0.13
  -4 -12 -10    0.76    0.16
   4  12  10    0.63    0.16
  -7  13  10    0.60    0.15
  -6  13  10    2.48    0.21
  -5 -13  10   12.49    0.52
   5 -13 -10   11.40    0.53
  -5 -13  10   11.69    0.57
  -5  13  10   11.99    0.50
  -4 -13  10   10.83    0.50
   4 -13 -10   10.97    0.51
  -4 -13  10   11.28    0.52
  -4  13  10   10.32    0.49
  -3 -13  10    0.17    0.16
  -3 -13  10    0.45    0.15
   3 -13 -10    0.98    0.21
  -3  13  10    0.34    0.14
  -2 -13  10   14.69    0.63
  -2 -13  10   14.52    0.61
   2 -13 -10   13.43    0.59
  -2  13  10   14.16    0.60
   1 -13 -10    1.61    0.25
  -1 -13  10    1.18    0.27
  -1 -13  10    1.51    0.25
  -1  13  10    2.15    0.28
   0 -13  10    2.75    0.27
   0 -13  10    2.29    0.29
   0 -13 -10    2.20    0.25
   0  13  10    2.48    0.29
  -1 -13 -10   44.43    1.69
   1 -13  10   47.27    1.63
   1  13  10   45.78    1.59
   2 -13  10    1.14    0.27
  -2 -13 -10    1.47    0.19
   2  13  10    0.84    0.22
  -3 -13 -10    0.22    0.09
   3  13  10    0.17    0.14
  -4 -13 -10    0.06    0.10
  -7  14  10    1.35    0.15
  -6  14  10   11.56    0.46
  -5 -14  10    5.51    0.34
   5 -14 -10    5.17    0.36
  -5  14  10    6.12    0.31
   4 -14 -10    3.00    0.27
  -4 -14  10    3.29    0.31
  -4 -14  10    2.99    0.31
   3 -14 -10   31.04    1.13
  -3 -14  10   32.48    1.16
  -3 -14  10   30.85    1.14
  -3  14  10   31.87    1.14
  -2 -14  10   49.64    1.76
   2 -14 -10   51.57    1.75
  -2 -14  10   50.80    1.78
  -2  14  10   52.23    1.76
  -1 -14  10    3.30    0.29
   1 -14 -10    3.19    0.27
  -1 -14  10    3.00    0.30
  -1  14  10    2.92    0.29
   0 -14 -10    0.91    0.22
   0 -14  10    0.81    0.16
   0 -14  10    1.29    0.26
   0  14  10    0.86    0.18
   1 -14  10   -0.01    0.14
  -1 -14 -10   -0.17    0.14
   1 -14  10   -0.05    0.15
   1  14  10    0.00    0.15
   2 -14  10   -0.28    0.16
  -2 -14 -10    0.12    0.10
   2  14  10    0.03    0.13
  -3 -14 -10    3.91    0.22
  -6  15  10    0.19    0.09
  -5 -15  10    2.33    0.26
   5 -15 -10    3.10    0.30
  -5  15  10    2.51    0.22
  -4 -15  10    0.01    0.15
   4 -15 -10    0.23    0.13
  -4 -15  10    0.38    0.13
  -4  15  10    0.20    0.12
   3 -15 -10    4.82    0.30
  -3 -15  10    5.59    0.35
  -3 -15  10    4.93    0.31
  -3  15  10    4.87    0.32
  -2 -15  10   27.16    1.00
  -2 -15  10   25.16    0.97
   2 -15 -10   26.74    0.97
  -2  15  10   26.76    0.98
   1 -15 -10   10.61    0.48
  -1 -15  10   10.05    0.50
   1 -15 -10   10.44    0.49
  -1 -15  10   11.09    0.49
  -1  15  10   11.75    0.50
   0 -15  10    0.29    0.14
   0 -15 -10    0.30    0.13
   0 -15  10    0.04    0.13
   0  15  10    0.07    0.15
   1 -15  10    1.33    0.26
  -1 -15 -10    1.69    0.25
  -1 -15 -10    1.74    0.21
   1 -15  10    0.92    0.24
   1  15  10    1.02    0.24
  -2 -15 -10    2.72    0.21
   2  15  10    2.89    0.26
  -3 -15 -10    4.28    0.23
   3  15  10    4.68    0.35
  -5 -16  10    0.05    0.14
  -5  16  10    0.41    0.11
  -4 -16  10    0.76    0.16
  -4 -16  10    0.96    0.21
   4 -16 -10    0.83    0.15
  -4  16  10    0.66    0.14
  -3 -16  10    5.43    0.32
  -3 -16  10    5.30    0.34
   3 -16 -10    4.98    0.31
  -3  16  10    5.29    0.32
   2 -16 -10    7.60    0.37
  -2 -16  10    7.46    0.38
  -2 -16  10    6.83    0.40
  -2  16  10    7.52    0.41
   1 -16 -10    0.12    0.16
   1 -16 -10   -0.15    0.11
  -1 -16  10   -0.20    0.12
  -1 -16  10    0.00    0.13
   0 -16 -10    1.01    0.21
   0 -16  10    0.56    0.15
   0 -16 -10    0.71    0.14
   0 -16  10    1.07    0.22
   0  16  10    0.73    0.16
  -1 -16 -10    1.23    0.19
   1 -16  10    0.90    0.24
   1 -16  10    1.16    0.25
  -1 -16 -10    0.94    0.24
   1  16  10    1.27    0.24
  -2 -16 -10   -0.06    0.09
   2  16  10    0.09    0.15
  -5 -17  10    9.36    0.41
  -5  17  10    9.27    0.39
  -4 -17  10    3.67    0.26
  -4 -17  10    3.34    0.28
   4 -17 -10    3.35    0.26
  -4  17  10    3.73    0.24
  -3 -17  10    4.39    0.30
   3 -17 -10    5.17    0.29
  -3 -17  10    4.61    0.29
  -3  17  10    4.68    0.29
  -2 -17  10    6.09    0.36
   2 -17 -10    6.53    0.34
  -2 -17  10    6.45    0.35
  -2  17  10    6.92    0.36
  -1 -17  10   13.38    0.56
   1 -17 -10   12.19    0.54
  -1 -17  10   12.85    0.54
   1 -17 -10   13.04    0.53
  -1  17  10   13.30    0.55
   0 -17 -10   31.44    1.11
   0 -17  10   31.64    1.12
   0 -17 -10   31.56    1.11
   0 -17  10   31.82    1.13
   0  17  10   32.49    1.12
   1 -17  10    0.00    0.13
   1 -17  10    0.40    0.14
  -1 -17 -10    0.16    0.14
  -1 -17 -10    0.08    0.10
   1  17  10   -0.09    0.15
  -2 -17 -10    0.01    0.08
   2  17  10    0.16    0.20
  -3 -17 -10   -0.05    0.07
  -5 -18  10   14.88    0.56
  -5  18  10   14.58    0.55
  -4 -18  10    8.89    0.38
  -4 -18  10    8.21    0.40
   4 -18 -10    8.77    0.38
  -4  18  10    7.98    0.38
  -3 -18  10   -0.05    0.11
   3 -18 -10    0.23    0.11
  -3 -18  10   -0.02    0.10
  -3  18  10    0.01    0.13
   2 -18 -10    2.73    0.23
  -2 -18  10    2.71    0.23
  -2 -18  10    2.63    0.26
  -2  18  10    2.77    0.24
  -1 -18  10    0.80    0.20
  -1 -18  10    1.01    0.21
   1 -18 -10    0.78    0.18
   1 -18 -10    0.58    0.12
  -1  18  10    1.05    0.23
   0 -18 -10    7.09    0.35
   0 -18 -10    7.20    0.35
   0 -18  10    7.07    0.36
   0 -18  10    7.75    0.37
   0  18  10    7.04    0.36
  -1 -18 -10    7.00    0.33
   1 -18  10    7.06    0.36
   1 -18  10    7.42    0.37
  -1 -18 -10    7.23    0.35
   1  18  10    7.15    0.38
  -2 -18 -10    0.62    0.14
  -5 -19  10    1.56    0.22
  -5  19  10    1.17    0.17
  -4 -19  10    1.25    0.17
   4 -19 -10    1.16    0.19
  -4 -19  10    0.80    0.22
  -4  19  10    1.12    0.19
   3 -19 -10   -0.07    0.10
  -3 -19  10    0.18    0.12
  -3 -19  10    0.03    0.10
  -3  19  10    0.35    0.13
   2 -19 -10    0.41    0.11
  -2 -19  10    0.23    0.11
  -2 -19  10    0.15    0.11
  -2  19  10    0.40    0.14
  -1 -19  10    8.19    0.39
  -1 -19  10    8.24    0.38
   1 -19 -10    8.27    0.37
  -1  19  10    8.50    0.40
   0 -19  10    8.47    0.38
   0 -19 -10    7.90    0.36
   0 -19 -10    8.31    0.37
   0 -19  10    8.03    0.38
   0  19  10    7.90    0.39
  -1 -19 -10    0.34    0.10
   1 -19  10    0.17    0.16
  -1 -19 -10    0.27    0.14
  -2 -19 -10    5.90    0.26
  -5  20  10    0.56    0.14
   4 -20 -10   13.15    0.51
  -4 -20  10   14.04    0.53
  -4 -20  10   13.70    0.51
  -4  20  10   13.80    0.52
   3 -20 -10   28.12    0.98
  -3 -20  10   27.52    0.99
  -3 -20  10   28.89    0.99
  -3  20  10   28.34    0.98
   2 -20 -10   15.76    0.59
  -2 -20  10   15.64    0.59
  -2 -20  10   15.74    0.61
  -2  20  10   15.59    0.60
  -1 -20  10    7.55    0.33
  -1 -20  10    6.68    0.33
   1 -20 -10    6.42    0.31
  -1  20  10    5.99    0.35
   0 -20 -10    1.49    0.20
   0 -20 -10    1.37    0.18
   0 -20  10    1.45    0.20
   0 -20  10    1.71    0.19
  -1 -20 -10   -0.17    0.18
   1 -20  10   -0.05    0.14
  -2 -20 -10   28.36    0.95
  -4 -21  10    5.44    0.31
   4 -21 -10    5.07    0.28
  -4 -21  10    5.31    0.25
  -4  21  10    5.14    0.30
   3 -21 -10    2.62    0.18
  -3 -21  10    2.49    0.21
  -3 -21  10    2.30    0.18
  -3  21  10    2.14    0.26
  -2 -21  10    2.52    0.20
   2 -21 -10    2.49    0.18
  -2 -21  10    2.44    0.19
  -2  21  10    2.57    0.30
   1 -21 -10    5.06    0.26
  -1 -21  10    4.91    0.27
  -1 -21  10    5.16    0.27
   0 -21  10    4.20    0.24
   0 -21 -10    3.57    0.25
   0 -21 -10    4.35    0.28
   0 -21  10    4.46    0.26
  -1 -21 -10    4.10    0.23
  -4 -22  10    4.56    0.23
   3 -22 -10   18.24    0.63
  -3 -22  10   18.01    0.64
  -3 -22  10   17.09    0.64
   2 -22 -10    0.25    0.08
  -2 -22  10    0.19    0.09
  -2 -22  10    0.34    0.09
  -1 -22  10    0.24    0.11
   1 -22 -10    0.04    0.08
  -1 -22  10    0.22    0.09
   0 -22 -10    0.08    0.10
   0 -22  10    0.06    0.10
   0 -22  10    0.08    0.16
  -3 -23  10    0.17    0.09
  -3 -23  10    0.08    0.11
   3 -23 -10    0.25    0.09
  -2 -23  10   10.63    0.41
  -2 -23  10   10.49    0.41
   2 -23 -10   11.11    0.41
  -1 -23  10    1.70    0.16
   1 -23 -10    1.87    0.15
  -1 -23  10    1.75    0.18
   0 -23  10    4.89    0.26
  -8   0  11   -0.05    0.09
  -7   0  11    0.06    0.10
  -6   0  11   -0.19    0.13
  -5   0  11    0.23    0.15
  -5   0  11   -0.29    0.24
  -4   0  11   -0.08    0.20
  -4   0  11    0.00    0.15
  -3   0  11   -0.07    0.18
  -3   0  11    0.32    0.18
  -3   0  11    0.03    0.20
  -3   0  11    0.02    0.14
  -2   0  11   -0.05    0.14
  -2   0  11    0.14    0.14
  -2   0  11   -0.04    0.15
  -2   0  11   -0.26    0.17
  -1   0  11    0.11    0.14
  -1   0  11    0.15    0.18
  -1   0  11   -0.17    0.13
  -1   0  11   -0.10    0.13
   0   0  11    0.00    0.13
   0   0  11    0.24    0.17
   0   0  11   -0.06    0.13
   0   0  11   -0.15    0.15
   1   0  11    0.15    0.13
   1   0  11    0.11    0.16
   1   0  11   -0.05    0.15
   2   0  11    0.10    0.13
   2   0  11    0.00    0.13
   3   0  11    0.11    0.12
   3   0  11    0.14    0.12
   4   0  11    0.14    0.10
   4   0  11    0.00    0.11
  -8  -1  11   -0.03    0.09
  -8   1  11   -0.11    0.10
  -7  -1  11    5.63    0.28
  -7   1  11    5.16    0.28
  -6  -1  11   14.81    0.59
  -6   1  11   14.58    0.59
  -5  -1  11   15.60    0.61
  -5   1  11   14.55    0.61
  -5   1  11   13.80    0.64
  -4  -1  11   31.60    1.12
  -4  -1  11   30.74    1.10
  -4  -1  11   29.12    1.12
  -4   1  11   31.08    1.10
  -4   1  11   29.10    1.10
  -3  -1  11    0.17    0.15
  -3  -1  11    0.20    0.17
  -3  -1  11    0.60    0.23
  -3  -1  11    0.40    0.18
  -3   1  11    0.35    0.19
  -3   1  11    0.35    0.16
  -3   1  11    0.11    0.20
  -3   1  11    0.26    0.14
  -2  -1  11    0.59    0.16
  -2  -1  11    1.31    0.25
  -2  -1  11    1.03    0.22
  -2  -1  11    1.29    0.28
  -2   1  11    0.89    0.18
  -2   1  11    1.29    0.30
  -2   1  11    0.62    0.17
  -2   1  11    1.08    0.24
  -1  -1  11    9.21    0.46
  -1  -1  11    9.25    0.45
  -1  -1  11    9.41    0.49
  -1  -1  11    9.47    0.46
  -1   1  11    9.05    0.46
  -1   1  11    9.57    0.45
  -1   1  11    9.44    0.49
  -1   1  11    9.14    0.46
   0  -1  11    8.22    0.44
   0  -1  11    7.89    0.42
   0  -1  11    7.68    0.43
   0  -1  11    7.80    0.42
   0   1  11    7.82    0.41
   0   1  11    8.32    0.43
   0   1  11    8.00    0.42
   1  -1  11   37.17    1.32
   1  -1  11   37.51    1.32
   1  -1  11   36.37    1.31
   1   1  11   37.31    1.32
   1   1  11   36.20    1.31
   1   1  11   36.92    1.31
   2  -1  11    1.71    0.25
   2  -1  11    2.13    0.24
   2  -1  11    1.52    0.25
   2   1  11    1.39    0.24
   2   1  11    1.73    0.26
   2   1  11    1.69    0.25
   3  -1  11    0.15    0.12
   3  -1  11   -0.01    0.14
   3   1  11   -0.04    0.11
   3   1  11    0.05    0.12
   4  -1  11    7.33    0.33
   4  -1  11    7.89    0.34
   4   1  11    7.30    0.34
   4   1  11    7.44    0.33
  -8  -2  11    0.11    0.09
  -8   2  11    0.17    0.11
  -7  -2  11    1.58    0.18
  -7   2  11    1.44    0.18
  -6  -2  11   60.92    2.00
  -6   2  11   57.17    1.99
  -6   2  11   60.01    2.00
  -5  -2  11   23.08    0.87
  -5   2  11   23.22    0.87
  -5   2  11   22.71    0.88
  -4  -2  11    2.97    0.41
  -4  -2  11    3.28    0.31
  -4  -2  11    3.46    0.29
  -4   2  11    3.12    0.35
  -4   2  11    3.44    0.31
  -3  -2  11   13.62    0.60
  -3  -2  11   14.13    0.60
  -3  -2  11   14.19    0.62
  -3  -2  11   13.19    0.68
  -3   2  11   13.00    0.62
  -3   2  11   13.89    0.60
  -3   2  11   13.98    0.59
  -2  -2  11    4.01    0.43
  -2  -2  11    4.36    0.32
  -2  -2  11    4.14    0.33
  -2  -2  11    4.70    0.34
  -2   2  11    4.16    0.33
  -2   2  11    3.93    0.31
  -2   2  11    4.12    0.35
  -1  -2  11    1.08    0.22
  -1  -2  11    1.43    0.27
  -1  -2  11    0.64    0.16
  -1  -2  11    1.09    0.19
  -1   2  11    1.04    0.26
  -1   2  11    1.12    0.24
  -1   2  11    1.22    0.28
  -1   2  11    0.93    0.24
   0  -2  11    1.88    0.30
   0  -2  11    1.45    0.26
   0  -2  11    1.50    0.25
   0  -2  11    1.44    0.27
   0   2  11    1.01    0.23
   0   2  11    1.62    0.28
   0   2  11    1.30    0.26
   1  -2  11    0.05    0.13
   1  -2  11   -0.05    0.17
   1  -2  11    0.05    0.14
   1  -2  11    0.27    0.17
   1   2  11    0.10    0.14
   1   2  11    0.31    0.14
   1   2  11    0.21    0.15
   2  -2  11    6.24    0.36
   2  -2  11    6.29    0.35
   2  -2  11    5.96    0.37
   2   2  11    6.27    0.36
   2   2  11    5.52    0.34
   2   2  11    6.44    0.37
   3  -2  11    7.24    0.36
   3  -2  11    7.60    0.37
   3   2  11    6.82    0.36
   3   2  11    7.06    0.36
   4  -2  11   12.83    0.48
   4  -2  11   12.68    0.49
   4   2  11   12.07    0.48
   4   2  11   12.32    0.48
  -7  -3  11    3.73    0.23
  -7   3  11    3.36    0.23
  -6  -3  11    0.76    0.15
  -6   3  11    0.94    0.21
  -6   3  11    0.78    0.18
  -5  -3  11    9.59    0.45
  -5   3  11    8.86    0.47
  -5   3  11    9.63    0.45
  -4  -3  11   16.42    0.74
  -4  -3  11   17.27    0.69
  -4  -3  11   17.37    0.72
  -4   3  11   18.38    0.72
  -4   3  11   17.21    0.70
  -3  -3  11    0.23    0.18
  -3  -3  11    0.15    0.14
  -3  -3  11   -0.06    0.15
  -3   3  11    0.00    0.21
  -3   3  11    0.18    0.16
  -3   3  11    0.28    0.16
  -2  -3  11    2.44    0.29
  -2  -3  11    2.93    0.29
  -2  -3  11    2.76    0.33
  -2  -3  11    2.50    0.29
  -2   3  11    2.83    0.29
  -2   3  11    2.73    0.31
  -2   3  11    2.64    0.30
  -1  -3  11   11.74    0.57
  -1  -3  11   12.36    0.55
  -1  -3  11   12.42    0.56
  -1  -3  11   11.93    0.54
  -1   3  11   11.86    0.54
  -1   3  11   11.65    0.55
  -1   3  11   12.52    0.54
   0  -3  11   12.19    0.56
   0  -3  11   12.43    0.57
   0  -3  11   11.65    0.54
   0  -3  11   12.53    0.54
   0   3  11   11.87    0.54
   0   3  11   11.75    0.54
   0   3  11   12.27    0.55
   1  -3  11    1.92    0.29
   1  -3  11    2.17    0.27
   1  -3  11    2.15    0.26
   1  -3  11    2.20    0.31
   1   3  11    2.13    0.28
   1   3  11    2.16    0.26
   1   3  11    1.80    0.26
   2  -3  11    0.14    0.13
   2  -3  11    0.02    0.16
   2  -3  11    0.09    0.14
   2   3  11    0.09    0.14
   2   3  11    0.32    0.14
   2   3  11    0.09    0.12
   3  -3  11    3.05    0.28
   3  -3  11    3.69    0.27
   3  -3  11    2.94    0.24
   3   3  11    3.38    0.25
   3   3  11    3.51    0.25
   4  -3  11    0.08    0.10
  -4  -3 -11    0.19    0.17
   4  -3  11    0.04    0.11
   4   3  11   -0.07    0.10
   4   3  11   -0.03    0.10
  -7  -4  11    5.90    0.29
  -7   4  11    5.95    0.29
  -7   4  11    5.18    0.36
  -6  -4  11    9.54    0.42
  -6   4  11    9.28    0.45
  -6   4  11    9.10    0.42
  -5  -4  11    0.02    0.14
   5  -4 -11   -0.02    0.19
  -5   4  11    0.26    0.16
  -5   4  11    0.27    0.17
  -4  -4  11    3.30    0.31
  -4  -4  11    3.49    0.32
  -4  -4  11    4.11    0.39
  -4   4  11    3.82    0.32
  -4   4  11    3.98    0.34
  -3  -4  11   15.15    0.65
  -3  -4  11   15.89    0.63
  -3  -4  11   14.41    0.64
  -3   4  11   15.20    0.67
  -3   4  11   14.34    0.63
  -3   4  11   15.35    0.63
  -2  -4  11    5.30    0.35
  -2  -4  11    5.57    0.37
  -2  -4  11    5.30    0.36
  -2   4  11    5.25    0.35
  -2   4  11    5.36    0.37
  -2   4  11    5.60    0.37
  -1  -4  11    6.28    0.38
  -1  -4  11    5.76    0.37
  -1  -4  11    6.68    0.38
  -1  -4  11    6.28    0.46
  -1   4  11    6.51    0.38
  -1   4  11    6.41    0.39
  -1   4  11    6.95    0.38
   0  -4  11   16.26    0.66
   0  -4  11   15.63    0.68
   0  -4  11   15.86    0.67
   0  -4  11   15.84    0.66
   0   4  11   16.62    0.67
   0   4  11   15.36    0.66
   0   4  11   15.65    0.66
   1  -4  11    3.06    0.35
   1  -4  11    3.77    0.30
   1  -4  11    3.53    0.30
   1  -4  11    3.92    0.36
   1   4  11    4.05    0.32
   1   4  11    3.56    0.29
   1   4  11    3.73    0.30
   2  -4  11    3.88    0.29
   2   4  11    4.37    0.30
   2   4  11    4.17    0.29
   2   4  11    4.28    0.31
   3  -4  11    2.61    0.24
   3  -4  11    2.75    0.26
   3  -4  11    2.09    0.26
   3   4  11    3.32    0.25
   3   4  11    2.96    0.23
   4  -4  11    2.23    0.18
   4  -4  11    2.07    0.20
  -4  -4 -11    1.82    0.26
   4   4  11    1.85    0.18
   4   4  11    1.79    0.18
  -7  -5  11    2.60    0.20
  -7   5  11    2.24    0.21
  -7   5  11    2.38    0.27
  -6  -5  11   10.16    0.45
  -6   5  11   10.38    0.46
  -6   5  11   10.26    0.45
  -5  -5  11   48.42    1.66
  -5  -5  11   47.11    1.70
  -5   5  11   48.38    1.65
  -5   5  11   49.31    1.66
  -4  -5  11   12.12    0.54
  -4  -5  11   10.91    0.55
  -4  -5  11   11.47    0.51
  -4   5  11   11.38    0.52
  -4   5  11   10.71    0.52
  -3  -5  11    0.43    0.15
  -3  -5  11    0.28    0.17
  -3  -5  11    0.27    0.15
  -3   5  11    0.25    0.15
  -3   5  11    0.05    0.15
  -3   5  11    0.11    0.24
  -2  -5  11   21.28    0.85
  -2  -5  11   21.96    0.84
  -2  -5  11   22.22    0.86
  -2   5  11   21.81    0.84
  -2   5  11   22.27    0.85
  -2   5  11   22.73    0.85
  -1  -5  11   18.08    0.74
  -1  -5  11   19.18    0.75
  -1  -5  11   18.89    0.76
  -1   5  11   18.87    0.75
  -1   5  11   18.72    0.74
  -1   5  11   18.60    0.74
   0  -5  11  194.44    6.27
   0  -5  11  190.54    6.25
   0  -5  11  197.02    6.26
   0  -5  11  187.10    6.24
   0   5  11  188.92    6.25
   0   5  11  188.54    6.26
   0   5  11  197.72    6.25
   1  -5  11    0.37    0.15
   1  -5  11    0.13    0.18
   1  -5  11    0.10    0.14
  -1  -5 -11   -0.02    0.17
   1  -5  11    0.28    0.20
   1   5  11    0.30    0.15
   1   5  11    0.12    0.14
   1   5  11    0.05    0.12
   2  -5  11    0.55    0.19
   2  -5  11    0.61    0.15
   2   5  11    0.44    0.14
   2   5  11    0.18    0.15
   3  -5  11    3.57    0.30
   3  -5  11    3.37    0.27
   3  -5  11    3.16    0.25
   3   5  11    3.70    0.25
   3   5  11    3.62    0.25
   4  -5  11   20.06    0.71
  -4  -5 -11   18.21    0.69
   4  -5  11   19.10    0.69
   4   5  11   20.01    0.70
  -7  -6  11   17.06    0.61
  -7   6  11   16.11    0.62
  -7   6  11   16.62    0.61
  -6  -6  11    0.36    0.13
  -6   6  11    0.41    0.15
  -6   6  11    0.54    0.15
  -5  -6  11   11.05    0.49
   5  -6 -11   10.31    0.50
  -5   6  11   11.30    0.50
  -5   6  11   10.90    0.50
  -4  -6  11   15.64    0.67
  -4  -6  11   15.00    0.64
  -4  -6  11   15.27    0.66
  -4   6  11   15.65    0.65
  -4   6  11   15.91    0.65
  -3  -6  11    4.10    0.32
  -3  -6  11    3.64    0.32
  -3  -6  11    3.82    0.32
  -3   6  11    3.46    0.31
  -2  -6  11   10.27    0.50
  -2  -6  11   10.16    0.50
  -2  -6  11   10.41    0.49
  -2   6  11   10.48    0.49
  -2   6  11   10.22    0.49
  -2   6  11   10.67    0.52
  -1  -6  11   44.39    1.55
  -1  -6  11   44.73    1.56
  -1  -6  11   44.19    1.53
  -1   6  11   43.32    1.54
  -1   6  11   44.39    1.54
  -1   6  11   43.55    1.54
   0  -6  11   10.74    0.52
   0  -6  11   10.80    0.51
   0  -6  11   11.58    0.52
   0   6  11   11.66    0.52
   0   6  11   10.94    0.51
   0   6  11   10.89    0.52
   1  -6  11   11.62    0.58
   1  -6  11   12.51    0.54
  -1  -6 -11   11.78    0.55
   1  -6  11   12.01    0.56
   1  -6  11   12.12    0.54
   1   6  11   12.33    0.54
   1   6  11   12.29    0.54
   1   6  11   12.84    0.54
   2  -6  11    3.21    0.27
   2  -6  11    3.09    0.27
   2  -6  11    3.55    0.33
   2   6  11    3.95    0.40
   3  -6  11    0.19    0.13
   3  -6  11    0.05    0.14
   3  -6  11    0.34    0.17
   3   6  11   -0.10    0.12
   3   6  11    0.16    0.11
   4  -6  11    5.11    0.31
   4  -6  11    5.60    0.27
  -4  -6 -11    5.39    0.30
   4   6  11    5.54    0.27
  -7  -7  11    4.76    0.26
  -7   7  11    4.31    0.28
  -7   7  11    4.37    0.27
  -6  -7  11    1.11    0.21
  -6   7  11    0.98    0.22
  -6   7  11    0.88    0.22
  -5  -7  11   23.16    0.87
   5  -7 -11   22.44    0.85
  -4  -7  11    2.89    0.31
   4  -7 -11    3.63    0.30
  -4  -7  11    3.63    0.33
  -4  -7  11    2.95    0.35
  -4   7  11    3.06    0.29
  -4   7  11    3.20    0.31
  -3  -7  11    1.45    0.28
  -3  -7  11    0.99    0.19
  -3  -7  11    1.43    0.28
  -3   7  11    0.73    0.16
  -3   7  11    1.54    0.28
  -2  -7  11    2.19    0.27
  -2  -7  11    2.70    0.30
  -2  -7  11    2.49    0.28
  -2   7  11    2.15    0.28
  -2   7  11    2.05    0.29
  -2   7  11    2.05    0.32
  -1  -7  11   20.00    0.79
  -1  -7  11   19.92    0.77
  -1  -7  11   19.42    0.76
  -1   7  11   19.63    0.77
  -1   7  11   18.72    0.76
  -1   7  11   19.75    0.77
   0  -7  11  126.94    4.15
   0  -7  11  126.63    4.17
   0  -7  11  125.22    4.16
   0   7  11  125.35    4.16
   0   7  11  129.76    4.15
   0   7  11  124.45    4.17
   1  -7  11    9.21    0.44
  -1  -7 -11    8.71    0.45
   1  -7  11    8.92    0.44
   1  -7  11    8.37    0.48
   1   7  11    9.58    0.45
   1   7  11    9.16    0.45
   1   7  11    9.00    0.45
   2  -7  11   17.57    0.70
   2  -7  11   17.20    0.67
   2  -7  11   17.34    0.68
   2   7  11   16.49    0.68
   2   7  11   17.41    0.67
   3  -7  11   25.79    0.96
   3  -7  11   27.59    0.96
   3   7  11   28.38    0.96
   3   7  11   26.89    0.97
  -4  -7 -11    6.75    0.32
   4  -7  11    6.08    0.31
   4   7  11    6.79    0.30
   4   7  11    6.75    0.30
  -7  -8  11    4.50    0.25
  -7   8  11    4.70    0.31
  -7   8  11    4.58    0.27
  -6  -8  11   12.03    0.49
  -6   8  11   11.49    0.49
  -6   8  11   11.84    0.49
   5  -8 -11    3.76    0.31
  -5  -8  11    3.70    0.29
  -5  -8  11    3.67    0.35
  -5   8  11    3.57    0.31
  -5   8  11    3.41    0.30
   4  -8 -11   40.03    1.42
  -4  -8  11   40.47    1.44
  -4  -8  11   40.27    1.42
  -4  -8  11   41.05    1.43
  -4   8  11   40.66    1.43
  -4   8  11   41.41    1.42
  -3  -8  11   12.32    0.54
  -3  -8  11   11.52    0.54
   3  -8 -11   12.28    0.53
  -3  -8  11   12.23    0.57
  -3   8  11   12.12    0.55
  -3   8  11   11.97    0.54
  -2  -8  11   16.76    0.69
  -2  -8  11   15.89    0.66
  -2  -8  11   16.24    0.66
  -2   8  11   15.73    0.67
  -2   8  11   15.93    0.67
  -2   8  11   15.99    0.66
  -1  -8  11    7.80    0.43
  -1  -8  11    7.76    0.41
  -1  -8  11    7.63    0.42
  -1   8  11    7.74    0.41
  -1   8  11    7.59    0.43
  -1   8  11    7.33    0.41
   0  -8 -11    1.68    0.26
   0  -8  11    1.72    0.27
   0  -8  11    1.93    0.28
   0  -8  11    2.10    0.28
   0   8  11    2.13    0.29
   0   8  11    1.97    0.26
   0   8  11    1.89    0.27
   1  -8  11    7.19    0.44
   1  -8  11    7.91    0.40
  -1  -8 -11    7.17    0.41
   1  -8  11    8.10    0.40
   1   8  11    7.68    0.41
   1   8  11    7.58    0.41
   2  -8  11   13.34    0.56
   2  -8  11   14.30    0.57
   2   8  11   13.96    0.56
   2   8  11   13.69    0.57
   3  -8  11    0.77    0.15
   3   8  11    0.92    0.18
   3   8  11    1.30    0.21
  -4  -8 -11    0.87    0.23
   4   8  11    0.63    0.15
   4   8  11    0.65    0.12
  -7  -9  11    8.43    0.37
  -7   9  11    8.90    0.36
  -6  -9  11   14.00    0.53
  -6   9  11   13.38    0.54
  -6   9  11   13.06    0.54
   5  -9 -11    4.34    0.32
  -5  -9  11    4.06    0.34
  -5  -9  11    4.15    0.31
  -5   9  11    3.74    0.32
  -5   9  11    4.06    0.30
  -4  -9  11    8.17    0.44
  -4  -9  11    8.21    0.44
  -4  -9  11    8.33    0.42
   4  -9 -11    8.18    0.41
  -4   9  11    7.37    0.43
  -4   9  11    8.01    0.41
   3  -9 -11    0.74    0.15
  -3  -9  11    0.41    0.16
  -3  -9  11    0.80    0.18
  -3  -9  11    1.05    0.27
  -3   9  11    0.72    0.20
  -3   9  11    0.51    0.15
   2  -9 -11    8.31    0.42
  -2  -9  11    8.48    0.45
  -2  -9  11    8.58    0.43
  -2  -9  11    7.87    0.43
  -2   9  11    8.34    0.45
  -2   9  11    8.35    0.43
  -1  -9  11  114.57    3.81
   1  -9 -11  114.38    3.81
  -1  -9  11  114.43    3.83
  -1  -9  11  116.83    3.80
  -1   9  11  118.42    3.80
  -1   9  11  116.11    3.80
  -1   9  11  113.78    3.81
   0  -9 -11   12.12    0.53
   0  -9  11   12.31    0.54
   0  -9  11   11.38    0.54
   0  -9  11   11.67    0.55
   0   9  11   12.53    0.54
   0   9  11   12.23    0.54
   1  -9  11    0.07    0.13
  -1  -9 -11    0.05    0.20
   1  -9  11    0.17    0.18
   1   9  11    0.01    0.13
   1   9  11    0.29    0.17
   2  -9  11   -0.04    0.13
   2  -9  11    0.19    0.15
   2   9  11    0.16    0.15
   2   9  11    0.13    0.12
  -3  -9 -11    6.15    0.29
   3  -9  11    6.40    0.33
   3   9  11    6.09    0.33
   3   9  11    6.04    0.31
   4   9  11    8.71    0.36
  -7  10  11    8.53    0.35
  -6 -10  11   23.05    0.84
  -6  10  11   24.85    0.86
  -5 -10  11    0.78    0.19
   5 -10 -11    0.71    0.16
  -5 -10  11    0.55    0.16
  -5 -10  11    0.45    0.21
  -5  10  11    0.71    0.20
  -5  10  11    0.50    0.13
  -4 -10  11    2.72    0.30
  -4 -10  11    2.73    0.30
  -4 -10  11    1.93    0.44
   4 -10 -11    3.23    0.27
  -4  10  11    2.65    0.27
  -3 -10  11    3.00    0.31
  -3 -10  11    3.48    0.32
   3 -10 -11    2.51    0.27
  -3 -10  11    3.98    0.31
  -3  10  11    2.86    0.34
  -3  10  11    3.56    0.29
  -2 -10  11    1.89    0.29
  -2 -10  11    1.55    0.27
  -2 -10  11    1.90    0.28
   2 -10 -11    2.26    0.25
  -2  10  11    1.87    0.33
  -2  10  11    1.55    0.26
  -1 -10  11    5.80    0.37
  -1 -10  11    5.61    0.36
  -1 -10  11    5.79    0.39
   1 -10 -11    6.19    0.35
  -1  10  11    5.74    0.35
  -1  10  11    6.50    0.41
   0 -10  11   10.18    0.51
   0 -10  11   11.29    0.51
   0 -10  11   11.19    0.50
   0 -10 -11   11.18    0.49
   0  10  11   10.27    0.51
   0  10  11   10.75    0.50
   1 -10  11    1.04    0.26
  -1 -10 -11    1.19    0.25
   1 -10  11    1.51    0.27
   1  10  11    1.07    0.27
   1  10  11    1.36    0.23
   2 -10  11   14.79    0.59
   2 -10  11   14.50    0.59
   2  10  11   14.92    0.59
   2  10  11   14.84    0.60
   3 -10  11    1.13    0.26
  -3 -10 -11    1.84    0.17
   3  10  11    1.61    0.20
   3  10  11    1.80    0.28
  -7  11  11    0.28    0.10
  -6  11  11   11.56    0.47
  -5 -11  11    0.70    0.19
  -5 -11  11    0.92    0.21
  -5 -11  11    0.74    0.17
   5 -11 -11    0.68    0.17
  -5  11  11    0.54    0.13
   4 -11 -11    2.25    0.33
  -4 -11  11    2.84    0.30
  -4  11  11    2.63    0.26
  -4  11  11    2.06    0.35
  -3 -11  11    9.54    0.48
  -3 -11  11   10.81    0.50
  -3 -11  11    9.93    0.48
   3 -11 -11   10.23    0.47
  -3  11  11    9.67    0.51
  -3  11  11    9.93    0.48
  -2 -11  11   10.11    0.49
  -2 -11  11   10.37    0.51
  -2 -11  11   10.50    0.48
   2 -11 -11    9.84    0.46
  -2  11  11   10.36    0.49
  -2  11  11    9.45    0.52
   1 -11 -11  113.79    3.76
  -1 -11  11  114.71    3.77
  -1 -11  11  111.44    3.78
  -1 -11  11  116.45    3.75
  -1  11  11  117.99    3.78
  -1  11  11  111.05    3.75
   0 -11  11   13.43    0.56
   0 -11  11   13.59    0.58
   0 -11  11   12.99    0.67
   0 -11 -11   13.36    0.55
   0  11  11   12.60    0.59
   0  11  11   12.85    0.56
   1 -11  11    2.86    0.29
   1 -11  11    2.78    0.26
  -1 -11 -11    2.81    0.27
   1 -11  11    2.92    0.31
   1  11  11    2.58    0.33
   1  11  11    2.40    0.25
   2 -11  11    0.15    0.14
   2 -11  11    0.51    0.18
   2  11  11    0.23    0.12
   2  11  11    0.26    0.20
  -3 -11 -11    1.71    0.17
   3  11  11    1.85    0.20
  -7  12  11    4.10    0.22
  -6  12  11    0.87    0.17
   5 -12 -11    8.73    0.42
  -5 -12  11    8.81    0.43
  -5 -12  11    9.21    0.46
  -5 -12  11    9.01    0.45
  -5  12  11    9.15    0.40
   4 -12 -11   16.51    0.64
  -4 -12  11   16.15    0.65
  -4 -12  11   16.12    0.66
  -4 -12  11   15.85    0.65
  -4  12  11   16.47    0.64
  -3 -12  11   11.80    0.55
  -3 -12  11   13.57    0.57
   3 -12 -11   13.53    0.55
  -3 -12  11   11.39    0.56
  -3  12  11   12.86    0.55
  -2 -12  11    0.47    0.17
  -2 -12  11    0.70    0.16
   2 -12 -11    0.98    0.21
  -2 -12  11    0.54    0.22
  -2  12  11    0.96    0.23
  -1 -12  11   60.57    2.08
   1 -12 -11   60.35    2.07
  -1 -12  11   60.96    2.09
  -1  12  11   63.13    2.08
   0 -12  11    6.89    0.37
   0 -12  11    6.24    0.41
   0 -12 -11    6.58    0.35
   0 -12  11    5.75    0.40
   0  12  11    6.53    0.36
   1 -12  11   28.17    1.04
   1 -12  11   29.25    1.04
   1 -12  11   29.02    1.05
  -1 -12 -11   28.74    1.03
   1  12  11   29.55    1.05
  -2 -12 -11   27.82    0.96
   2 -12  11   26.24    0.95
   2  12  11   27.09    0.96
  -3 -12 -11    7.61    0.32
   3  12  11    7.89    0.35
  -6  13  11    5.31    0.26
   5 -13 -11    5.85    0.34
  -5 -13  11    5.99    0.35
  -5 -13  11    5.99    0.38
  -5  13  11    5.73    0.31
  -4 -13  11    5.10    0.31
   4 -13 -11    5.01    0.30
  -4 -13  11    5.07    0.33
  -4  13  11    5.35    0.31
  -3 -13  11   11.33    0.58
   3 -13 -11   10.92    0.58
  -3  13  11   11.72    0.51
   2 -13 -11   29.49    1.07
  -2 -13  11   30.22    1.10
  -2 -13  11   29.40    1.08
  -2  13  11   30.27    1.08
   1 -13 -11    0.45    0.12
  -1 -13  11    0.37    0.14
  -1 -13  11    0.53    0.15
  -1  13  11    0.69    0.16
   0 -13 -11    6.21    0.35
   0 -13  11    6.46    0.35
   0 -13  11    7.19    0.38
   0  13  11    7.08    0.43
  -1 -13 -11    3.40    0.28
   1 -13  11    3.39    0.26
   1 -13  11    3.48    0.30
   1  13  11    3.26    0.26
   2 -13  11    0.80    0.20
  -2 -13 -11    1.00    0.16
   2  13  11    0.92    0.20
  -3 -13 -11    4.72    0.24
   3  13  11    5.19    0.29
  -6  14  11    2.97    0.20
  -5 -14  11    9.25    0.42
  -5  14  11    8.75    0.39
  -4 -14  11   15.20    0.61
   4 -14 -11   14.94    0.59
  -4 -14  11   15.07    0.60
  -4  14  11   15.38    0.60
  -3 -14  11    1.32    0.24
  -3 -14  11    1.88    0.23
   3 -14 -11    1.75    0.21
  -3  14  11    1.64    0.23
   1 -14 -11   -0.05    0.14
  -1  14  11   -0.36    0.14
   0 -14  11    3.13    0.26
   0 -14  11    2.74    0.27
   0 -14 -11    2.80    0.24
   0 -14 -11    2.92    0.24
   0  14  11    2.94    0.25
   1 -14  11   13.94    0.57
  -1 -14 -11   13.55    0.56
   1 -14  11   14.05    0.56
  -1 -14 -11   14.44    0.55
   1  14  11   14.89    0.57
  -2 -14 -11    0.24    0.09
   2  14  11    0.23    0.12
  -3 -14 -11    5.92    0.26
  -6  15  11    0.04    0.09
   5 -15 -11    1.08    0.28
  -5  15  11    0.91    0.16
  -4 -15  11    0.21    0.12
   4 -15 -11    0.23    0.12
  -4 -15  11    0.09    0.13
  -4  15  11    0.07    0.11
  -3 -15  11    2.79    0.24
   3 -15 -11    2.76    0.23
  -3 -15  11    2.45    0.25
  -3  15  11    2.70    0.24
   2 -15 -11    2.45    0.22
  -2 -15  11    1.91    0.23
  -2 -15  11    2.24    0.25
  -2  15  11    2.06    0.23
  -1 -15  11    4.42    0.29
  -1 -15  11    5.06    0.31
   1 -15 -11    4.05    0.31
   1 -15 -11    4.68    0.28
  -1  15  11    4.92    0.30
   0 -15 -11    2.33    0.23
   0 -15 -11    2.70    0.23
   0 -15  11    2.67    0.23
   0 -15  11    1.85    0.25
   0  15  11    2.87    0.24
   1 -15  11    2.55    0.23
  -1 -15 -11    2.51    0.21
   1 -15  11    2.31    0.26
  -1 -15 -11    2.56    0.26
   1  15  11    2.48    0.23
  -2 -15 -11    2.11    0.17
   2  15  11    2.13    0.23
  -3 -15 -11    1.74    0.15
  -6  16  11    3.94    0.21
  -5 -16  11   17.21    0.65
  -5  16  11   17.95    0.64
   4 -16 -11   20.15    0.73
  -4 -16  11   19.51    0.74
  -4 -16  11   20.66    0.74
  -4  16  11   19.62    0.73
   3 -16 -11    5.96    0.31
  -3 -16  11    5.76    0.34
  -3 -16  11    6.27    0.32
  -3  16  11    5.99    0.32
  -2 -16  11   38.97    1.36
  -2 -16  11   38.69    1.34
   2 -16 -11   38.46    1.34
  -2  16  11   38.91    1.34
   1 -16 -11    0.20    0.11
  -1 -16  11    0.31    0.12
   1 -16 -11   -0.07    0.15
  -1 -16  11   -0.01    0.11
  -1  16  11    0.06    0.13
   0 -16 -11    8.81    0.40
   0 -16  11    8.64    0.41
   0 -16  11    8.93    0.40
   0 -16 -11    8.91    0.39
   0  16  11    9.38    0.40
  -1 -16 -11    1.64    0.18
   1 -16  11    1.89    0.22
   1 -16  11    1.24    0.26
   1  16  11    1.32    0.21
  -2 -16 -11    3.48    0.19
   2  16  11    3.28    0.29
  -5 -17  11    6.18    0.33
   4 -17 -11    8.19    0.36
  -4 -17  11    8.59    0.39
  -4 -17  11    8.66    0.37
  -4  17  11    8.35    0.37
  -3 -17  11   17.94    0.70
  -3 -17  11   18.37    0.68
   3 -17 -11   18.16    0.68
  -3  17  11   18.82    0.69
   2 -17 -11    0.48    0.11
  -2 -17  11    0.25    0.12
  -2 -17  11    0.29    0.11
  -2  17  11    0.35    0.13
   1 -17 -11    0.67    0.12
  -1 -17  11    0.95    0.20
   1 -17 -11    0.51    0.16
  -1 -17  11    0.74    0.18
  -1  17  11    0.62    0.14
   0 -17 -11    0.17    0.11
   0 -17  11   -0.03    0.11
   0 -17  11    0.02    0.11
   0 -17 -11   -0.01    0.11
   0  17  11   -0.04    0.13
   1 -17  11    2.10    0.23
  -1 -17 -11    3.14    0.33
  -1 -17 -11    1.98    0.17
   1 -17  11    1.99    0.26
   1  17  11    1.21    0.23
  -2 -17 -11    0.09    0.08
  -5  18  11    3.58    0.21
  -4 -18  11    2.82    0.21
  -4 -18  11    2.54    0.33
  -4  18  11    2.81    0.20
   3 -18 -11    6.11    0.30
  -3 -18  11    6.15    0.30
  -3 -18  11    6.23    0.32
  -3  18  11    6.48    0.31
  -2 -18  11    0.67    0.17
  -2 -18  11    0.43    0.11
   2 -18 -11    0.53    0.11
  -2  18  11    0.37    0.13
  -1 -18  11    1.14    0.19
  -1 -18  11    1.01    0.18
   1 -18 -11    1.58    0.17
  -1  18  11    0.91    0.20
   0 -18  11    7.05    0.34
   0 -18 -11    6.94    0.32
   0 -18  11    6.99    0.33
   0 -18 -11    6.76    0.32
   0  18  11    7.37    0.34
  -1 -18 -11    0.11    0.14
   1 -18  11   -0.25    0.19
   1  18  11   -0.04    0.25
  -2 -18 -11    3.68    0.19
  -4 -19  11    0.64    0.17
   4 -19 -11    0.90    0.18
  -4 -19  11    0.45    0.13
  -4  19  11    0.27    0.11
   3 -19 -11    3.68    0.22
  -3 -19  11    3.47    0.23
  -3 -19  11    3.65    0.22
  -3  19  11    3.96    0.24
   2 -19 -11    1.19    0.16
  -2 -19  11    1.03    0.17
  -2 -19  11    1.15    0.17
  -2  19  11    0.89    0.21
   1 -19 -11    1.80    0.17
  -1 -19  11    2.12    0.19
  -1 -19  11    1.93    0.19
  -1  19  11    2.23    0.27
   0 -19  11   -0.09    0.11
   0 -19  11    0.18    0.16
   0 -19 -11    0.32    0.12
   0  19  11   -0.23    0.17
  -1 -19 -11    0.67    0.15
  -4 -20  11   16.62    0.58
   4 -20 -11   15.94    0.63
  -4  20  11   15.92    0.58
  -3 -20  11    1.41    0.17
  -3 -20  11    1.67    0.22
   3 -20 -11    1.75    0.24
  -3  20  11    1.88    0.21
  -2 -20  11    1.38    0.17
  -2 -20  11    1.29    0.16
   2 -20 -11    1.32    0.15
  -2  20  11    1.20    0.22
   1 -20 -11    0.25    0.09
  -1 -20  11    0.28    0.10
  -1 -20  11    0.31    0.10
  -1  20  11    0.15    0.18
   0 -20  11    0.17    0.11
   0 -20 -11   -0.11    0.10
   0 -20  11    0.03    0.11
   3 -21 -11    0.30    0.09
  -3 -21  11    0.35    0.09
  -3 -21  11    0.35    0.10
  -2 -21  11    2.77    0.19
  -2 -21  11    2.86    0.19
   2 -21 -11    3.06    0.18
  -1 -21  11    1.44    0.17
   1 -21 -11    1.50    0.15
  -1 -21  11    1.40    0.16
   0 -21  11    0.13    0.12
   2 -22 -11    1.56    0.14
  -2 -22  11    1.39    0.15
  -2 -22  11    1.30    0.15
  -1 -22  11    0.10    0.09
   1 -22 -11    0.11    0.09
  -7   0  12    1.22    0.17
  -6   0  12    1.96    0.21
  -4   0  12   19.89    0.74
  -4   0  12   18.13    0.77
  -3   0  12    8.74    0.43
  -3   0  12    7.99    0.44
  -3   0  12    8.09    0.42
  -3   0  12    7.60    0.46
  -2   0  12   18.36    0.74
  -2   0  12   18.00    0.72
  -2   0  12   18.36    0.75
  -2   0  12   18.25    0.72
  -1   0  12    2.90    0.32
  -1   0  12    2.56    0.28
  -1   0  12    2.62    0.27
  -1   0  12    3.38    0.29
   0   0  12   21.04    0.80
   0   0  12   20.91    0.80
   0   0  12   20.29    0.81
   1   0  12   14.23    0.60
   1   0  12   14.75    0.60
   1   0  12   14.55    0.63
   2   0  12   15.80    0.62
   2   0  12   15.10    0.60
   2   0  12   15.19    0.60
   3   0  12    0.69    0.16
   3   0  12    0.29    0.12
   4   0  12    4.85    0.23
   4   0  12    4.60    0.24
  -7  -1  12    0.14    0.10
  -7   1  12    0.06    0.10
  -6  -1  12   44.46    1.50
  -6   1  12   43.62    1.50
  -5  -1  12    5.55    0.43
  -5   1  12    4.86    0.41
  -5   1  12    4.38    0.37
  -4  -1  12    6.74    0.38
  -4   1  12    6.61    0.42
  -4   1  12    6.95    0.38
  -3  -1  12    3.53    0.31
  -3  -1  12    3.79    0.40
  -3  -1  12    3.95    0.30
  -3  -1  12    3.27    0.33
  -3   1  12    4.09    0.36
  -3   1  12    3.62    0.30
  -3   1  12    3.84    0.35
  -2  -1  12  121.77    3.97
  -2  -1  12  118.36    3.94
  -2  -1  12  120.40    3.95
  -2  -1  12  119.20    3.95
  -2   1  12  120.07    3.95
  -2   1  12  119.92    3.95
  -2   1  12  119.31    3.95
  -1  -1  12   31.85    1.15
  -1  -1  12   31.34    1.14
  -1  -1  12   31.10    1.16
  -1  -1  12   31.09    1.15
  -1   1  12   31.50    1.15
  -1   1  12   33.14    1.15
  -1   1  12   31.59    1.14
   0  -1  12    0.12    0.16
   0  -1  12    0.38    0.14
   0  -1  12    0.25    0.13
   0   1  12    0.30    0.15
   0   1  12    0.08    0.15
   0   1  12    0.20    0.12
   1  -1  12   15.53    0.64
   1  -1  12   16.10    0.64
   1   1  12   16.60    0.65
   1   1  12   16.02    0.66
   1   1  12   15.79    0.64
   2  -1  12    9.37    0.43
   2  -1  12   10.12    0.45
   2  -1  12    9.87    0.43
   2   1  12    9.71    0.44
   2   1  12    9.51    0.43
   2   1  12    9.53    0.43
   3  -1  12   17.77    0.65
   3  -1  12   17.46    0.65
   3   1  12   17.34    0.65
   3   1  12   17.65    0.65
   4  -1  12    0.39    0.10
   4   1  12    0.36    0.10
  -7  -2  12   15.52    0.57
  -7   2  12   15.50    0.57
  -6  -2  12   10.63    0.45
  -6   2  12   10.58    0.45
  -5  -2  12   16.14    0.62
  -5   2  12   14.62    0.63
  -5   2  12   14.87    0.62
  -4  -2  12    0.33    0.15
  -4  -2  12    0.30    0.22
  -4  -2  12    0.53    0.16
  -4   2  12    0.07    0.14
  -4   2  12    0.37    0.18
  -3  -2  12    4.90    0.33
  -3  -2  12    5.01    0.35
  -3  -2  12    4.95    0.35
  -3   2  12    5.12    0.33
  -3   2  12    4.70    0.38
  -3   2  12    4.92    0.37
  -2  -2  12    8.99    0.54
  -2  -2  12    9.76    0.48
  -2  -2  12   10.38    0.51
  -2  -2  12   11.41    0.50
  -2   2  12   10.83    0.50
  -2   2  12   10.35    0.49
  -2   2  12   10.64    0.50
  -1  -2  12   10.48    0.49
  -1  -2  12   10.24    0.52
  -1  -2  12   10.83    0.51
  -1  -2  12   11.44    0.49
  -1   2  12   10.16    0.49
  -1   2  12   10.44    0.51
  -1   2  12   10.95    0.50
   0  -2  12   23.06    0.87
   0  -2  12   22.67    0.87
   0  -2  12   22.93    0.87
   0  -2  12   23.07    0.87
   0   2  12   22.11    0.86
   0   2  12   24.06    0.87
   0   2  12   22.35    0.87
   1  -2  12   -0.05    0.11
   1  -2  12   -0.19    0.12
   1   2  12    0.03    0.12
   1   2  12    0.02    0.13
   1   2  12    0.03    0.13
   2  -2  12    0.25    0.12
   2  -2  12    0.10    0.12
   2  -2  12    0.36    0.14
   2   2  12    0.41    0.12
   2   2  12    0.16    0.12
   2   2  12    0.26    0.12
   3  -2  12    8.79    0.38
   3  -2  12    9.06    0.39
   3   2  12    9.26    0.39
   3   2  12    8.33    0.38
  -7  -3  12   34.02    1.15
  -6  -3  12   17.08    0.65
  -6   3  12   16.69    0.66
  -6   3  12   17.56    0.65
  -5  -3  12    0.34    0.14
  -5   3  12    0.39    0.17
  -5   3  12    0.28    0.14
  -4  -3  12    0.40    0.15
  -4  -3  12    0.17    0.14
  -4  -3  12    0.28    0.19
  -4   3  12    0.41    0.16
  -4   3  12    0.07    0.17
  -3  -3  12    5.84    0.36
  -3  -3  12    5.48    0.35
  -3  -3  12    6.10    0.38
  -3   3  12    5.67    0.36
  -3   3  12    6.13    0.38
  -3   3  12    6.25    0.40
  -2  -3  12   20.14    0.78
  -2  -3  12   20.22    0.78
  -2  -3  12   20.28    0.80
  -2   3  12   19.87    0.78
  -2   3  12   20.08    0.79
  -2   3  12   20.37    0.79
  -1  -3  12   32.37    1.17
  -1  -3  12   31.60    1.18
  -1  -3  12   32.06    1.18
  -1  -3  12   32.77    1.17
  -1   3  12   33.38    1.17
  -1   3  12   32.39    1.17
  -1   3  12   32.53    1.17
   0  -3  12    0.50    0.14
   0  -3  12    1.07    0.24
   0  -3  12    0.65    0.16
   0  -3  12    0.65    0.20
   0   3  12    0.59    0.15
   0   3  12    1.22    0.25
   0   3  12    0.62    0.14
   1  -3  12    0.30    0.14
   1  -3  12    0.34    0.14
   1  -3  12    0.45    0.17
   1   3  12    0.21    0.13
   1   3  12    0.23    0.12
   1   3  12    0.21    0.13
   2  -3  12    3.62    0.26
   2  -3  12    3.52    0.29
   2  -3  12    3.17    0.25
   2   3  12    3.36    0.25
   2   3  12    3.74    0.25
   3  -3  12    3.08    0.22
   3  -3  12    3.76    0.25
   3   3  12    3.08    0.22
   3   3  12    3.21    0.23
  -7   4  12    1.00    0.17
  -6  -4  12    2.34    0.22
  -6   4  12    2.16    0.27
  -6   4  12    2.24    0.22
   5  -4 -12    1.80    0.26
  -5  -4  12    1.84    0.23
  -5   4  12    1.73    0.27
  -5   4  12    1.24    0.24
  -4  -4  12   19.35    0.74
  -4  -4  12   18.40    0.76
  -4  -4  12   19.44    0.76
  -4   4  12   19.03    0.74
  -4   4  12   18.88    0.74
  -3  -4  12   42.45    1.46
  -3  -4  12   42.06    1.47
  -3  -4  12   41.99    1.46
  -3   4  12   40.77    1.46
  -3   4  12   42.08    1.46
  -3   4  12   40.62    1.46
  -2  -4  12    1.91    0.27
  -2  -4  12    1.89    0.27
  -2  -4  12    2.04    0.27
  -2   4  12    1.54    0.27
  -2   4  12    2.26    0.26
  -2   4  12    2.10    0.28
  -1  -4  12   15.24    0.90
  -1  -4  12   18.56    0.74
  -1  -4  12   18.04    0.72
  -1  -4  12   19.74    0.74
  -1   4  12   18.38    0.74
  -1   4  12   18.96    0.73
  -1   4  12   19.02    0.73
   0  -4  12    0.42    0.16
   0  -4  12    0.65    0.17
   0  -4  12    0.57    0.14
   0  -4  12    0.52    0.21
   0   4  12    0.57    0.16
   0   4  12    0.56    0.16
   0   4  12    0.22    0.15
   1  -4  12   15.68    0.65
  -1  -4 -12   15.01    0.63
   1   4  12   16.40    0.69
   2  -4  12    4.02    0.27
   2  -4  12    4.45    0.28
   2  -4  12    4.46    0.31
   2   4  12    4.64    0.28
   2   4  12    4.81    0.28
   3  -4  12    0.18    0.11
   3  -4  12    0.15    0.21
   3   4  12    0.38    0.12
   3   4  12    0.35    0.12
  -7  -5  12   14.30    0.53
  -7   5  12   14.35    0.53
  -6  -5  12    0.21    0.12
  -6   5  12    0.07    0.12
  -6   5  12    0.10    0.15
   5  -5 -12   10.37    0.48
  -5  -5  12   10.88    0.48
  -5   5  12   11.67    0.48
  -5   5  12   11.21    0.49
  -4  -5  12    4.23    0.51
  -4  -5  12    4.80    0.32
  -4  -5  12    4.51    0.33
  -4   5  12    5.01    0.33
  -4   5  12    4.08    0.31
  -3  -5  12   50.69    1.77
  -3  -5  12   50.68    1.75
  -3  -5  12   51.67    1.75
  -3   5  12   51.94    1.76
  -3   5  12   51.82    1.75
  -3   5  12   48.63    1.74
  -2  -5  12    1.01    0.24
  -2  -5  12    0.51    0.16
  -2  -5  12    0.38    0.14
  -2   5  12    0.50    0.16
  -2   5  12    0.48    0.17
  -2   5  12    0.73    0.16
  -1  -5  12    0.96    0.18
  -1  -5  12    0.66    0.17
  -1  -5  12    1.58    0.24
  -1   5  12    1.05    0.18
  -1   5  12    1.14    0.19
  -1   5  12    0.83    0.17
   0  -5  12    5.82    0.36
   0  -5  12    6.09    0.36
   0  -5  12    6.21    0.38
   0   5  12    6.97    0.37
   0   5  12    6.64    0.37
   0   5  12    6.75    0.37
  -1  -5 -12    7.46    0.40
   1  -5  12    8.21    0.38
   1  -5  12    7.83    0.43
   1  -5  12    6.79    0.37
   1   5  12    7.81    0.42
   2  -5  12    5.28    0.30
   2  -5  12    5.15    0.34
   2  -5  12    5.25    0.30
   2   5  12    5.55    0.30
   2   5  12    5.57    0.30
   3  -5  12    5.52    0.27
   3  -5  12    4.85    0.31
   3   5  12    5.52    0.27
   3   5  12    5.21    0.28
  -7  -6  12    0.11    0.11
  -7   6  12    0.11    0.14
  -6  -6  12    0.21    0.12
  -6   6  12    0.01    0.13
  -6   6  12    0.28    0.13
  -5  -6  12    8.20    0.39
   5  -6 -12    8.36    0.40
  -5   6  12    7.78    0.39
  -5   6  12    8.24    0.39
   4  -6 -12    2.61    0.27
  -4  -6  12    2.85    0.29
  -4  -6  12    2.37    0.27
  -4   6  12    3.32    0.28
  -4   6  12    2.99    0.28
  -3  -6  12    7.20    0.41
  -3  -6  12    7.71    0.40
  -3  -6  12    7.83    0.43
  -3   6  12    8.03    0.41
  -3   6  12    7.34    0.41
  -2  -6  12    3.75    0.31
  -2  -6  12    3.42    0.30
  -2  -6  12    3.67    0.30
  -2   6  12    3.94    0.33
  -2   6  12    4.07    0.31
  -2   6  12    3.62    0.30
  -1  -6  12   11.85    0.56
  -1  -6  12   12.32    0.55
  -1  -6  12   12.75    0.55
  -1   6  12   12.65    0.55
  -1   6  12   12.14    0.55
  -1   6  12   12.79    0.55
   0  -6  12   -0.21    0.13
   0  -6  12    0.48    0.15
   0  -6 -12   -0.11    0.13
   0  -6  12    0.18    0.12
   0   6  12    0.16    0.14
   0   6  12    0.01    0.12
   0   6  12    0.06    0.15
   1  -6  12    6.21    0.43
   1  -6  12    6.08    0.37
   1  -6  12    6.71    0.34
   1  -6  12    6.71    0.35
  -1  -6 -12    6.70    0.36
   1   6  12    6.40    0.36
   1   6  12    6.67    0.35
   2  -6  12    3.68    0.26
   2  -6  12    3.73    0.25
   2  -6  12    3.57    0.32
   2   6  12    3.99    0.26
   2   6  12    3.36    0.25
  -3  -6 -12    0.94    0.16
   3  -6  12    0.89    0.20
   3   6  12    0.76    0.13
   3   6  12    0.73    0.17
  -7  -7  12    4.95    0.26
  -6  -7  12    1.06    0.19
  -6   7  12    0.84    0.21
  -6   7  12    0.87    0.20
  -5  -7  12    7.39    0.37
   5  -7 -12    6.84    0.38
  -5   7  12    7.51    0.37
  -5   7  12    8.03    0.38
  -4  -7  12   11.61    0.52
  -3  -7  12    0.33    0.15
  -3  -7  12    0.61    0.15
  -3  -7  12    0.46    0.15
   3  -7 -12    0.54    0.14
  -3   7  12    0.41    0.15
  -3   7  12    0.41    0.16
  -2  -7  12   26.42    0.98
  -2  -7  12   25.25    0.96
  -2  -7  12   26.96    0.97
  -2   7  12   25.83    0.96
  -2   7  12   25.81    0.96
  -2   7  12   26.00    0.96
  -1  -7  12    3.68    0.29
  -1  -7  12    2.94    0.29
  -1  -7  12    3.37    0.30
  -1   7  12    3.41    0.30
  -1   7  12    3.23    0.29
  -1   7  12    3.53    0.30
   0  -7  12    9.39    0.43
   0  -7  12    8.63    0.43
   0  -7 -12    9.39    0.44
   0  -7  12    9.43    0.45
   0   7  12    8.61    0.43
   0   7  12    9.16    0.44
   0   7  12    8.97    0.44
   1  -7  12    0.48    0.15
   1  -7  12    0.67    0.15
  -1  -7 -12    0.47    0.16
   1  -7  12    0.39    0.13
   1   7  12    0.55    0.15
   1   7  12    0.40    0.13
   2  -7  12    0.92    0.20
   2  -7  12    1.08    0.20
   2   7  12    0.58    0.14
   2   7  12    0.73    0.17
   3  -7  12   26.87    0.92
   3   7  12   26.09    0.92
   3   7  12   27.47    0.93
  -6  -8  12    5.36    0.29
  -6   8  12    5.53    0.29
  -6   8  12    5.37    0.33
   5  -8 -12   11.35    0.49
  -5  -8  12   11.43    0.51
  -5  -8  12   11.98    0.49
  -5   8  12   11.76    0.49
  -5   8  12   12.29    0.49
  -4  -8  12    1.45    0.24
   4  -8 -12    1.11    0.22
  -4  -8  12    1.37    0.26
  -4  -8  12    1.71    0.24
  -4   8  12    1.21    0.22
  -4   8  12    1.28    0.25
  -3  -8  12    5.48    0.35
  -3  -8  12    5.48    0.34
  -3  -8  12    5.63    0.35
   3  -8 -12    5.45    0.33
  -3   8  12    5.70    0.35
  -3   8  12    5.29    0.35
  -2  -8  12    2.67    0.28
   2  -8 -12    3.22    0.26
  -2  -8  12    2.50    0.27
  -2  -8  12    3.08    0.28
  -2   8  12    3.44    0.27
  -2   8  12    3.14    0.30
  -1  -8  12    0.46    0.14
   1  -8 -12    0.27    0.13
  -1  -8  12    0.46    0.16
  -1  -8  12    0.16    0.14
  -1   8  12    0.56    0.15
  -1   8  12    0.14    0.17
  -1   8  12    0.06    0.15
   0  -8  12    1.25    0.25
   0  -8  12    0.95    0.21
   0   8  12    1.68    0.23
   1  -8  12    5.01    0.31
  -1  -8 -12    4.74    0.32
   1  -8  12    5.45    0.34
   1  -8  12    5.31    0.30
   1   8  12    4.91    0.30
   1   8  12    5.10    0.31
   2  -8  12    0.70    0.14
   2  -8  12    0.98    0.20
   2   8  12    0.78    0.15
   2   8  12    1.25    0.18
   3  -8  12    8.88    0.38
  -3  -8 -12    9.08    0.36
   3   8  12    8.64    0.39
  -6  -9  12    7.85    0.43
  -6   9  12    7.58    0.40
  -6   9  12    8.05    0.35
  -5  -9  12    6.96    0.35
  -5  -9  12    6.71    0.37
   5  -9 -12    6.50    0.36
  -5   9  12    6.85    0.35
  -5   9  12    6.73    0.34
   4  -9 -12   -0.05    0.12
  -4  -9  12    0.36    0.15
  -4  -9  12    0.09    0.13
  -4  -9  12    0.30    0.14
  -4   9  12    0.21    0.16
  -4   9  12    0.20    0.13
  -3  -9  12    2.17    0.26
  -3  -9  12    2.07    0.26
   3  -9 -12    2.00    0.23
  -3   9  12    1.88    0.25
  -2  -9  12   12.62    0.58
  -2  -9  12   14.04    0.60
  -2  -9  12   13.81    0.57
   2  -9 -12   13.56    0.57
  -2   9  12   13.46    0.57
  -2   9  12   13.96    0.58
  -1  -9  12    0.15    0.13
   1  -9 -12    0.12    0.11
  -1  -9  12    0.20    0.14
  -1  -9  12    0.37    0.21
  -1   9  12   -0.11    0.22
  -1   9  12    0.46    0.14
   0  -9  12   10.84    0.48
   0  -9  12   10.05    0.58
   0  -9 -12   10.75    0.47
   0  -9  12   10.56    0.49
   0   9  12   10.74    0.48
   1  -9  12    4.39    0.29
  -1  -9 -12    4.52    0.30
   1  -9  12    4.34    0.32
   1  -9  12    4.16    0.28
   1   9  12    4.55    0.30
   1   9  12    4.53    0.28
   2  -9  12    2.88    0.25
   2  -9  12    3.14    0.24
   2   9  12    3.02    0.26
   2   9  12    3.08    0.22
  -3  -9 -12    0.22    0.09
   3   9  12    0.11    0.11
  -6 -10  12    2.58    0.24
  -6  10  12    2.25    0.20
   5 -10 -12    0.25    0.14
  -5 -10  12    0.20    0.15
  -5 -10  12    0.12    0.14
  -5  10  12   -0.03    0.11
  -5  10  12    0.31    0.19
  -4 -10  12    0.33    0.15
  -4 -10  12    0.10    0.14
   4 -10 -12   -0.10    0.11
  -4 -10  12    0.17    0.15
  -4  10  12   -0.05    0.12
  -4  10  12    0.03    0.18
  -3 -10  12    1.87    0.25
  -3 -10  12    2.50    0.37
  -3  10  12    2.00    0.30
  -2 -10  12   29.64    1.07
  -2 -10  12   29.50    1.05
  -2 -10  12   27.29    1.03
   2 -10 -12   29.51    1.04
  -2  10  12   27.42    1.04
  -2  10  12   29.22    1.05
  -1 -10  12    6.11    0.35
  -1 -10  12    5.81    0.35
   1 -10 -12    5.89    0.35
  -1 -10  12    5.51    0.46
  -1  10  12    5.77    0.35
  -1  10  12    5.61    0.36
   0 -10  12    5.71    0.34
   0 -10  12    5.62    0.31
   0 -10 -12    5.84    0.32
   0 -10  12    5.22    0.33
   0  10  12    5.06    0.34
   0  10  12    5.21    0.32
   1 -10  12    2.88    0.24
  -1 -10 -12    3.01    0.29
   1 -10  12    2.62    0.28
   1 -10  12    3.04    0.27
   1  10  12    2.73    0.23
   1  10  12    3.10    0.28
   2 -10  12    1.69    0.26
  -2 -10 -12    1.63    0.16
   2 -10  12    1.62    0.25
   2  10  12    1.79    0.28
   2  10  12    1.55    0.18
  -3 -10 -12    5.16    0.25
   3  10  12    5.97    0.27
  -5 -11  12    1.84    0.23
  -5 -11  12    1.76    0.26
   5 -11 -12    1.78    0.25
  -5  11  12    1.51    0.20
  -4 -11  12    2.78    0.26
   4 -11 -12    2.34    0.22
  -4 -11  12    2.72    0.26
  -4 -11  12    2.67    0.26
  -4  11  12    2.70    0.24
   3 -11 -12    0.03    0.10
  -3 -11  12    0.13    0.13
  -3 -11  12    0.05    0.15
  -3 -11  12   -0.06    0.12
  -3  11  12    0.03    0.12
  -3  11  12    0.10    0.20
  -2 -11  12    0.54    0.18
  -2  11  12    0.41    0.22
   1 -11 -12    1.33    0.20
  -1 -11  12    1.19    0.23
  -1 -11  12    1.50    0.27
  -1 -11  12    1.18    0.21
  -1  11  12    1.22    0.22
  -1  11  12    1.35    0.22
   0 -11 -12   11.90    0.48
   0 -11  12   11.61    0.50
   0 -11  12   11.70    0.50
   0 -11  12   11.55    0.49
   0  11  12   10.81    0.49
   0  11  12   11.74    0.52
  -1 -11 -12    3.41    0.31
   1 -11  12    3.60    0.30
   1 -11  12    3.40    0.25
   1 -11  12    3.65    0.30
   1  11  12    3.58    0.34
   1  11  12    3.58    0.25
  -2 -11 -12    2.03    0.16
   2 -11  12    1.27    0.25
   2  11  12    1.45    0.18
  -3 -11 -12    1.66    0.16
   3  11  12    1.69    0.20
  -6  12  12    1.09    0.16
  -5 -12  12    1.46    0.30
  -5 -12  12    0.81    0.22
   5 -12 -12    1.35    0.25
  -5  12  12    1.49    0.18
   4 -12 -12    0.00    0.10
  -4 -12  12    0.13    0.12
  -4 -12  12   -0.11    0.13
  -4 -12  12    0.42    0.17
  -4  12  12    0.03    0.12
  -3 -12  12    1.12    0.23
   3 -12 -12    1.07    0.18
  -3 -12  12    1.41    0.27
  -3 -12  12    1.26    0.23
  -3  12  12    1.21    0.21
  -2 -12  12    5.70    0.35
  -2 -12  12    5.75    0.33
  -2 -12  12    5.41    0.37
   2 -12 -12    5.65    0.32
  -2  12  12    6.34    0.33
  -1 -12  12    0.11    0.11
   1 -12 -12   -0.01    0.10
  -1 -12  12   -0.11    0.19
  -1 -12  12    0.10    0.11
  -1  12  12    0.14    0.13
   0 -12  12    1.28    0.19
   0 -12 -12    1.11    0.20
   0 -12  12    1.20    0.31
   0 -12  12    1.16    0.22
   0  12  12    1.37    0.20
   1 -12  12    7.67    0.35
   1 -12  12    7.10    0.39
  -1 -12 -12    7.63    0.39
   1  12  12    7.61    0.35
  -2 -12 -12    3.02    0.19
   2  12  12    3.04    0.22
  -6  13  12   18.57    0.65
  -5 -13  12    5.11    0.37
   5 -13 -12    4.83    0.33
  -5 -13  12    5.38    0.37
  -5  13  12    5.58    0.27
  -4 -13  12    0.33    0.13
  -4 -13  12    0.31    0.13
   4 -13 -12    0.60    0.12
  -4  13  12    0.34    0.12
  -3 -13  12    5.49    0.32
   3 -13 -12    5.89    0.30
  -3 -13  12    5.57    0.32
  -3  13  12    6.16    0.31
  -2 -13  12   19.02    0.74
   2 -13 -12   18.44    0.71
  -2 -13  12   18.46    0.71
  -2  13  12   19.17    0.72
  -1 -13  12   34.19    1.20
   1 -13 -12   33.89    1.19
  -1 -13  12   35.42    1.22
   1 -13 -12   34.47    1.20
  -1  13  12   33.49    1.20
   0 -13  12    0.84    0.17
   0 -13 -12    0.80    0.18
   0 -13  12    0.98    0.20
   0 -13 -12    0.88    0.14
   0  13  12    0.81    0.18
  -1 -13 -12    1.82    0.18
   1 -13  12    1.26    0.28
   1 -13  12    1.74    0.20
   1  13  12    1.97    0.19
  -2 -13 -12    1.53    0.21
   2  13  12    1.37    0.19
  -6  14  12    7.86    0.32
  -5 -14  12    1.66    0.34
  -5  14  12    1.85    0.17
   4 -14 -12    0.83    0.18
  -4 -14  12    0.50    0.13
  -4 -14  12    0.78    0.20
  -4  14  12    0.68    0.17
  -3 -14  12   13.22    0.54
  -3 -14  12   13.39    0.55
   3 -14 -12   13.58    0.53
  -3  14  12   13.73    0.54
   2 -14 -12    4.49    0.26
  -2 -14  12    4.14    0.27
  -2 -14  12    3.83    0.28
  -2  14  12    4.68    0.28
   1 -14 -12    1.00    0.22
  -1 -14  12    1.39    0.19
  -1 -14  12    1.13    0.20
   1 -14 -12    1.25    0.18
  -1  14  12    1.63    0.20
   0 -14 -12    0.54    0.12
   0 -14 -12    0.87    0.17
   0 -14  12    0.38    0.11
   0 -14  12    0.75    0.19
   0  14  12    0.50    0.13
   1 -14  12    2.55    0.51
  -1 -14 -12    2.83    0.20
   1  14  12    2.76    0.21
  -2 -14 -12    3.28    0.19
   2  14  12    3.08    0.24
   4 -15 -12    0.20    0.10
  -4 -15  12    0.33    0.12
  -4 -15  12    0.22    0.12
  -4  15  12    0.32    0.11
  -3 -15  12    1.10    0.19
  -3 -15  12    1.13    0.19
   3 -15 -12    1.10    0.17
  -3  15  12    1.40    0.18
  -2 -15  12   20.11    0.75
   2 -15 -12   19.65    0.72
  -2 -15  12   19.55    0.73
  -2  15  12   19.81    0.73
   1 -15 -12    0.20    0.10
  -1 -15  12    0.03    0.10
  -1 -15  12    0.02    0.11
   1 -15 -12    0.30    0.14
  -1  15  12    0.08    0.11
   0 -15  12    2.56    0.21
   0 -15  12    2.75    0.22
   0 -15 -12    2.42    0.20
   0 -15 -12    2.60    0.21
   0  15  12    2.78    0.22
  -1 -15 -12    1.55    0.16
   1 -15  12    1.49    0.20
   1  15  12    1.10    0.19
  -2 -15 -12    3.45    0.19
  -5  16  12    0.69    0.15
  -4 -16  12   12.11    0.48
  -4  16  12   12.04    0.47
   3 -16 -12    0.50    0.11
  -3 -16  12    0.51    0.12
  -3 -16  12    0.82    0.18
  -3  16  12    0.35    0.11
  -2 -16  12   14.77    0.58
  -2 -16  12   14.03    0.56
   2 -16 -12   15.05    0.56
  -2  16  12   14.93    0.56
   1 -16 -12    0.31    0.15
   1 -16 -12    0.82    0.16
  -1 -16  12    0.48    0.11
  -1 -16  12    0.43    0.12
  -1  16  12    0.42    0.12
   0 -16 -12    2.24    0.20
   0 -16  12    2.19    0.18
   0 -16  12    2.10    0.20
   0 -16 -12    1.83    0.20
   0  16  12    2.19    0.20
  -1 -16 -12    6.02    0.27
   1  16  12    6.02    0.30
  -4 -17  12    1.15    0.17
   4 -17 -12    0.84    0.17
  -4  17  12    1.21    0.16
   3 -17 -12   18.37    0.65
  -3 -17  12   17.86    0.65
  -3 -17  12   17.78    0.66
  -3  17  12   17.59    0.65
  -2 -17  12   13.25    0.50
  -2 -17  12   12.59    0.51
   2 -17 -12   13.23    0.50
  -2  17  12   12.62    0.50
  -1 -17  12    1.84    0.19
  -1 -17  12    1.97    0.18
   1 -17 -12    2.14    0.18
  -1  17  12    1.88    0.19
   0 -17  12    1.41    0.17
   0 -17 -12    1.28    0.19
   0 -17  12    1.48    0.19
   0 -17 -12    1.47    0.19
   0  17  12    0.99    0.19
  -1 -17 -12    1.33    0.16
  -4 -18  12    0.30    0.10
   4 -18 -12    0.40    0.11
  -4 -18  12    0.25    0.13
  -4  18  12    0.68    0.16
  -3 -18  12    0.38    0.11
  -3  18  12    0.90    0.16
  -2 -18  12    0.77    0.14
   2 -18 -12    0.84    0.14
  -2 -18  12    0.65    0.15
  -2  18  12    0.72    0.14
   1 -18 -12    2.92    0.21
  -1 -18  12    3.21    0.21
  -1 -18  12    2.79    0.23
  -1  18  12    2.87    0.22
   0 -18  12    1.34    0.19
   0 -18  12    1.31    0.20
   0 -18 -12    1.36    0.20
   0  18  12    1.27    0.23
   3 -19 -12    3.86    0.21
  -3 -19  12    4.08    0.21
  -3 -19  12    3.91    0.22
  -3  19  12    4.26    0.24
   2 -19 -12    4.61    0.23
  -2 -19  12    4.68    0.23
  -2 -19  12    4.43    0.24
  -2  19  12    4.86    0.26
  -1 -19  12    0.74    0.15
  -1 -19  12    0.59    0.15
   1 -19 -12    0.77    0.14
  -1  19  12    0.72    0.19
   2 -20 -12    1.30    0.14
  -2 -20  12    1.46    0.15
  -2 -20  12    1.18    0.15
  -1 -20  12    0.11    0.09
   1 -20 -12    0.11    0.09
  -1 -20  12    0.11    0.09
  -7   0  13   -0.09    0.09
  -6   0  13   -0.09    0.10
  -5   0  13    0.10    0.11
  -4   0  13    0.13    0.12
  -3   0  13    0.17    0.16
  -3   0  13    0.09    0.13
  -3   0  13    0.20    0.21
  -2   0  13   -0.10    0.12
  -2   0  13    0.00    0.13
  -1   0  13    0.11    0.13
  -1   0  13   -0.09    0.13
  -1   0  13    0.00    0.17
   0   0  13    0.15    0.12
   0   0  13    0.20    0.14
   1   0  13    0.10    0.13
   1   0  13   -0.04    0.11
   1   0  13   -0.02    0.10
   2   0  13    0.10    0.10
   2   0  13    0.19    0.13
   3   0  13    0.03    0.09
   3   0  13    0.20    0.11
  -7  -1  13    0.15    0.09
  -7   1  13    0.21    0.10
  -6  -1  13   10.83    0.44
  -6   1  13   11.28    0.45
   5  -1 -13    2.26    0.26
  -5  -1  13    2.27    0.22
  -5   1  13    2.22    0.22
  -4  -1  13    0.06    0.12
  -4   1  13    0.15    0.19
  -4   1  13    0.15    0.12
  -3  -1  13    0.75    0.26
  -3  -1  13    0.50    0.13
  -3  -1  13    0.57    0.22
  -3   1  13    0.59    0.16
  -3   1  13    0.44    0.19
  -3   1  13    1.03    0.21
  -2  -1  13    7.21    0.44
  -2  -1  13    8.80    0.41
  -2  -1  13    8.53    0.42
  -2   1  13    8.92    0.42
  -2   1  13    8.58    0.42
  -1  -1  13    3.98    0.29
  -1  -1  13    3.84    0.28
  -1  -1  13    3.37    0.33
  -1   1  13    3.88    0.28
  -1   1  13    3.67    0.28
  -1   1  13    3.75    0.42
   0  -1  13    9.66    0.43
   0  -1  13    9.32    0.45
   0  -1  13   10.14    0.44
   0   1  13    9.05    0.43
   0   1  13    9.63    0.44
   0   1  13    9.33    0.44
   1  -1  13    3.07    0.24
   1  -1  13    3.23    0.27
  -1  -1 -13    3.02    0.30
   1  -1  13    3.13    0.24
   1   1  13    3.16    0.23
   1   1  13    3.05    0.23
   1   1  13    3.42    0.26
   2  -1  13    2.94    0.24
   2  -1  13    3.07    0.20
   2   1  13    2.75    0.20
   2   1  13    2.70    0.22
   3  -1  13    0.21    0.13
   3  -1  13    0.02    0.09
   3   1  13    0.01    0.09
   3   1  13    0.01    0.11
  -7  -2  13    0.37    0.10
  -7   2  13    0.29    0.10
  -6  -2  13    0.11    0.10
  -6   2  13    0.01    0.10
  -5  -2  13    9.95    0.42
   5  -2 -13    9.10    0.43
  -5   2  13    8.97    0.46
  -5   2  13    9.90    0.42
  -4  -2  13    7.52    0.36
  -4   2  13    7.03    0.36
  -4   2  13    6.53    0.39
  -3  -2  13   41.55    1.45
  -3  -2  13   42.39    1.55
  -3  -2  13   42.43    1.43
  -3   2  13   39.20    1.42
  -3   2  13   43.41    1.44
  -3   2  13   38.48    1.43
  -2  -2  13    0.30    0.13
  -2  -2  13    0.47    0.13
  -2  -2  13    0.60    0.15
  -2  -2  13    0.53    0.21
  -2   2  13    0.93    0.21
  -2   2  13    0.46    0.15
  -1  -2  13    1.32    0.22
  -1  -2  13    1.24    0.29
  -1  -2  13    0.83    0.18
  -1  -2  13    0.89    0.21
  -1   2  13    0.80    0.15
  -1   2  13    1.02    0.22
   0  -2  13    2.47    0.24
   0  -2  13    2.65    0.29
   0  -2  13    3.01    0.24
   0   2  13    3.29    0.27
   0   2  13    2.71    0.24
   0   2  13    2.81    0.24
  -1  -2 -13    1.59    0.27
   1  -2  13    1.40    0.24
   1  -2  13    1.28    0.19
   1  -2  13    1.55    0.20
   1   2  13    1.50    0.22
   1   2  13    1.60    0.19
   1   2  13    1.35    0.19
   2  -2  13    3.18    0.21
   2  -2  13    3.16    0.26
   2  -2  13    3.28    0.22
   2   2  13    3.49    0.22
   2   2  13    3.35    0.23
   3  -2  13    0.54    0.10
   3   2  13    0.66    0.14
   3   2  13    0.44    0.11
  -7  -3  13    0.10    0.09
  -7   3  13    0.04    0.10
  -6  -3  13    0.85    0.17
  -6   3  13    0.88    0.16
   5  -3 -13    2.22    0.25
  -5  -3  13    2.43    0.22
  -5   3  13    2.40    0.22
  -5   3  13    2.66    0.30
  -4  -3  13    8.83    0.46
  -4   3  13    9.10    0.41
  -4   3  13    8.90    0.43
  -3  -3  13    0.19    0.15
  -3  -3  13    0.21    0.13
  -3  -3  13    0.36    0.19
  -3   3  13   -0.02    0.15
  -3   3  13    0.46    0.21
  -3   3  13    0.11    0.17
  -2  -3  13    1.02    0.21
  -2  -3  13    0.89    0.23
  -2  -3  13    1.31    0.21
  -2   3  13    1.31    0.32
  -2   3  13    1.33    0.22
  -1  -3  13    0.07    0.20
  -1  -3  13    0.62    0.18
  -1  -3  13    0.25    0.13
  -1   3  13    0.25    0.17
  -1   3  13    0.54    0.17
   0  -3  13    0.08    0.10
   0  -3  13   -0.02    0.12
   0  -3  13    0.35    0.18
   0   3  13    0.05    0.12
   0   3  13   -0.01    0.13
   0   3  13    0.18    0.11
  -1  -3 -13    1.02    0.28
   1  -3  13    1.25    0.26
   1  -3  13    1.67    0.20
   1  -3  13    1.56    0.19
   1   3  13    1.61    0.19
   1   3  13    1.39    0.19
   1   3  13    1.28    0.20
   2  -3  13    1.78    0.19
   2  -3  13    1.81    0.18
   2  -3  13    1.26    0.33
   2   3  13    1.54    0.18
   2   3  13    1.74    0.18
   3  -3  13   -0.10    0.09
   3   3  13    0.06    0.10
   3   3  13    0.08    0.10
  -6  -4  13    6.43    0.30
  -6   4  13    6.34    0.30
  -5  -4  13    2.45    0.22
   5  -4 -13    1.82    0.24
  -5   4  13    2.59    0.22
  -5   4  13    2.36    0.26
  -4  -4  13    0.07    0.17
  -4  -4  13    0.18    0.12
  -4   4  13   -0.13    0.12
  -4   4  13    0.09    0.16
  -3  -4  13    3.34    0.28
  -3   4  13    3.50    0.34
  -3   4  13    3.26    0.28
  -2  -4  13    5.70    0.33
  -2  -4  13    6.15    0.34
  -2  -4  13    4.79    0.33
  -2   4  13    5.32    0.33
  -1   4  13   -0.08    0.15
   0  -4  13    1.65    0.32
   0  -4  13    2.06    0.22
   0  -4  13    2.09    0.21
   0   4  13    2.05    0.21
   0   4  13    1.75    0.23
   0   4  13    1.56    0.22
   1  -4  13   -0.26    0.11
   1  -4  13    0.15    0.18
   1  -4  13    0.13    0.10
  -1  -4 -13    0.01    0.17
   1   4  13   -0.03    0.11
   1   4  13    0.18    0.11
   2  -4  13    1.42    0.17
   2  -4  13    1.36    0.19
   2  -4  13    1.26    0.27
   2   4  13    1.41    0.18
   2   4  13    1.48    0.18
   3  -4  13   -0.01    0.10
   3   4  13    0.18    0.10
   3   4  13    0.30    0.11
  -6  -5  13    3.89    0.23
  -6   5  13    3.96    0.34
  -6   5  13    4.03    0.24
   5  -5 -13    6.33    0.34
  -5  -5  13    6.87    0.33
  -5   5  13    6.86    0.35
  -5   5  13    6.77    0.33
  -4  -5  13   14.23    0.59
  -4  -5  13   14.71    0.58
   4  -5 -13   14.73    0.58
  -4  -5  13   14.01    0.59
  -4   5  13   15.06    0.58
  -4   5  13   14.87    0.59
  -3  -5  13   46.82    1.62
  -3  -5  13   46.78    1.59
  -3  -5  13   46.63    1.59
  -3   5  13   45.39    1.59
  -3   5  13   44.72    1.59
  -3   5  13   47.74    1.59
  -2   5  13    7.59    0.40
  -2   5  13    8.06    0.46
  -1  -5  13    0.39    0.14
  -1  -5  13    0.36    0.13
  -1  -5  13    0.33    0.14
  -1   5  13    0.48    0.14
  -1   5  13    0.76    0.20
  -1   5  13    0.18    0.13
   0  -5  13    4.23    0.27
   0  -5  13    3.86    0.28
   0  -5 -13    3.71    0.27
   0  -5  13    3.86    0.26
   0   5  13    3.94    0.27
   0   5  13    3.96    0.27
   0   5  13    3.87    0.27
   1  -5  13    0.39    0.11
   1  -5  13    0.42    0.12
  -1  -5 -13    0.34    0.17
   1   5  13    0.69    0.17
   1   5  13    0.47    0.12
   2  -5  13    1.93    0.19
   2   5  13    1.73    0.18
   2   5  13    1.81    0.19
  -6  -6  13   14.91    0.54
  -6   6  13   14.41    0.54
  -6   6  13   14.14    0.57
  -5  -6  13    2.93    0.23
   5  -6 -13    2.67    0.25
  -5   6  13    2.71    0.23
  -5   6  13    2.68    0.24
   4  -6 -13   11.36    0.46
  -4  -6  13   10.71    0.47
  -4  -6  13   10.40    0.48
  -4  -6  13   10.45    0.46
  -4   6  13   10.82    0.46
  -4   6  13   10.66    0.47
  -3  -6  13    0.59    0.14
   3  -6 -13    0.79    0.19
  -3  -6  13    0.98    0.22
  -3  -6  13    0.59    0.14
  -3   6  13    0.61    0.14
  -2  -6  13   16.60    0.64
  -2  -6  13   15.60    0.66
  -2  -6  13   15.85    0.70
  -2   6  13   16.39    0.65
  -2   6  13   16.99    0.64
  -2   6  13   16.75    0.65
  -1  -6  13    0.65    0.15
  -1  -6  13    0.95    0.19
  -1  -6  13    0.85    0.22
   1  -6 -13    0.97    0.20
  -1   6  13    0.97    0.21
  -1   6  13    0.63    0.14
  -1   6  13    0.71    0.14
   0  -6  13    0.35    0.11
   0  -6  13    0.01    0.12
   0  -6 -13    0.15    0.12
   0  -6  13    0.10    0.12
   0   6  13    0.32    0.12
   0   6  13    0.31    0.11
   0   6  13    0.41    0.12
   1  -6  13    0.24    0.12
   1  -6  13    0.09    0.10
   1   6  13    0.00    0.11
   1   6  13    0.09    0.10
   2  -6  13    1.52    0.20
   2  -6  13    1.17    0.19
   2   6  13    1.65    0.21
   2   6  13    1.25    0.17
  -6  -7  13    1.08    0.17
  -6   7  13    1.07    0.22
  -6   7  13    1.20    0.21
   5  -7 -13    1.13    0.21
  -5  -7  13    0.92    0.18
  -5   7  13    0.61    0.14
  -5   7  13    1.00    0.20
   4  -7 -13    8.25    0.39
  -4  -7  13    8.47    0.39
  -4  -7  13    7.77    0.40
  -4  -7  13    8.71    0.40
  -4   7  13    8.58    0.40
  -4   7  13    8.79    0.39
  -3  -7  13   19.84    0.77
  -3  -7  13   19.95    0.76
   3  -7 -13   20.95    0.76
  -3  -7  13   20.25    0.76
  -3   7  13   19.84    0.75
  -3   7  13   20.19    0.76
   2  -7 -13    0.92    0.19
  -2  -7  13    1.37    0.21
  -2  -7  13    1.41    0.21
  -2  -7  13    1.20    0.21
  -2   7  13    1.20    0.22
  -2   7  13    1.10    0.21
  -1  -7  13    0.49    0.13
  -1  -7  13    0.27    0.13
  -1  -7  13    0.30    0.11
   1  -7 -13    0.67    0.18
  -1   7  13    0.37    0.14
  -1   7  13    0.39    0.13
   0  -7  13    0.12    0.11
   0  -7  13    0.19    0.11
   0  -7 -13    0.18    0.11
   0  -7  13    0.09    0.12
   0   7  13    0.11    0.12
   0   7  13    0.32    0.12
   1  -7  13    1.70    0.20
   1  -7  13    1.71    0.19
   1   7  13    1.81    0.19
   1   7  13    1.79    0.20
   2  -7  13    1.70    0.20
   2  -7  13    1.68    0.21
   2   7  13    1.77    0.20
   2   7  13    1.84    0.17
  -6  -8  13    9.12    0.37
  -6   8  13    9.12    0.38
   5  -8 -13    2.71    0.25
  -5  -8  13    2.89    0.22
  -5   8  13    3.33    0.24
  -5   8  13    3.06    0.23
  -4  -8  13    4.08    0.28
  -4  -8  13    4.61    0.27
   4  -8 -13    4.31    0.27
  -4  -8  13    4.43    0.29
  -4   8  13    4.44    0.28
  -4   8  13    4.78    0.29
   3  -8 -13    0.19    0.11
  -3  -8  13    0.04    0.12
  -3  -8  13    0.07    0.12
  -3  -8  13    0.24    0.11
  -3   8  13   -0.02    0.13
  -3   8  13    0.01    0.11
   2  -8 -13    7.60    0.36
  -2  -8  13    7.78    0.38
  -2  -8  13    7.41    0.38
  -2  -8  13    7.18    0.37
  -2   8  13    7.53    0.37
  -2   8  13    7.28    0.38
  -1  -8  13    3.83    0.27
   1  -8 -13    3.83    0.25
  -1  -8  13    3.71    0.26
  -1  -8  13    3.89    0.26
  -1   8  13    3.14    0.25
  -1   8  13    3.91    0.28
   0  -8 -13    4.73    0.28
   0  -8  13    4.50    0.29
   0  -8  13    5.09    0.28
   0  -8  13    4.85    0.29
   0   8  13    4.84    0.29
   0   8  13    4.82    0.28
   1  -8  13   32.33    1.11
   1  -8  13   31.88    1.11
   1   8  13   32.27    1.11
   1   8  13   32.58    1.12
  -2  -8 -13    0.10    0.12
   2  -8  13    0.23    0.14
   2  -8  13    0.25    0.14
   2   8  13    0.29    0.11
   2   8  13   -0.20    0.15
  -6  -9  13    0.12    0.13
  -6   9  13   -0.07    0.12
   5  -9 -13    0.58    0.14
  -5  -9  13    0.88    0.18
  -5   9  13    0.28    0.16
  -5   9  13    0.47    0.12
  -4  -9  13   17.03    0.65
  -4  -9  13   16.93    0.63
   4  -9 -13   16.53    0.63
  -4  -9  13   16.44    0.64
  -4   9  13   16.44    0.63
  -4   9  13   16.63    0.64
   3  -9 -13    0.99    0.18
  -3  -9  13    0.81    0.20
  -3  -9  13    0.87    0.15
  -3  -9  13    0.75    0.14
  -3   9  13    1.12    0.23
  -3   9  13    1.02    0.20
   2  -9 -13   32.53    1.15
  -2  -9  13   33.76    1.15
  -2  -9  13   32.34    1.17
  -2  -9  13   32.83    1.16
  -2   9  13   32.13    1.16
  -2   9  13   33.40    1.15
  -1  -9  13    0.90    0.20
  -1  -9  13    1.10    0.18
   1  -9 -13    0.99    0.19
  -1  -9  13    0.87    0.16
  -1   9  13    1.17    0.18
  -1   9  13    1.18    0.19
   0  -9 -13    5.98    0.31
   0  -9  13    5.63    0.30
   0  -9  13    5.91    0.31
   0  -9  13    5.44    0.31
   0   9  13    5.52    0.32
   0   9  13    5.88    0.31
   1  -9  13    6.28    0.32
   1  -9  13    6.03    0.29
   1   9  13    6.13    0.30
   1   9  13    6.56    0.42
  -2  -9 -13   18.15    0.64
   2   9  13   17.82    0.64
  -6  10  13    0.76    0.13
   5 -10 -13    1.94    0.25
  -5 -10  13    1.87    0.21
  -5  10  13    2.14    0.19
  -4 -10  13    0.33    0.12
   4 -10 -13    0.33    0.10
  -4 -10  13    0.53    0.14
  -4 -10  13    0.19    0.13
  -4  10  13    0.50    0.18
  -4  10  13    0.29    0.12
   3 -10 -13    1.32    0.18
  -3 -10  13    1.24    0.21
  -3 -10  13    1.21    0.21
  -3 -10  13    1.36    0.21
  -3  10  13    1.40    0.27
  -3  10  13    1.35    0.19
  -2 -10  13   12.71    0.51
  -2 -10  13   12.77    0.51
  -2 -10  13   11.31    0.52
   2 -10 -13   12.39    0.50
  -2  10  13   12.42    0.52
  -2  10  13   12.10    0.51
  -1 -10  13    7.73    0.38
  -1 -10  13    7.59    0.36
  -1 -10  13    8.23    0.38
   1 -10 -13    7.82    0.36
  -1  10  13    7.45    0.38
  -1  10  13    7.55    0.37
   0 -10 -13    7.25    0.34
   0 -10  13    6.85    0.35
   0 -10  13    6.96    0.35
   0 -10  13    7.33    0.34
   0  10  13    7.59    0.35
   0  10  13    7.54    0.37
   1 -10  13    0.01    0.10
   1 -10  13    0.17    0.16
   1  10  13    0.11    0.10
   1  10  13    0.30    0.23
  -2 -10 -13    2.86    0.18
   2  10  13    3.16    0.20
  -6  11  13   -0.03    0.11
  -5 -11  13    2.06    0.45
   5 -11 -13    1.39    0.27
  -5  11  13    2.03    0.18
  -4 -11  13    1.12    0.21
   4 -11 -13    1.02    0.17
  -4 -11  13    1.27    0.19
  -4  11  13    1.30    0.19
  -3 -11  13   17.50    0.65
  -3 -11  13   16.35    0.64
  -3 -11  13   17.20    0.66
   3 -11 -13   16.91    0.64
  -3  11  13   17.86    0.65
  -2 -11  13    1.39    0.20
  -2 -11  13    1.87    0.25
   2 -11 -13    1.72    0.18
  -2 -11  13    1.27    0.20
  -2  11  13    1.82    0.20
  -1 -11  13    1.53    0.25
  -1 -11  13    0.79    0.19
   1 -11 -13    1.23    0.17
  -1 -11  13    1.04    0.17
  -1  11  13    1.36    0.19
   0 -11  13    0.53    0.27
   0 -11 -13    0.39    0.11
   0 -11  13    0.28    0.12
   0 -11  13    0.18    0.10
   0  11  13    0.49    0.12
   1 -11  13    1.49    0.19
  -1 -11 -13    1.76    0.16
   1  11  13    1.71    0.17
  -2 -11 -13   33.34    1.07
   2  11  13   30.76    1.07
  -5  12  13   23.43    0.90
  -4 -12  13    7.75    0.36
  -4 -12  13    8.15    0.36
   4 -12 -13    7.79    0.34
  -4  12  13    7.55    0.35
   3 -12 -13    3.57    0.22
  -3 -12  13    3.30    0.24
  -3 -12  13    3.23    0.25
  -3  12  13    3.37    0.23
  -2 -12  13    9.87    0.45
  -2 -12  13   10.49    0.44
   2 -12 -13   10.56    0.43
  -2  12  13   10.58    0.44
   1 -12 -13    0.18    0.12
   1 -12 -13    0.27    0.10
  -1 -12  13   -0.06    0.11
  -1 -12  13    0.12    0.09
  -1  12  13    0.05    0.11
   0 -12 -13   21.24    0.75
   0 -12  13   20.63    0.76
   0 -12 -13   21.07    0.75
   0 -12  13   21.24    0.76
   0  12  13   21.51    0.76
  -1 -12 -13    2.03    0.26
   1 -12  13    1.47    0.18
  -5  13  13    6.22    0.28
  -4 -13  13    7.08    0.33
   4 -13 -13    7.01    0.31
  -4  13  13    6.99    0.31
  -3 -13  13   45.42    1.55
   3 -13 -13   44.32    1.53
  -3 -13  13   46.44    1.54
  -3  13  13   46.33    1.54
   2 -13 -13   13.14    0.51
  -2 -13  13   13.47    0.52
  -2 -13  13   13.19    0.53
  -2  13  13   13.40    0.52
   1 -13 -13   17.89    0.64
   1 -13 -13   17.01    0.67
  -1 -13  13   17.49    0.65
  -1 -13  13   17.24    0.64
  -1  13  13   17.24    0.65
   0 -13 -13    2.07    0.18
   0 -13  13    2.23    0.18
   0 -13 -13    2.34    0.30
   0  13  13    1.98    0.18
   1 -13  13   11.62    0.47
  -1 -13 -13   12.50    0.46
   1  13  13   12.77    0.46
  -5  14  13    0.04    0.09
  -4 -14  13    0.25    0.11
  -4 -14  13    0.07    0.11
   4 -14 -13    0.10    0.10
  -4  14  13    0.08    0.10
  -3 -14  13    0.07    0.10
   3 -14 -13    0.26    0.09
  -3 -14  13   -0.03    0.09
  -3  14  13    0.24    0.10
  -2 -14  13    0.74    0.17
  -2 -14  13    0.72    0.16
   2 -14 -13    1.08    0.15
  -2  14  13    1.24    0.17
  -1 -14  13    9.17    0.40
   1 -14 -13    9.10    0.38
   1 -14 -13    9.07    0.41
  -1 -14  13    9.58    0.38
  -1  14  13    9.52    0.39
   0 -14  13    1.09    0.20
   0 -14 -13    1.03    0.17
   0 -14 -13    1.51    0.20
   0 -14  13    1.52    0.20
   0  14  13    1.25    0.16
  -1 -14 -13    4.69    0.22
   1  14  13    4.64    0.25
   4 -15 -13    0.68    0.11
  -4 -15  13    0.85    0.18
  -4 -15  13    1.05    0.18
  -4  15  13    1.06    0.15
  -3 -15  13   21.77    0.77
  -3 -15  13   21.09    0.77
   3 -15 -13   22.06    0.76
  -3  15  13   21.93    0.77
  -2 -15  13   10.25    0.42
  -2 -15  13   10.26    0.43
   2 -15 -13   11.02    0.42
  -2  15  13   10.37    0.42
  -1 -15  13    0.64    0.15
   1 -15 -13    0.60    0.15
  -1 -15  13    0.76    0.14
  -1  15  13    1.11    0.15
   0 -15 -13    3.08    0.21
   0 -15 -13    2.70    0.24
   0 -15  13    2.99    0.22
   0 -15  13    2.56    0.19
   0  15  13    2.64    0.20
   4 -16 -13    3.16    0.21
  -4 -16  13    3.63    0.30
  -4 -16  13    3.15    0.22
  -4  16  13    3.18    0.20
  -3 -16  13    6.13    0.29
  -3 -16  13    6.40    0.29
   3 -16 -13    6.38    0.28
  -3  16  13    6.48    0.29
   2 -16 -13    7.35    0.34
  -2 -16  13    6.12    0.32
  -2 -16  13    6.82    0.38
  -2  16  13    6.76    0.30
   1 -16 -13   10.27    0.39
  -1 -16  13    9.86    0.39
  -1 -16  13    9.71    0.40
  -1  16  13   10.06    0.40
   0 -16  13   12.76    0.48
   0  16  13   13.54    0.49
   3 -17 -13   -0.06    0.08
  -3 -17  13    0.13    0.09
  -3 -17  13   -0.04    0.09
  -3  17  13    0.06    0.09
  -2 -17  13    1.11    0.15
   2 -17 -13    1.26    0.14
  -2 -17  13    1.39    0.14
  -2  17  13    1.33    0.16
  -1 -17  13    2.25    0.18
   1 -17 -13    2.28    0.18
  -1 -17  13    2.67    0.17
  -1  17  13    2.16    0.20
  -6   0  14    3.47    0.20
  -5   0  14    0.09    0.10
   5   0 -14   -0.04    0.13
  -4   0  14   12.88    0.51
  -3   0  14    1.15    0.17
  -3   0  14    1.11    0.17
  -2   0  14    2.66    0.23
  -2   0  14    2.38    0.29
  -2   0  14    2.59    0.21
  -1   0  14   35.56    1.24
  -1   0  14   35.81    1.23
  -1   0  14   35.60    1.24
   0   0  14    0.28    0.14
   0   0  14    0.25    0.10
   0   0  14    0.25    0.10
   1   0  14   20.75    0.72
   1   0  14   21.15    0.72
   1   0  14   17.45    0.81
   2   0  14    0.03    0.09
  -6  -1  14    5.42    0.25
  -6   1  14    5.59    0.26
  -5  -1  14    0.76    0.16
   5  -1 -14    0.90    0.22
   5   1 -14    1.45    0.22
  -5   1  14    0.94    0.16
  -4  -1  14    5.90    0.30
  -4   1  14    5.90    0.30
  -3  -1  14    3.89    0.27
  -3  -1  14    4.07    0.25
  -3   1  14    4.21    0.25
  -3   1  14    4.47    0.30
  -3   1  14    3.72    0.32
  -2  -1  14    0.57    0.13
  -2  -1  14    0.47    0.22
  -2  -1  14    0.33    0.12
  -2   1  14    0.44    0.13
  -2   1  14    0.53    0.15
  -2   1  14    0.61    0.12
  -1  -1  14    1.05    0.17
  -1  -1  14    0.79    0.17
  -1  -1  14    1.08    0.18
  -1   1  14    1.03    0.18
  -1   1  14    0.73    0.18
  -1   1  14    0.82    0.16
   0  -1  14    5.13    0.32
   0  -1  14    5.63    0.29
   0  -1  14    5.73    0.29
   0   1  14    5.33    0.28
   0   1  14    5.58    0.31
   0   1  14    5.70    0.28
   1  -1  14    0.43    0.11
   1  -1  14    0.36    0.15
   1  -1  14    0.66    0.14
   1   1  14    0.57    0.14
   1   1  14    0.59    0.14
   2  -1  14    8.53    0.33
   2   1  14    7.53    0.34
  -6  -2  14    0.37    0.10
  -6   2  14    0.78    0.15
   5  -2 -14    0.89    0.21
  -5  -2  14    0.86    0.15
   5   2 -14    1.25    0.22
  -5   2  14    0.62    0.16
  -4  -2  14    4.06    0.24
  -4   2  14    3.79    0.24
  -4   2  14    3.58    0.31
  -3  -2  14   12.85    0.53
  -3  -2  14   12.98    0.53
  -3   2  14   13.44    0.54
  -3   2  14   13.51    0.53
  -3   2  14   13.48    0.54
  -2  -2  14    1.28    0.20
  -2  -2  14    1.12    0.19
  -2   2  14    1.22    0.20
  -2   2  14    1.20    0.18
  -2   2  14    1.23    0.23
  -1  -2  14    5.93    0.31
  -1  -2  14    5.08    0.48
  -1  -2  14    6.34    0.31
  -1   2  14    6.00    0.31
  -1   2  14    6.03    0.33
  -1   2  14    6.03    0.31
   0  -2  14    9.79    0.45
   0  -2  14    9.65    0.41
   0  -2 -14    9.92    0.41
   0  -2  14    9.74    0.41
   0   2  14    9.72    0.42
   0   2  14   10.16    0.42
   0   2  14    9.74    0.41
   1  -2  14    0.78    0.15
   1  -2  14    0.75    0.15
   1  -2  14    1.45    0.26
   1   2  14    0.93    0.15
   1   2  14    0.89    0.18
   2  -2  14    0.40    0.10
   2   2  14    0.36    0.11
   2   2  14    0.55    0.11
  -6  -3  14    0.28    0.09
  -6   3  14    0.21    0.10
   5  -3 -14    0.14    0.13
  -5  -3  14    0.18    0.10
  -5   3  14    0.18    0.10
   4  -3 -14   16.97    0.63
  -4  -3  14   17.00    0.64
  -4   3  14   17.17    0.63
  -4   3  14   16.51    0.65
  -3  -3  14    9.09    0.39
  -3  -3  14    8.59    0.40
  -3   3  14    8.74    0.41
  -3   3  14    9.11    0.39
  -3   3  14    8.44    0.43
  -2  -3  14   17.33    0.66
  -2  -3  14   17.32    0.66
  -2   3  14   17.38    0.67
  -2   3  14   17.53    0.66
  -2   3  14   17.87    0.66
  -1  -3  14    1.53    0.18
  -1  -3  14    2.06    0.20
  -1   3  14    1.49    0.19
  -1   3  14    1.93    0.20
  -1   3  14    1.72    0.22
   0  -3  14    0.10    0.10
   0  -3  14    0.23    0.10
   0  -3 -14    0.27    0.11
   0   3  14    0.03    0.10
   0   3  14    0.03    0.09
   0   3  14    0.13    0.11
   1  -3  14   52.44    1.77
   1  -3  14   53.03    1.77
   1   3  14   53.87    1.78
   1   3  14   54.04    1.77
   2  -3  14    0.83    0.15
   2   3  14    0.76    0.16
   2   3  14    1.28    0.17
  -6  -4  14    1.99    0.16
  -6   4  14    2.15    0.18
   5  -4 -14   20.50    0.74
  -5  -4  14   21.56    0.74
  -5   4  14   19.75    0.76
  -5   4  14   21.47    0.74
   4  -4 -14    1.80    0.18
  -4  -4  14    1.45    0.18
  -4   4  14    1.46    0.24
  -4   4  14    1.66    0.18
  -3  -4  14    5.68    0.30
  -3  -4  14    5.91    0.31
  -3   4  14    5.80    0.30
  -3   4  14    5.52    0.38
  -2  -4  14   24.91    0.88
  -2  -4  14   24.27    0.88
  -2   4  14   24.71    0.88
  -2   4  14   23.96    0.87
  -2   4  14   24.18    0.88
  -1  -4  14    0.95    0.17
  -1  -4  14    1.46    0.17
   1  -4 -14    1.26    0.18
  -1   4  14    1.34    0.19
  -1   4  14    1.71    0.19
  -1   4  14    1.46    0.21
   0  -4 -14   25.98    0.91
   0  -4  14   25.70    0.92
   0  -4  14   25.74    0.91
   0   4  14   26.15    0.92
   0   4  14   26.50    0.92
   1  -4  14    0.35    0.09
   1  -4  14    0.74    0.15
   1   4  14    0.27    0.11
   1   4  14    0.49    0.11
   2  -4  14    1.25    0.16
   2   4  14    1.33    0.17
   2   4  14    1.21    0.17
  -6  -5  14    0.64    0.14
  -6   5  14    0.34    0.12
   5  -5 -14    4.12    0.27
  -5  -5  14    4.19    0.23
  -5   5  14    4.24    0.24
  -5   5  14    4.09    0.30
  -4  -5  14   13.81    0.53
   4  -5 -14   13.73    0.53
  -4   5  14   13.98    0.54
  -4   5  14   13.78    0.53
  -3  -5  14   10.53    0.43
   3  -5 -14   10.50    0.44
  -3  -5  14   10.14    0.44
  -3   5  14   10.22    0.45
  -3   5  14   10.75    0.44
  -2  -5  14    0.49    0.12
  -2  -5  14    0.29    0.11
  -2  -5  14    0.51    0.12
   2  -5 -14    0.48    0.11
  -2   5  14    0.53    0.13
  -2   5  14    0.48    0.13
  -2   5  14    0.66    0.13
  -1  -5  14    0.11    0.11
   1  -5 -14    0.10    0.09
  -1  -5  14    0.02    0.09
  -1   5  14    0.00    0.11
  -1   5  14   -0.10    0.11
  -1   5  14    0.01    0.11
   0  -5  14    6.78    0.31
   0  -5 -14    6.35    0.32
   0  -5  14    6.87    0.32
   0   5  14    7.35    0.33
   0   5  14    7.07    0.32
   1  -5  14   24.01    0.83
   1  -5  14   22.90    0.85
   1   5  14   24.16    0.83
  -6  -6  14    3.73    0.21
  -5  -6  14    0.16    0.10
   5  -6 -14    0.04    0.13
  -5   6  14   -0.04    0.11
  -5   6  14   -0.10    0.15
   4  -6 -14    0.65    0.16
  -4  -6  14    0.37    0.11
  -4   6  14    0.77    0.20
  -4   6  14    0.31    0.12
   3  -6 -14   13.68    0.54
  -3  -6  14   13.57    0.56
  -3  -6  14   14.34    0.55
  -3  -6  14   13.99    0.54
  -3   6  14   14.22    0.54
  -3   6  14   14.04    0.55
  -2  -6  14    0.66    0.12
   2  -6 -14    0.59    0.16
  -2  -6  14    0.67    0.17
  -2  -6  14    0.72    0.13
  -2   6  14    0.72    0.18
  -2   6  14    0.47    0.13
  -1  -6  14    2.46    0.20
   1  -6 -14    2.32    0.20
  -1  -6  14    3.12    0.22
  -1   6  14    2.52    0.22
  -1   6  14    2.31    0.21
   0  -6  14    0.12    0.11
   0  -6  14    0.59    0.14
   0  -6 -14    0.20    0.12
   0   6  14    0.36    0.10
   0   6  14    0.50    0.12
   1  -6  14    3.39    0.21
   1  -6  14    3.97    0.22
   1   6  14    3.72    0.23
   1   6  14    4.27    0.28
   5  -7 -14    2.87    0.26
  -5  -7  14    3.11    0.20
  -5   7  14    3.17    0.25
  -5   7  14    2.97    0.23
  -4  -7  14   14.78    0.55
   4  -7 -14   15.08    0.55
  -4  -7  14   12.93    0.59
  -4   7  14   15.14    0.55
  -4   7  14   14.89    0.56
  -3  -7  14    2.53    0.21
  -3  -7  14    2.59    0.21
  -3  -7  14    2.35    0.21
   3  -7 -14    2.50    0.20
  -3   7  14    2.83    0.22
  -3   7  14    2.76    0.22
  -2  -7  14   -0.02    0.09
  -2  -7  14    0.03    0.09
  -2  -7  14    0.07    0.11
   2  -7 -14    0.10    0.09
  -2   7  14    0.05    0.11
  -2   7  14    0.12    0.12
  -1  -7  14    1.18    0.18
  -1  -7  14    1.30    0.19
   1  -7 -14    1.47    0.17
  -1  -7  14    1.53    0.16
  -1   7  14    1.38    0.18
  -1   7  14    1.33    0.19
   0  -7  14    3.60    0.23
   0  -7  14    3.49    0.21
   0  -7 -14    3.59    0.24
   0   7  14    3.72    0.23
   0   7  14    3.70    0.22
   1  -7  14    0.02    0.11
   1  -7  14    0.01    0.09
   1   7  14    0.15    0.10
   1   7  14    0.01    0.13
   5  -8 -14    0.13    0.18
  -5  -8  14    0.35    0.11
  -5   8  14    0.44    0.13
  -5   8  14    0.44    0.20
  -4  -8  14    7.18    0.31
  -4  -8  14    6.81    0.35
   4  -8 -14    7.03    0.31
  -4   8  14    6.39    0.35
  -4   8  14    7.26    0.33
  -3  -8  14    0.60    0.15
  -3  -8  14    0.47    0.12
   3  -8 -14    0.20    0.09
  -3  -8  14    0.40    0.12
  -3   8  14    0.19    0.11
  -3   8  14    0.39    0.14
   2  -8 -14    1.19    0.16
  -2  -8  14    0.94    0.17
  -2  -8  14    1.25    0.19
  -2  -8  14    1.02    0.17
  -2   8  14    1.07    0.18
  -2   8  14    0.88    0.20
  -1  -8  14   22.46    0.82
  -1  -8  14   22.03    0.81
  -1  -8  14   22.94    0.81
   1  -8 -14   23.32    0.81
  -1   8  14   22.53    0.82
  -1   8  14   23.11    0.81
   0  -8 -14    0.11    0.11
   0  -8  14    0.11    0.09
   0   8  14    0.08    0.13
   0   8  14    0.04    0.09
   1  -8  14    0.44    0.14
   1  -8  14    0.53    0.10
   1   8  14    0.49    0.10
  -5  -9  14   10.75    0.42
  -5   9  14   10.87    0.43
  -4  -9  14    0.10    0.12
  -4  -9  14   -0.05    0.14
   4  -9 -14    0.10    0.09
  -4   9  14    0.34    0.18
  -4   9  14    0.22    0.11
  -3  -9  14    1.56    0.20
  -3  -9  14    1.90    0.19
  -3  -9  14    1.50    0.17
   3  -9 -14    1.64    0.17
  -3   9  14    1.53    0.19
  -3   9  14    1.51    0.34
  -2  -9  14    3.47    0.23
  -2  -9  14    3.46    0.23
  -2  -9  14    3.71    0.24
   2  -9 -14    3.33    0.21
  -2   9  14    3.52    0.27
  -2   9  14    3.55    0.23
  -1  -9  14    4.40    0.24
  -1  -9  14    4.34    0.25
   1  -9 -14    4.79    0.24
  -1  -9  14    4.50    0.26
  -1   9  14    4.39    0.25
  -1   9  14    4.06    0.31
   0  -9  14    6.34    0.29
   0  -9  14    6.51    0.32
   0  -9 -14    6.30    0.31
   0   9  14    6.75    0.30
   0   9  14    6.43    0.35
   1  -9  14    3.13    0.20
   1   9  14    3.44    0.20
  -5  10  14    1.87    0.18
  -4 -10  14   -0.18    0.13
  -4 -10  14    0.02    0.14
  -4  10  14    0.18    0.10
  -3 -10  14    0.22    0.10
  -3 -10  14    0.18    0.10
  -3 -10  14    0.11    0.14
   3 -10 -14    0.51    0.13
  -3  10  14    0.31    0.11
  -2 -10  14    1.71    0.18
  -2 -10  14    1.73    0.18
  -2 -10  14    1.67    0.25
   2 -10 -14    1.66    0.16
  -2  10  14    1.74    0.18
  -1 -10  14    0.32    0.10
   1 -10 -14    0.21    0.09
  -1 -10  14    0.17    0.15
  -1 -10  14    0.36    0.09
  -1  10  14    0.30    0.10
   0 -10 -14    5.50    0.26
   0 -10  14    5.33    0.38
   0 -10 -14    5.12    0.29
   0  10  14    5.49    0.26
  -1 -10 -14    0.28    0.08
   1  10  14    0.27    0.10
  -5  11  14   -0.09    0.11
   4 -11 -14    0.76    0.16
  -4 -11  14    0.66    0.14
  -4  11  14    0.73    0.15
  -3 -11  14    2.11    0.18
   3 -11 -14    2.21    0.17
  -3 -11  14    2.29    0.19
  -3  11  14    1.96    0.18
  -2 -11  14    0.01    0.09
  -2 -11  14    0.37    0.29
  -2 -11  14    0.26    0.09
   2 -11 -14    0.22    0.09
  -2  11  14    0.11    0.10
  -1 -11  14    0.18    0.09
  -1 -11  14   -0.01    0.08
   1 -11 -14   -0.03    0.12
   1 -11 -14   -0.11    0.08
  -1  11  14    0.01    0.09
   0 -11 -14    6.21    0.28
   0 -11 -14    5.66    0.32
   0  11  14    6.25    0.28
   4 -12 -14    2.35    0.18
  -4 -12  14    2.14    0.24
  -4  12  14    2.24    0.18
   3 -12 -14    2.09    0.16
  -3 -12  14    1.84    0.17
  -3 -12  14    1.52    0.19
  -3  12  14    2.03    0.17
  -2 -12  14   -0.01    0.09
  -2 -12  14    0.24    0.09
   2 -12 -14    0.08    0.08
  -2  12  14    0.12    0.09
  -1 -12  14    1.17    0.20
   1 -12 -14    1.83    0.24
   1 -12 -14    1.41    0.16
  -1 -12  14    1.47    0.16
  -1  12  14    1.43    0.18
   0 -12  14    0.90    0.14
   0 -12 -14    0.95    0.17
   0  12  14    1.02    0.15
   4 -13 -14    3.84    0.22
  -4  13  14    4.11    0.22
   3 -13 -14    0.73    0.14
  -3 -13  14    0.84    0.15
  -3  13  14    0.63    0.14
   2 -13 -14    0.02    0.09
  -2 -13  14    0.13    0.08
  -2 -13  14   -0.06    0.09
  -2  13  14    0.11    0.09
  -1 -13  14    2.15    0.16
  -1 -13  14    2.28    0.17
   1 -13 -14    2.39    0.18
  -1  13  14    2.28    0.17
   0 -13  14    3.03    0.19
   0  13  14    2.97    0.19
  -3 -14  14    0.67    0.14
  -3 -14  14    0.65    0.13
   3 -14 -14    0.51    0.13
  -3  14  14    0.68    0.14
   2 -14 -14    0.19    0.08
  -2 -14  14    0.52    0.13
  -2 -14  14    0.22    0.09
  -2  14  14    0.54    0.14
  -1 -14  14    0.09    0.08
   1 -14 -14    0.13    0.10
  -1 -14  14    0.05    0.09
  -1  14  14    0.06    0.09
  -2 -15  14    3.74    0.19
   2 -15 -14    3.76    0.20
  -2 -15  14    3.66    0.19
  -2  15  14    3.53    0.20
  -5   0  15   -0.05    0.08
   4   0 -15   -0.10    0.11
  -4   0  15   -0.03    0.08
  -3   0  15   -0.01    0.09
  -3   0  15    0.08    0.15
  -2   0  15    0.23    0.10
  -2   0  15   -0.08    0.09
  -1   0  15    0.27    0.09
  -1   0  15   -0.11    0.09
   0   0 -15   -0.10    0.13
  -5  -1  15    0.25    0.09
  -5   1  15    0.31    0.09
  -4  -1  15    1.44    0.15
   4  -1 -15    1.53    0.22
  -4   1  15    1.50    0.15
  -3  -1  15    8.18    0.34
  -3  -1  15    7.75    0.36
  -3   1  15    8.15    0.34
  -3   1  15    6.95    0.39
  -2  -1  15    3.65    0.21
  -2  -1  15    3.25    0.22
  -2   1  15    3.41    0.21
  -2   1  15    3.32    0.22
  -2   1  15    3.26    0.35
  -1  -1  15    1.83    0.16
   1  -1 -15    1.95    0.17
  -1  -1  15    1.82    0.17
  -1   1  15    2.08    0.26
  -1   1  15    1.83    0.16
  -1   1  15    1.71    0.17
   0  -1 -15    4.85    0.30
   0   1 -15    4.62    0.29
   0   1  15    4.74    0.30
  -5  -2  15    2.81    0.17
  -5   2  15    2.61    0.18
  -4  -2  15    3.87    0.21
  -4   2  15    3.49    0.20
  -3  -2  15   -0.06    0.09
   3  -2 -15   -0.05    0.09
  -3  -2  15   -0.02    0.12
  -3   2  15    0.02    0.09
  -2  -2  15    5.90    0.28
   2  -2 -15    6.13    0.28
  -2  -2  15    5.78    0.28
  -2   2  15    5.88    0.29
  -2   2  15    5.62    0.28
  -2   2  15    5.48    0.32
  -1  -2  15    0.15    0.09
  -1  -2  15    0.02    0.08
   1  -2 -15    0.22    0.09
  -1   2  15    0.14    0.09
  -1   2  15   -0.13    0.13
  -1   2  15    0.09    0.09
   0  -2  15    7.34    0.32
   0  -2 -15    6.64    0.36
   0  -2  15    7.99    0.35
   0   2  15    7.68    0.31
   0   2  15    7.82    0.34
   0   2 -15    6.89    0.34
  -5  -3  15    0.29    0.09
  -5   3  15    0.37    0.10
   4  -3 -15    3.13    0.24
  -4  -3  15    2.98    0.19
  -4   3  15    3.00    0.21
  -3  -3  15    0.83    0.19
   3  -3 -15    0.84    0.15
  -3  -3  15    0.61    0.15
  -3   3  15    0.51    0.11
  -3   3  15    0.67    0.17
  -2  -3  15    0.20    0.10
  -2  -3  15    0.09    0.09
   2  -3 -15    0.10    0.08
  -2   3  15    0.09    0.09
  -2   3  15    0.17    0.14
  -1  -3  15    7.47    0.32
   1  -3 -15    7.65    0.32
  -1  -3  15    7.36    0.32
  -1   3  15    7.23    0.32
  -1   3  15    7.10    0.33
   0  -3  15   16.77    0.59
   0  -3  15   16.41    0.59
   0   3 -15   14.41    0.61
   0   3  15   17.00    0.59
   0   3  15   16.98    0.60
  -5  -4  15    2.91    0.17
  -5   4  15    2.41    0.19
  -4  -4  15    0.13    0.12
   4  -4 -15    0.24    0.09
  -4   4  15    0.09    0.10
  -3  -4  15    0.16    0.10
  -3  -4  15    0.19    0.12
   3  -4 -15    0.06    0.08
  -3   4  15    0.22    0.11
  -3   4  15    0.22    0.14
   2  -4 -15    3.42    0.20
  -2  -4  15    3.41    0.21
  -2  -4  15    3.30    0.21
  -2   4  15    2.94    0.28
  -2   4  15    3.50    0.21
  -1  -4  15    4.47    0.23
  -1  -4  15    4.60    0.24
   1  -4 -15    4.65    0.26
  -1   4  15    4.89    0.26
  -1   4  15    4.64    0.24
   0  -4  15    6.33    0.27
   0  -4  15    6.21    0.27
   0   4  15    6.34    0.28
   0   4  15    5.93    0.29
  -5  -5  15    1.36    0.15
  -4  -5  15    0.28    0.09
   4  -5 -15    0.66    0.14
  -4   5  15    0.55    0.18
  -4   5  15    0.29    0.11
  -3  -5  15    6.58    0.30
  -3  -5  15    6.66    0.31
   3  -5 -15    6.56    0.30
  -3   5  15    7.00    0.33
  -3   5  15    6.99    0.32
  -2  -5  15   11.01    0.43
  -2  -5  15   11.15    0.43
   2  -5 -15   11.31    0.43
  -2   5  15   11.31    0.43
  -2   5  15   10.53    0.49
  -1  -5  15    1.26    0.15
   1  -5 -15    1.03    0.22
  -1  -5  15    0.84    0.19
  -1   5  15    1.05    0.17
  -1   5  15    1.57    0.19
   0  -5  15    6.93    0.30
   0  -5  15    7.17    0.29
   0   5  15    7.00    0.30
   0   5  15    6.76    0.30
   4  -6 -15    2.79    0.19
  -4  -6  15    3.12    0.19
  -4   6  15    2.94    0.21
  -4   6  15    3.21    0.25
   3  -6 -15    5.93    0.27
  -3  -6  15    5.70    0.28
  -3   6  15    5.79    0.28
  -3   6  15    5.88    0.29
  -2  -6  15   10.86    0.44
  -2  -6  15   11.90    0.51
   2  -6 -15   11.61    0.44
  -2   6  15   11.88    0.45
  -2   6  15   11.27    0.48
  -1  -6  15    1.13    0.16
   1  -6 -15    1.07    0.16
  -1  -6  15    1.03    0.16
  -1   6  15    1.11    0.16
  -1   6  15    1.02    0.17
   0  -6  15    0.85    0.16
   0  -6  15    0.70    0.13
   0   6  15    0.47    0.11
   0   6  15    1.00    0.18
  -4  -7  15    2.94    0.21
   4  -7 -15    3.43    0.19
  -4   7  15    3.17    0.24
  -3  -7  15   -0.05    0.10
   3  -7 -15    0.11    0.10
  -3  -7  15   -0.04    0.10
  -3   7  15    0.02    0.13
  -3   7  15    0.15    0.11
   2  -7 -15    3.93    0.21
  -2  -7  15    3.60    0.23
  -2   7  15    3.73    0.24
  -2   7  15    4.04    0.23
  -1  -7  15    0.58    0.14
   1  -7 -15    0.65    0.14
  -1  -7  15    0.59    0.12
  -1   7  15    0.68    0.13
  -1   7  15    0.58    0.15
   0  -7  15    3.28    0.18
   0   7  15    3.24    0.20
   4  -8 -15    2.29    0.17
  -4   8  15    2.07    0.21
  -3  -8  15   13.19    0.50
  -3  -8  15   13.07    0.50
   3  -8 -15   13.87    0.50
  -3   8  15   13.86    0.50
  -2  -8  15    5.14    0.26
   2  -8 -15    4.97    0.24
  -2  -8  15    4.81    0.23
  -2   8  15    4.79    0.25
  -2   8  15    4.06    0.29
  -1  -8  15    8.15    0.32
  -1  -8  15    7.72    0.34
   1  -8 -15    7.52    0.34
   1  -8 -15    8.24    0.33
  -1   8  15    8.22    0.33
   4  -9 -15   11.36    0.44
  -4   9  15   12.08    0.50
  -3  -9  15    0.10    0.10
   3  -9 -15    0.23    0.08
  -3   9  15    0.11    0.10
   2  -9 -15    2.72    0.17
  -2   9  15    2.53    0.19
   1  -9 -15    7.63    0.31
  -1  -9  15    7.30    0.30
  -1   9  15    7.25    0.31
   3 -10 -15    0.01    0.08
  -3 -10  15    0.09    0.11
  -3  10  15    0.01    0.09
   2 -10 -15   12.80    0.46
  -2  10  15   12.19    0.46
  -1  10  15    4.20    0.21
  -2 -11  15    0.09    0.08
   2 -11 -15    0.17    0.09
  -2  11  15    0.32    0.09
  -3   0  16   16.68    0.59
   3   0 -16   16.84    0.59
  -2   0  16    0.29    0.09
   2   0 -16    0.09    0.08
   3  -1 -16    0.06    0.08
  -3  -1  16    0.14    0.09
   3   1 -16    0.06    0.08
  -3   1  16    0.01    0.09
   2  -1 -16    6.41    0.28
  -2  -1  16    6.51    0.28
  -2   1  16    6.79    0.28
   2   1 -16    6.89    0.28
  -3  -2  16   16.44    0.58
   3  -2 -16   17.01    0.59
   3   2 -16   16.80    0.59
  -3   2  16   16.10    0.58
  -2  -2  16    0.46    0.09
   2  -2 -16    0.57    0.14
  -2   2  16    0.82    0.14
   2   2 -16    0.72    0.14
   3  -3 -16    3.79    0.20
  -3  -3  16    4.14    0.21
   3   3 -16    3.93    0.21
  -3   3  16    3.80    0.21
  -2  -3  16    6.99    0.29
   2  -3 -16    7.04    0.29
  -2   3  16    7.03    0.29
   2   3 -16    7.06    0.29
   0   0   0    0.00    0.00
;
_shelx_hkl_checksum              47346
_shelx_res_file
;
    SKM187_0m.res created by SHELXL-2014/7
TITL SKM187_0m_a.res in P2(1)/c
REM Old TITL SKM187_0m in P2(1)/c
REM SHELXT solution in P2(1)/c
REM R1 0.126,  Rweak 0.006,  Alpha 0.021,  Orientation as input
REM Formula found by SHELXT:  C21 N3 O2 Cl2
CELL  1.54178   7.2363  24.2600  12.9049   90.000  105.603   90.000
ZERR    4.000   0.0002   0.0007   0.0004    0.000    0.001    0.000
LATT  1
SYMM -X, 1/2+Y, 1/2-Z
SFAC C H N O S CL
UNIT 84 96 12 8 4 4
TEMP -123
SIZE 0.132 0.14 0.264
L.S. 5
BOND $H
LIST 4
FMAP 2
ACTA 137
CONF
HTAB N3 S1
HTAB N3 N1
EQIV $1 x, -y+3/2, z-1/2
HTAB N3 S1_$1
HTAB N3 N2_$1
HTAB C6 S1_$1
MPLA C8 > C13
MPLA N1 C1 > C5
PLAN 5
WGHT    0.053800    0.834800
FVAR       0.20066
CL1   6   -0.399994    0.477475    0.814954    11.00000    0.04796    0.04160 =
         0.06058    0.00572    0.02511   -0.01460
S1    5    0.592337    0.728820    0.829123    11.00000    0.02572    0.02913 =
         0.02096   -0.00248    0.00555   -0.00411
O1    4   -0.017087    0.599433    0.412971    11.00000    0.03943    0.06540 =
         0.03551   -0.02630    0.00938   -0.00498
O2    4   -0.214296    0.635920    0.501492    11.00000    0.02449    0.05212 =
         0.03108   -0.01201    0.00379   -0.00411
N1    3    0.377671    0.713207    0.629006    11.00000    0.02666    0.02665 =
         0.02111   -0.00105    0.00803   -0.00124
N2    3    0.324604    0.632951    0.960283    11.00000    0.03999    0.05123 =
         0.02468    0.00530    0.00440   -0.01186
C1    1    0.406403    0.699097    0.734331    11.00000    0.02396    0.02372 =
         0.02099   -0.00170    0.00758    0.00276
C2    1    0.280375    0.660164    0.761562    11.00000    0.02486    0.02494 =
         0.01974    0.00003    0.00698    0.00107
C3    1    0.132270    0.635366    0.683312    11.00000    0.02305    0.02276 =
         0.02187   -0.00170    0.00730    0.00217
C4    1    0.112253    0.649982    0.575834    11.00000    0.02414    0.02560 =
         0.01939   -0.00288    0.00558    0.00066
C5    1    0.235507    0.689695    0.552711    11.00000    0.02650    0.02744 =
         0.02055   -0.00151    0.00730    0.00080
C6    1    0.208413    0.710527    0.439907    11.00000    0.03919    0.04003 =
         0.02065    0.00137    0.00792   -0.00759
AFIX 137
H6A   2    0.210278    0.679380    0.391841    11.00000   -1.50000
H6B   2    0.312348    0.736122    0.438240    11.00000   -1.50000
H6C   2    0.084948    0.729660    0.416096    11.00000   -1.50000
AFIX   0
C7    1    0.307148    0.645254    0.872397    11.00000    0.02568    0.03023 =
         0.02401   -0.00058    0.00495   -0.00463
C8    1    0.002035    0.595271    0.715256    11.00000    0.02357    0.02546 =
         0.01891    0.00040    0.00434   -0.00012
C9    1   -0.125104    0.614116    0.771620    11.00000    0.02997    0.02526 =
         0.02751   -0.00374    0.01069   -0.00141
AFIX  43
H9    2   -0.126817    0.652117    0.789113    11.00000   -1.20000
AFIX   0
C10   1   -0.248772    0.578059    0.802334    11.00000    0.02973    0.03409 =
         0.02921   -0.00172    0.01310   -0.00115
AFIX  43
H10   2   -0.336132    0.591047    0.840119    11.00000   -1.20000
AFIX   0
C11   1   -0.243079    0.522614    0.777033    11.00000    0.02898    0.03001 =
         0.02878    0.00453    0.00660   -0.00528
C12   1   -0.117551    0.502821    0.722010    11.00000    0.03359    0.02253 =
         0.02962    0.00113    0.00566   -0.00018
AFIX  43
H12   2   -0.114984    0.464685    0.705735    11.00000   -1.20000
AFIX   0
C13   1    0.005044    0.539492    0.690758    11.00000    0.02765    0.02635 =
         0.02454   -0.00048    0.00743    0.00203
AFIX  43
H13   2    0.091392    0.526372    0.652438    11.00000   -1.20000
AFIX   0
C14   1   -0.043307    0.624925    0.487680    11.00000    0.02919    0.02899 =
         0.02093   -0.00127    0.00595   -0.00219
C15   1   -0.382691    0.610230    0.429399    11.00000    0.02976    0.06680 =
         0.03449   -0.00862   -0.00139   -0.01173
AFIX  23
H15A  2   -0.343211    0.585042    0.378888    11.00000   -1.20000
H15B  2   -0.468204    0.638790    0.387010    11.00000   -1.20000
AFIX   0
C16   1   -0.485297    0.578773    0.496764    11.00000    0.03674    0.04497 =
         0.04780    0.00445   -0.00206   -0.00835
AFIX 137
H16A  2   -0.607893    0.565212    0.451197    11.00000   -1.50000
H16B  2   -0.508993    0.603014    0.552573    11.00000   -1.50000
H16C  2   -0.406241    0.547479    0.530664    11.00000   -1.50000
AFIX   0
N3    3    0.654976    0.795201    0.597896    11.00000    0.02751    0.02722 =
         0.02003   -0.00007    0.00686   -0.00087
H3A   2    0.571944    0.769400    0.612452    11.00000    0.03775
H3B   2    0.603886    0.804044    0.525878    11.00000    0.03608
C17   1    0.660617    0.846285    0.663294    11.00000    0.03287    0.02968 =
         0.02335   -0.00456    0.00783    0.00282
AFIX  23
H17A  2    0.713546    0.837547    0.740546    11.00000   -1.20000
H17B  2    0.528805    0.860659    0.652750    11.00000   -1.20000
AFIX   0
C18   1    0.783587    0.889534    0.630221    11.00000    0.03688    0.02733 =
         0.03064   -0.00307    0.00577   -0.00022
AFIX  23
H18A  2    0.790365    0.922586    0.676090    11.00000   -1.20000
H18B  2    0.724124    0.900511    0.554710    11.00000   -1.20000
AFIX   0
C19   1    0.985403    0.868069    0.640686    11.00000    0.03325    0.03639 =
         0.03220   -0.00374    0.00688   -0.00659
AFIX  23
H19A  2    1.051980    0.862375    0.717643    11.00000   -1.20000
H19B  2    1.058638    0.895741    0.611549    11.00000   -1.20000
AFIX   0
C20   1    0.979664    0.813826    0.579993    11.00000    0.02919    0.03926 =
         0.03324   -0.00616    0.01134   -0.00014
AFIX  23
H20A  2    0.932871    0.820895    0.501732    11.00000   -1.20000
H20B  2    1.111270    0.798716    0.594713    11.00000   -1.20000
AFIX   0
C21   1    0.850607    0.771614    0.612091    11.00000    0.03056    0.02906 =
         0.02951   -0.00227    0.00703    0.00443
AFIX  23
H21A  2    0.842363    0.738201    0.567031    11.00000   -1.20000
H21B  2    0.905439    0.760873    0.688188    11.00000   -1.20000
AFIX   0
HKLF 4
REM  SKM187_0m_a.res in P2(1)/c
REM R1 =  0.0364 for    3985 Fo > 4sig(Fo)  and  0.0396 for all    4350 data
REM    263 parameters refined using      0 restraints
END
WGHT      0.0538      0.8348
REM Highest difference peak  0.263,  deepest hole -0.458,  1-sigma level  0.050
Q1    1  -0.3437  0.5750  0.4399  11.00000  0.05    0.26
Q2    1  -0.0249  0.5758  0.4595  11.00000  0.05    0.22
Q3    1   0.0372  0.6396  0.5378  11.00000  0.05    0.20
Q4    1  -0.1891  0.6050  0.5169  11.00000  0.05    0.19
Q5    1  -0.0634  0.6061  0.7391  11.00000  0.05    0.18
;
_shelx_res_checksum              78300
loop_
_symmetry_equiv_pos_as_xyz
'x, y, z'
'-x, y+1/2, -z+1/2'
'-x, -y, -z'
'x, -y-1/2, z-1/2'
loop_
_atom_site_type_symbol
_atom_site_label
_atom_site_fract_x
_atom_site_fract_y
_atom_site_fract_z
_atom_site_U_iso_or_equiv
_atom_site_adp_type
_atom_site_calc_flag
_atom_site_occupancy
Cl Cl1 -0.39999(7) 0.47748(2) 0.81495(4) 0.04801(14) Uani d 1
S S1 0.59234(5) 0.72882(2) 0.82912(3) 0.02541(11) Uani d 1
O O1 -0.01709(18) 0.59943(6) 0.41297(10) 0.0469(3) Uani d 1
O O2 -0.21430(15) 0.63592(5) 0.50149(9) 0.0366(3) Uani d 1
N N1 0.37767(17) 0.71321(5) 0.62901(9) 0.0245(2) Uani d 1
N N2 0.3246(2) 0.63295(6) 0.96028(10) 0.0395(3) Uani d 1
C C1 0.4064(2) 0.69910(6) 0.73433(11) 0.0226(3) Uani d 1
C C2 0.2804(2) 0.66016(6) 0.76156(10) 0.0230(3) Uani d 1
C C3 0.13227(19) 0.63537(6) 0.68331(10) 0.0223(3) Uani d 1
C C4 0.1123(2) 0.64998(6) 0.57583(10) 0.0231(3) Uani d 1
C C5 0.2355(2) 0.68969(6) 0.55271(11) 0.0246(3) Uani d 1
C C6 0.2084(2) 0.71053(7) 0.43991(11) 0.0333(3) Uani d 1
H H6A 0.2103 0.6794 0.3918 0.050 Uiso calc 1
H H6B 0.3123 0.7361 0.4382 0.050 Uiso calc 1
H H6C 0.0849 0.7297 0.4161 0.050 Uiso calc 1
C C7 0.3071(2) 0.64525(6) 0.87240(11) 0.0270(3) Uani d 1
C C8 0.0020(2) 0.59527(6) 0.71526(10) 0.0229(3) Uani d 1
C C9 -0.1251(2) 0.61412(6) 0.77162(11) 0.0270(3) Uani d 1
H H9 -0.1268 0.6521 0.7891 0.032 Uiso calc 1
C C10 -0.2488(2) 0.57806(6) 0.80233(12) 0.0300(3) Uani d 1
H H10 -0.3361 0.5910 0.8401 0.036 Uiso calc 1
C C11 -0.2431(2) 0.52261(6) 0.77703(12) 0.0295(3) Uani d 1
C C12 -0.1176(2) 0.50282(6) 0.72201(12) 0.0291(3) Uani d 1
H H12 -0.1150 0.4647 0.7057 0.035 Uiso calc 1
C C13 0.0050(2) 0.53949(6) 0.69076(11) 0.0261(3) Uani d 1
H H13 0.0914 0.5264 0.6524 0.031 Uiso calc 1
C C14 -0.0433(2) 0.62493(6) 0.48768(11) 0.0265(3) Uani d 1
C C15 -0.3827(3) 0.61023(9) 0.42940(14) 0.0456(4) Uani d 1
H H15A -0.3432 0.5850 0.3789 0.055 Uiso calc 1
H H15B -0.4682 0.6388 0.3870 0.055 Uiso calc 1
C C16 -0.4853(3) 0.57877(8) 0.49676(16) 0.0458(4) Uani d 1
H H16A -0.6079 0.5652 0.4512 0.069 Uiso calc 1
H H16B -0.5090 0.6030 0.5526 0.069 Uiso calc 1
H H16C -0.4062 0.5475 0.5307 0.069 Uiso calc 1
N N3 0.65498(18) 0.79520(5) 0.59790(9) 0.0248(3) Uani d 1
H H3A 0.572(3) 0.7694(8) 0.6125(15) 0.038(5) Uiso d 1
H H3B 0.604(3) 0.8040(8) 0.5259(16) 0.036(5) Uiso d 1
C C17 0.6606(2) 0.84628(6) 0.66329(11) 0.0286(3) Uani d 1
H H17A 0.7135 0.8375 0.7405 0.034 Uiso calc 1
H H17B 0.5288 0.8607 0.6527 0.034 Uiso calc 1
C C18 0.7836(2) 0.88953(6) 0.63022(13) 0.0323(3) Uani d 1
H H18A 0.7904 0.9226 0.6761 0.039 Uiso calc 1
H H18B 0.7241 0.9005 0.5547 0.039 Uiso calc 1
C C19 0.9854(2) 0.86807(7) 0.64069(13) 0.0343(3) Uani d 1
H H19A 1.0520 0.8624 0.7176 0.041 Uiso calc 1
H H19B 1.0586 0.8957 0.6115 0.041 Uiso calc 1
C C20 0.9797(2) 0.81383(7) 0.57999(13) 0.0333(3) Uani d 1
H H20A 0.9329 0.8209 0.5017 0.040 Uiso calc 1
H H20B 1.1113 0.7987 0.5947 0.040 Uiso calc 1
C C21 0.8506(2) 0.77161(6) 0.61209(12) 0.0299(3) Uani d 1
H H21A 0.8424 0.7382 0.5670 0.036 Uiso calc 1
H H21B 0.9054 0.7609 0.6882 0.036 Uiso calc 1
loop_
_atom_site_aniso_label
_atom_site_aniso_U_11
_atom_site_aniso_U_22
_atom_site_aniso_U_33
_atom_site_aniso_U_12
_atom_site_aniso_U_13
_atom_site_aniso_U_23
Cl1 0.0480(3) 0.0416(2) 0.0606(3) -0.01460(19) 0.0251(2) 0.00572(19)
S1 0.02572(18) 0.02913(19) 0.02096(17) -0.00411(13) 0.00555(13) -0.00248(12)
O1 0.0394(7) 0.0654(9) 0.0355(6) -0.0050(6) 0.0094(5) -0.0263(6)
O2 0.0245(5) 0.0521(7) 0.0311(5) -0.0041(5) 0.0038(4) -0.0120(5)
N1 0.0267(6) 0.0266(6) 0.0211(5) -0.0012(5) 0.0080(5) -0.0011(4)
N2 0.0400(8) 0.0512(9) 0.0247(7) -0.0119(7) 0.0044(6) 0.0053(6)
C1 0.0240(7) 0.0237(6) 0.0210(6) 0.0028(5) 0.0076(5) -0.0017(5)
C2 0.0249(7) 0.0249(6) 0.0197(6) 0.0011(5) 0.0070(5) 0.0000(5)
C3 0.0230(7) 0.0228(6) 0.0219(6) 0.0022(5) 0.0073(5) -0.0017(5)
C4 0.0241(7) 0.0256(6) 0.0194(6) 0.0007(5) 0.0056(5) -0.0029(5)
C5 0.0265(7) 0.0274(7) 0.0206(6) 0.0008(6) 0.0073(5) -0.0015(5)
C6 0.0392(9) 0.0400(8) 0.0206(7) -0.0076(7) 0.0079(6) 0.0014(6)
C7 0.0257(7) 0.0302(7) 0.0240(7) -0.0046(6) 0.0049(5) -0.0006(6)
C8 0.0236(7) 0.0255(6) 0.0189(6) -0.0001(5) 0.0043(5) 0.0004(5)
C9 0.0300(7) 0.0253(7) 0.0275(7) -0.0014(6) 0.0107(6) -0.0037(5)
C10 0.0297(7) 0.0341(8) 0.0292(7) -0.0012(6) 0.0131(6) -0.0017(6)
C11 0.0290(7) 0.0300(7) 0.0288(7) -0.0053(6) 0.0066(6) 0.0045(6)
C12 0.0336(8) 0.0225(6) 0.0296(7) -0.0002(6) 0.0057(6) 0.0011(5)
C13 0.0277(7) 0.0264(7) 0.0245(6) 0.0020(6) 0.0074(5) -0.0005(5)
C14 0.0292(7) 0.0290(7) 0.0209(6) -0.0022(6) 0.0059(5) -0.0013(5)
C15 0.0298(8) 0.0668(12) 0.0345(8) -0.0117(8) -0.0014(7) -0.0086(8)
C16 0.0367(9) 0.0450(10) 0.0478(10) -0.0083(8) -0.0021(8) 0.0044(8)
N3 0.0275(6) 0.0272(6) 0.0200(5) -0.0009(5) 0.0069(5) -0.0001(5)
C17 0.0329(8) 0.0297(7) 0.0233(6) 0.0028(6) 0.0078(6) -0.0046(5)
C18 0.0369(8) 0.0273(7) 0.0306(7) -0.0002(6) 0.0058(6) -0.0031(6)
C19 0.0333(8) 0.0364(8) 0.0322(8) -0.0066(7) 0.0069(6) -0.0037(6)
C20 0.0292(8) 0.0393(8) 0.0332(8) -0.0001(7) 0.0113(6) -0.0062(6)
C21 0.0306(8) 0.0291(7) 0.0295(7) 0.0044(6) 0.0070(6) -0.0023(6)
loop_
_atom_type_symbol
_atom_type_description
_atom_type_scat_dispersion_real
_atom_type_scat_dispersion_imag
_atom_type_scat_source
C C 0.0181 0.0091 'International Tables Vol C Tables 4.2.6.8 and 6.1.1.4'
H H 0.0000 0.0000 'International Tables Vol C Tables 4.2.6.8 and 6.1.1.4'
N N 0.0311 0.0180 'International Tables Vol C Tables 4.2.6.8 and 6.1.1.4'
O O 0.0492 0.0322 'International Tables Vol C Tables 4.2.6.8 and 6.1.1.4'
S S 0.3331 0.5567 'International Tables Vol C Tables 4.2.6.8 and 6.1.1.4'
Cl Cl 0.3639 0.7018 'International Tables Vol C Tables 4.2.6.8 and 6.1.1.4'
loop_
_geom_angle_atom_site_label_1
_geom_angle_atom_site_label_2
_geom_angle_atom_site_label_3
_geom_angle
C14 O2 C15 118.59(13)
C5 N1 C1 120.36(12)
N1 C1 C2 118.54(12)
N1 C1 S1 119.07(10)
C2 C1 S1 122.38(10)
C3 C2 C1 121.77(12)
C3 C2 C7 118.90(13)
C1 C2 C7 119.32(12)
C2 C3 C4 117.52(13)
C2 C3 C8 120.11(12)
C4 C3 C8 122.37(12)
C5 C4 C3 118.92(12)
C5 C4 C14 120.65(12)
C3 C4 C14 120.39(12)
N1 C5 C4 122.83(12)
N1 C5 C6 116.19(13)
C4 C5 C6 120.91(13)
C5 C6 H6A 109.5
C5 C6 H6B 109.5
H6A C6 H6B 109.5
C5 C6 H6C 109.5
H6A C6 H6C 109.5
H6B C6 H6C 109.5
N2 C7 C2 178.55(16)
C13 C8 C9 119.36(13)
C13 C8 C3 121.55(12)
C9 C8 C3 119.09(12)
C10 C9 C8 120.70(14)
C10 C9 H9 119.7
C8 C9 H9 119.7
C9 C10 C11 118.89(14)
C9 C10 H10 120.6
C11 C10 H10 120.6
C12 C11 C10 121.56(14)
C12 C11 Cl1 119.68(12)
C10 C11 Cl1 118.76(12)
C11 C12 C13 119.07(14)
C11 C12 H12 120.5
C13 C12 H12 120.5
C12 C13 C8 120.41(13)
C12 C13 H13 119.8
C8 C13 H13 119.8
O1 C14 O2 124.49(14)
O1 C14 C4 124.71(14)
O2 C14 C4 110.78(12)
O2 C15 C16 107.90(14)
O2 C15 H15A 110.1
C16 C15 H15A 110.1
O2 C15 H15B 110.1
C16 C15 H15B 110.1
H15A C15 H15B 108.4
C15 C16 H16A 109.5
C15 C16 H16B 109.5
H16A C16 H16B 109.5
C15 C16 H16C 109.5
H16A C16 H16C 109.5
H16B C16 H16C 109.5
C21 N3 C17 111.59(11)
C21 N3 H3A 111.3(12)
C17 N3 H3A 111.6(12)
C21 N3 H3B 108.7(12)
C17 N3 H3B 108.5(12)
H3A N3 H3B 104.8(17)
N3 C17 C18 110.21(12)
N3 C17 H17A 109.6
C18 C17 H17A 109.6
N3 C17 H17B 109.6
C18 C17 H17B 109.6
H17A C17 H17B 108.1
C17 C18 C19 111.20(13)
C17 C18 H18A 109.4
C19 C18 H18A 109.4
C17 C18 H18B 109.4
C19 C18 H18B 109.4
H18A C18 H18B 108.0
C18 C19 C20 110.88(13)
C18 C19 H19A 109.5
C20 C19 H19A 109.5
C18 C19 H19B 109.5
C20 C19 H19B 109.5
H19A C19 H19B 108.1
C21 C20 C19 112.07(13)
C21 C20 H20A 109.2
C19 C20 H20A 109.2
C21 C20 H20B 109.2
C19 C20 H20B 109.2
H20A C20 H20B 107.9
N3 C21 C20 109.95(12)
N3 C21 H21A 109.7
C20 C21 H21A 109.7
N3 C21 H21B 109.7
C20 C21 H21B 109.7
H21A C21 H21B 108.2
loop_
_geom_bond_atom_site_label_1
_geom_bond_atom_site_label_2
_geom_bond_distance
Cl1 C11 1.7398(15)
S1 C1 1.7150(14)
O1 C14 1.2027(18)
O2 C14 1.3238(19)
O2 C15 1.4591(19)
N1 C5 1.3447(18)
N1 C1 1.3623(17)
N2 C7 1.146(2)
C1 C2 1.4212(19)
C2 C3 1.3957(19)
C2 C7 1.4371(19)
C3 C4 1.4009(18)
C3 C8 1.4877(19)
C4 C5 1.399(2)
C4 C14 1.4973(19)
C5 C6 1.5031(19)
C6 H6A 0.9800
C6 H6B 0.9800
C6 H6C 0.9800
C8 C13 1.3912(19)
C8 C9 1.3945(19)
C9 C10 1.383(2)
C9 H9 0.9500
C10 C11 1.387(2)
C10 H10 0.9500
C11 C12 1.381(2)
C12 C13 1.391(2)
C12 H12 0.9500
C13 H13 0.9500
C15 C16 1.496(3)
C15 H15A 0.9900
C15 H15B 0.9900
C16 H16A 0.9800
C16 H16B 0.9800
C16 H16C 0.9800
N3 C21 1.4918(19)
N3 C17 1.4937(18)
N3 H3A 0.92(2)
N3 H3B 0.93(2)
C17 C18 1.510(2)
C17 H17A 0.9900
C17 H17B 0.9900
C18 C19 1.522(2)
C18 H18A 0.9900
C18 H18B 0.9900
C19 C20 1.526(2)
C19 H19A 0.9900
C19 H19B 0.9900
C20 C21 1.517(2)
C20 H20A 0.9900
C20 H20B 0.9900
C21 H21A 0.9900
C21 H21B 0.9900
loop_
_geom_hbond_atom_site_label_D
_geom_hbond_atom_site_label_H
_geom_hbond_atom_site_label_A
_geom_hbond_site_symmetry_A
_geom_hbond_distance_DH
_geom_hbond_distance_HA
_geom_hbond_distance_DA
_geom_hbond_angle_DHA
N3 H3A N1 . 0.92(2) 2.01(2) 2.9288(17) 174.5(17)
N3 H3B S1 4_575 0.93(2) 2.64(2) 3.4249(12) 142.6(15)
loop_
_geom_torsion_atom_site_label_1
_geom_torsion_atom_site_label_2
_geom_torsion_atom_site_label_3
_geom_torsion_atom_site_label_4
_geom_torsion
C5 N1 C1 C2 -1.5(2)
C5 N1 C1 S1 178.60(10)
N1 C1 C2 C3 1.5(2)
S1 C1 C2 C3 -178.53(11)
N1 C1 C2 C7 -179.30(13)
S1 C1 C2 C7 0.63(19)
C1 C2 C3 C4 0.4(2)
C7 C2 C3 C4 -178.80(13)
C1 C2 C3 C8 -179.31(12)
C7 C2 C3 C8 1.5(2)
C2 C3 C4 C5 -2.29(19)
C8 C3 C4 C5 177.38(12)
C2 C3 C4 C14 179.91(12)
C8 C3 C4 C14 -0.4(2)
C1 N1 C5 C4 -0.5(2)
C1 N1 C5 C6 176.48(13)
C3 C4 C5 N1 2.5(2)
C14 C4 C5 N1 -179.73(13)
C3 C4 C5 C6 -174.38(13)
C14 C4 C5 C6 3.4(2)
C2 C3 C8 C13 -111.09(15)
C4 C3 C8 C13 69.24(18)
C2 C3 C8 C9 68.53(18)
C4 C3 C8 C9 -111.14(15)
C13 C8 C9 C10 -0.6(2)
C3 C8 C9 C10 179.78(13)
C8 C9 C10 C11 0.6(2)
C9 C10 C11 C12 -0.1(2)
C9 C10 C11 Cl1 -179.55(12)
C10 C11 C12 C13 -0.4(2)
Cl1 C11 C12 C13 179.03(11)
C11 C12 C13 C8 0.4(2)
C9 C8 C13 C12 0.1(2)
C3 C8 C13 C12 179.68(13)
C15 O2 C14 O1 7.8(2)
C15 O2 C14 C4 -173.92(14)
C5 C4 C14 O1 59.9(2)
C3 C4 C14 O1 -122.30(17)
C5 C4 C14 O2 -118.34(15)
C3 C4 C14 O2 59.42(18)
C14 O2 C15 C16 123.12(17)
C21 N3 C17 C18 59.88(15)
N3 C17 C18 C19 -56.81(16)
C17 C18 C19 C20 53.36(17)
C18 C19 C20 C21 -52.65(18)
C17 N3 C21 C20 -58.50(15)
C19 C20 C21 N3 54.82(17)

_cod_database_fobs_code 1543179
