#------------------------------------------------------------------------------
#$Date: 2016-05-05 04:29:54 +0300 (Thu, 05 May 2016) $
#$Revision: 182573 $
#$URL: svn://www.crystallography.net/cod/cif/1/54/32/1543256.cif $
#------------------------------------------------------------------------------
#
# This file is available in the Crystallography Open Database (COD),
# http://www.crystallography.net/. The original data for this entry
# were provided by IUCr Journals, http://journals.iucr.org/.
#
# The file may be used within the scientific community so long as
# proper attribution is given to the journal article from which the
# data were obtained.
#
data_1543256
loop_
_publ_author_name
'Al-Taifi, Elham A.'
'Mague, Joel T.'
'Mohamed, Shaaban K.'
'Akkurt, Mehmet'
'Bakhite, Etify A.'
_publ_section_title
;
 Ethyl
 13-(4-chlorophenyl)-11-methyl-6-oxo-5-phenyl-8-thia-3,4,5,10-tetraazatricyclo[7.4.0.0^2,7^]trideca-1(9),2(7),3,10,12-pentaene-12-carboxylate
;
_journal_coeditor_code           TK4011
_journal_issue                   5
_journal_name_full               IUCrData
_journal_page_first              x160701
_journal_paper_doi               10.1107/S241431461600701X
_journal_volume                  1
_journal_year                    2016
_chemical_formula_iupac          'C24 H17 Cl N4 O3 S'
_chemical_formula_moiety         'C24 H17 Cl N4 O3 S'
_chemical_formula_sum            'C24 H17 Cl N4 O3 S'
_chemical_formula_weight         476.92
_chemical_name_systematic
'Ethyl 13-(4-chlorophenyl)-11-methyl-6-oxo-5-phenyl-8-thia-3,4,5,10-tetraazatricyclo[7.4.0.0^2,7^]trideca-1(9),2(7),3,10,12-pentaene-12-carboxylate'
_space_group_crystal_system      monoclinic
_space_group_IT_number           14
_space_group_name_Hall           '-P 2yn'
_space_group_name_H-M_alt        'P 1 21/n 1'
_symmetry_space_group_name_Hall  '-P 2yn'
_symmetry_space_group_name_H-M   'P 1 21/n 1'
_atom_sites_solution_hydrogens   geom
_atom_sites_solution_primary     direct
_atom_sites_solution_secondary   difmap
_audit_creation_method           SHELXL-2014/7
_cell_angle_alpha                90
_cell_angle_beta                 101.0450(10)
_cell_angle_gamma                90
_cell_formula_units_Z            4
_cell_length_a                   11.8562(3)
_cell_length_b                   7.1984(2)
_cell_length_c                   25.4331(5)
_cell_measurement_reflns_used    9972
_cell_measurement_temperature    150(2)
_cell_measurement_theta_max      72.3070
_cell_measurement_theta_min      3.5413
_cell_volume                     2130.40(9)
_computing_cell_refinement
;
<i>SAINT</i> (Bruker, 2016)
;
_computing_data_collection
;
<i>APEX3</i> (Bruker, 2016)
;
_computing_data_reduction
;
<i>SAINT</i>  (Bruker, 2016)
;
_computing_molecular_graphics
;
<i>DIAMOND</i> (Brandenburg & Putz, 2012)
;
_computing_publication_material
;
<i>SHELXTL</i> (Sheldrick, 2008)
;
_computing_structure_refinement
;
<i>SHELXL2014</i> (Sheldrick, 2015b)
;
_computing_structure_solution
;
<i>SHELXT</i> (Sheldrick, 2015a)
;
_diffrn_ambient_temperature      150(2)
_diffrn_detector_area_resol_mean 10.4167
_diffrn_measured_fraction_theta_full 0.990
_diffrn_measured_fraction_theta_max 0.977
_diffrn_measurement_device_type  'Bruker D8 VENTURE PHOTON 100 CMOS'
_diffrn_measurement_method       '\w scans'
_diffrn_radiation_monochromator  mirror
_diffrn_radiation_type           CuK\a
_diffrn_radiation_wavelength     1.54178
_diffrn_reflns_av_R_equivalents  0.0269
_diffrn_reflns_limit_h_max       14
_diffrn_reflns_limit_h_min       -14
_diffrn_reflns_limit_k_max       8
_diffrn_reflns_limit_k_min       -8
_diffrn_reflns_limit_l_max       31
_diffrn_reflns_limit_l_min       -30
_diffrn_reflns_number            15584
_diffrn_reflns_theta_full        67.500
_diffrn_reflns_theta_max         72.352
_diffrn_reflns_theta_min         3.541
_exptl_absorpt_coefficient_mu    2.813
_exptl_absorpt_correction_T_max  0.85
_exptl_absorpt_correction_T_min  0.73
_exptl_absorpt_correction_type   multi-scan
_exptl_absorpt_process_details
;
(<i>SADABS</i>; Bruker, 2016)
;
_exptl_crystal_colour            colourless
_exptl_crystal_density_diffrn    1.487
_exptl_crystal_density_method    'not measured'
_exptl_crystal_description       tablet
_exptl_crystal_F_000             984
_exptl_crystal_size_max          0.223
_exptl_crystal_size_mid          0.171
_exptl_crystal_size_min          0.060
_refine_diff_density_max         0.268
_refine_diff_density_min         -0.253
_refine_ls_extinction_coef       0.00183(15)
_refine_ls_extinction_expression Fc^*^=kFc[1+0.001xFc^2^\l^3^/sin(2\q)]^-1/4^
_refine_ls_extinction_method
;
<i>SHELXL2014</i> (Sheldrick, 2015a)
;
_refine_ls_goodness_of_fit_ref   1.021
_refine_ls_hydrogen_treatment    constr
_refine_ls_matrix_type           full
_refine_ls_number_parameters     309
_refine_ls_number_reflns         4116
_refine_ls_number_restraints     2
_refine_ls_restrained_S_all      1.021
_refine_ls_R_factor_all          0.0335
_refine_ls_R_factor_gt           0.0313
_refine_ls_shift/su_max          0.002
_refine_ls_shift/su_mean         0.000
_refine_ls_structure_factor_coef Fsqd
_refine_ls_weighting_details
'w=1/[\s^2^(Fo^2^)+(0.0445P)^2^+1.0088P] where P=(Fo^2^+2Fc^2^)/3'
_refine_ls_weighting_scheme      calc
_refine_ls_wR_factor_gt          0.0812
_refine_ls_wR_factor_ref         0.0832
_reflns_number_gt                3824
_reflns_number_total             4116
_reflns_threshold_expression     'I > 2\s(I)'
_cod_data_source_file            tk4011sup1.cif
_cod_data_source_block           I
_cod_database_code               1543256
_shelx_space_group_comment
;
The symmetry employed for this shelxl refinement is uniquely defined
by the following loop, which should always be used as a source of
symmetry information in preference to the above space-group names.
They are only intended as comments.
;
_shelx_estimated_absorpt_t_min   0.573
_shelx_estimated_absorpt_t_max   0.849
_shelx_hkl_file
;
  -6   0   0   75.09    2.44
  -7   0   0   -0.10    0.07
  -8   0   0    1.35    0.19
  -8   0   0    1.56    0.20
  -8   0   0    1.50    0.17
  -9   0   0    0.01    0.11
  -9   0   0    0.09    0.11
  -9   0   0   -0.17    0.10
 -10   0   0   16.39    0.66
 -10   0   0   18.22    0.67
 -10   0   0   17.45    0.65
 -11   0   0    0.08    0.09
 -11   0   0   -0.05    0.09
 -11   0   0   -0.23    0.14
 -13   0   0    0.00    0.07
 -13   0   0    0.05    0.07
 -14   0   0   19.86    0.68
 -14   0   0   19.58    0.67
   0  -1   0    0.06    0.02
   1  -1   0  144.28    4.87
  -1  -1   0  158.06    4.89
  -2  -1   0  209.75    6.72
   2  -1   0  200.78    6.70
   2  -1   0  215.15    6.71
  -3  -1   0    9.63    0.32
   3  -1   0    9.67    0.33
   3  -1   0    9.80    0.33
   4  -1   0   75.69    2.50
  -4  -1   0   80.63    2.49
   4  -1   0   77.34    2.50
   5  -1   0   12.60    0.42
   5  -1   0   13.31    0.42
  -5  -1   0   12.20    0.46
  -6  -1   0   42.32    1.38
  -6   1   0   41.15    1.39
  -7   1   0   34.94    1.17
  -7   1   0   35.19    1.19
  -7   1   0   34.07    1.18
  -8  -1   0    0.88    0.16
  -8  -1   0    0.79    0.19
  -8  -1   0    0.73    0.14
  -8   1   0    0.96    0.17
  -8   1   0    0.88    0.18
  -8   1   0    0.87    0.17
  -9  -1   0   13.20    0.60
  -9  -1   0   13.21    0.53
  -9  -1   0   13.97    0.52
  -9   1   0   13.19    0.54
   9   1   0   13.11    0.55
  -9   1   0   13.59    0.53
  -9   1   0   12.89    0.53
 -10  -1   0   98.53    3.20
 -10  -1   0  100.40    3.21
 -10  -1   0  100.45    3.20
  10   1   0   94.11    3.19
 -10   1   0   94.68    3.19
 -10   1   0   97.44    3.21
 -11  -1   0    2.02    0.19
 -11  -1   0    1.37    0.20
 -11  -1   0    1.78    0.21
 -11   1   0    2.02    0.18
 -11   1   0    1.87    0.19
 -12  -1   0   14.68    0.61
 -12  -1   0   16.30    0.59
 -12  -1   0   16.59    0.59
 -12   1   0   15.74    0.59
 -12   1   0   15.02    0.59
 -13  -1   0    1.04    0.14
 -13  -1   0    1.21    0.16
 -13   1   0    1.08    0.12
 -13   1   0    1.42    0.13
 -14   1   0    0.67    0.10
 -14   1   0    0.50    0.09
   0  -2   0  126.19    4.05
   1  -2   0   43.44    1.40
  -1  -2   0   42.10    1.39
   2  -2   0   25.95    0.84
  -2  -2   0   24.85    0.84
   3  -2   0    9.22    0.34
  -3  -2   0    9.47    0.33
   3  -2   0    9.57    0.34
   4  -2   0    2.36    0.13
   4  -2   0    2.37    0.12
  -4  -2   0    2.30    0.11
  -4  -2   0    2.51    0.14
  -4  -2   0    2.20    0.12
  -5  -2   0   20.15    0.66
  -5  -2   0   19.08    0.69
  -5  -2   0   20.65    0.67
   5  -2   0   19.93    0.68
   5  -2   0   20.26    0.68
  -5   2   0   19.55    0.70
  -6  -2   0    5.78    0.26
   6  -2   0    6.27    0.32
  -6   2   0    6.21    0.29
  -7  -2   0   17.43    0.65
  -7  -2   0   17.57    0.69
  -7   2   0   18.35    0.66
  -7   2   0   18.57    0.67
  -7   2   0   19.04    0.67
   7   2   0   17.54    0.68
  -8  -2   0    0.06    0.13
  -8  -2   0    0.20    0.18
  -8  -2   0    0.11    0.08
   8   2   0    0.30    0.14
  -8   2   0    0.04    0.10
  -8   2   0    0.10    0.10
  -9  -2   0   41.80    1.45
  -9  -2   0   43.57    1.45
  -9   2   0   43.07    1.46
  -9   2   0   42.67    1.44
   9   2   0   41.86    1.45
 -10  -2   0    0.59    0.16
 -10  -2   0    0.63    0.13
 -10  -2   0    0.61    0.16
  10   2   0    0.63    0.15
 -10   2   0    0.70    0.16
 -10   2   0    0.98    0.17
 -11  -2   0    2.05    0.21
 -11  -2   0    2.29    0.22
 -11  -2   0    2.02    0.25
  11   2   0    2.68    0.26
 -11   2   0    2.62    0.20
 -11   2   0    2.27    0.19
 -12  -2   0    0.31    0.10
 -12   2   0    0.05    0.07
 -12   2   0    0.15    0.07
 -13   2   0    0.17    0.06
 -13   2   0    0.09    0.06
 -14   2   0   21.80    0.74
 -14   2   0   22.06    0.74
   0  -3   0    0.03    0.03
   1  -3   0    0.40    0.07
  -1  -3   0    0.22    0.06
   1  -3   0    0.38    0.10
   2  -3   0   17.57    0.60
   2  -3   0   16.59    0.61
  -2  -3   0   15.23    0.61
  -2  -3   0   17.74    0.60
   3  -3   0   78.60    2.60
  -3  -3   0   77.29    2.58
   3  -3   0   82.11    2.59
  -3  -3   0   78.38    2.59
  -3  -3   0   80.39    2.59
  -4  -3   0   43.79    1.42
  -4  -3   0   42.57    1.43
  -4  -3   0   42.75    1.43
   4  -3   0   44.46    1.44
   4  -3   0   43.11    1.45
  -4   3   0   40.44    1.42
  -5  -3   0    0.38    0.10
   5  -3   0    0.36    0.13
   5  -3   0    0.29    0.10
  -5   3   0    0.60    0.12
  -6  -3   0    3.91    0.21
  -6   3   0    3.88    0.27
  -6   3   0    3.82    0.29
  -6   3   0    3.34    0.34
   6   3   0    3.54    0.26
  -7  -3   0   70.58    2.27
  -7   3   0   65.64    2.28
  -7   3   0   70.12    2.28
   7   3   0   67.97    2.27
  -7   3   0   68.95    2.27
  -8  -3   0   23.71    0.91
  -8  -3   0   25.39    0.88
  -8   3   0   24.75    0.89
  -8   3   0   24.67    0.91
  -8   3   0   24.74    0.88
  -9  -3   0    0.24    0.17
   9   3   0    0.46    0.13
  -9   3   0    0.19    0.09
  -9   3   0    0.21    0.12
 -10  -3   0   20.19    0.78
 -10   3   0   21.65    0.77
  10   3   0   21.43    0.78
 -10   3   0   22.46    0.79
 -11  -3   0   11.64    0.46
 -11   3   0   10.96    0.46
 -11   3   0   10.91    0.47
  11   3   0   11.32    0.46
 -12  -3   0    2.32    0.21
 -12   3   0    2.00    0.16
 -12   3   0    1.98    0.15
 -13   3   0   35.40    1.16
 -13   3   0   33.71    1.16
   0  -4   0    1.92    0.18
  -1  -4   0   12.62    0.52
   1  -4   0   12.99    0.52
  -1   4   0   13.77    0.49
   2  -4   0   17.31    0.65
  -2  -4   0   16.54    0.64
  -2   4   0   16.69    0.61
   3  -4   0   54.43    1.79
  -3  -4   0   52.98    1.73
  -3  -4   0   52.31    1.77
  -3   4   0   51.75    1.73
   3   4   0   49.98    1.74
  -4  -4   0    3.97    0.34
  -4  -4   0    4.07    0.21
   4   4   0    3.92    0.25
  -4   4   0    4.26    0.28
  -4   4   0    3.98    0.33
  -4   4   0    4.09    0.26
  -5  -4   0   24.37    0.83
  -5   4   0   22.66    0.86
   5   4   0   23.97    0.85
  -5   4   0   23.54    0.85
  -5   4   0   23.65    0.87
  -6  -4   0    7.18    0.32
  -6   4   0    6.92    0.41
  -6   4   0    6.82    0.36
   6   4   0    7.01    0.34
  -6   4   0    7.26    0.40
  -6   4   0    7.42    0.38
  -7  -4   0    8.37    0.36
   7   4   0    7.94    0.37
  -7   4   0    7.66    0.40
  -7   4   0    8.37    0.38
  -7   4   0    8.17    0.42
  -8   4   0    0.96    0.21
  -8   4   0    1.02    0.18
  -8   4   0    0.80    0.19
   8   4   0    0.78    0.18
  -9  -4   0   21.06    0.83
  -9   4   0   23.06    0.83
   9   4   0   23.87    0.83
  -9   4   0   24.02    0.82
 -10  -4   0    0.87    0.16
  10   4   0    0.97    0.18
 -10   4   0    0.75    0.16
 -10   4   0    0.85    0.17
 -11  -4   0    1.50    0.19
 -11   4   0    2.14    0.16
 -11   4   0    1.93    0.17
  11   4   0    1.98    0.21
 -12  -4   0    0.19    0.13
 -12   4   0    0.05    0.07
   0   5   0    0.09    0.10
   0   5   0    0.15    0.12
   1   5   0   20.45    0.73
  -1   5   0   19.26    0.72
  -1   5   0   20.41    0.75
   1   5   0   20.57    0.74
  -2  -5   0    7.79    0.33
   2   5   0    7.39    0.35
  -2   5   0    7.31    0.38
  -2   5   0    7.78    0.35
   2   5   0    7.67    0.36
  -3  -5   0    4.60    0.24
   3   5   0    4.05    0.26
   3   5   0    4.42    0.28
  -3   5   0    4.59    0.26
  -3   5   0    3.89    0.27
  -3   5   0    4.33    0.31
  -4  -5   0   14.28    0.54
   4   5   0   14.28    0.58
  -4   5   0   14.71    0.56
  -4   5   0   14.25    0.58
   4   5   0   13.88    0.56
  -5  -5   0    0.00    0.07
   5   5   0    0.34    0.11
   5   5   0    0.07    0.17
  -5   5   0    0.12    0.14
  -5   5   0    0.00    0.12
  -6  -5   0    1.28    0.16
  -6   5   0    1.65    0.26
   6   5   0    1.22    0.18
  -6   5   0    1.33    0.23
  -7  -5   0   34.21    1.26
  -7   5   0   37.58    1.27
  -7   5   0   37.74    1.27
  -7   5   0   35.85    1.25
   7   5   0   37.71    1.26
  -8  -5   0    0.18    0.08
   8   5   0    0.11    0.10
  -8   5   0    0.27    0.13
  -8   5   0    0.30    0.15
  -9  -5   0    0.03    0.09
  -9   5   0    0.07    0.11
   9   5   0    0.18    0.10
 -10  -5   0    0.18    0.14
  10   5   0    0.19    0.10
 -10   5   0    0.24    0.10
 -11  -5   0    1.28    0.17
   0  -6   0   28.32    0.94
   0   6   0   25.43    0.93
   0   6   0   25.45    0.95
  -1  -6   0    7.47    0.33
   1   6   0    7.40    0.35
  -1   6   0    6.80    0.33
   1   6   0    6.83    0.33
  -1   6   0    6.36    0.35
  -2  -6   0    1.28    0.17
  -2   6   0    0.80    0.17
   2   6   0    1.49    0.19
   2   6   0    0.94    0.19
  -2   6   0    0.89    0.21
  -3  -6   0   50.40    1.67
  -3   6   0   48.93    1.67
   3   6   0   50.35    1.66
   3   6   0   49.29    1.68
  -3   6   0   48.94    1.68
  -4  -6   0    8.81    0.40
  -4   6   0    9.87    0.40
   4   6   0    9.31    0.41
   4   6   0    8.89    0.40
  -4   6   0    9.03    0.42
  -5  -6   0    0.68    0.14
   5   6   0    0.86    0.21
   5   6   0    0.68    0.17
  -5   6   0    0.68    0.13
  -5   6   0    0.57    0.14
  -6  -6   0   15.76    0.63
   6   6   0   17.45    0.63
  -6   6   0   16.72    0.63
  -6   6   0   16.92    0.64
  -7  -6   0    4.11    0.23
  -7   6   0    4.26    0.28
  -7   6   0    3.96    0.28
  -8  -6   0    1.40    0.15
   8   6   0    1.19    0.16
  -9  -6   0    0.36    0.09
   9   6   0    0.41    0.09
 -10  -6   0    1.40    0.27
  10   6   0    0.83    0.16
   0  -7   0    0.05    0.12
   0   7   0   -0.06    0.08
   0   7   0    0.01    0.10
  -1  -7   0    4.85    0.27
   1  -7   0    4.47    0.44
   1   7   0    5.17    0.28
   1   7   0    5.08    0.26
  -1   7   0    4.78    0.29
  -1   7   0    5.03    0.27
  -2  -7   0   30.63    1.11
   2   7   0   32.01    1.12
   2   7   0   32.36    1.10
  -2   7   0   32.85    1.11
  -2   7   0   32.01    1.12
  -3  -7   0    4.98    0.27
   3   7   0    5.16    0.28
  -3   7   0    4.87    0.29
  -3   7   0    5.39    0.27
   3   7   0    5.38    0.27
  -4  -7   0   11.64    0.46
  -4   7   0   10.96    0.45
  -4   7   0   11.06    0.46
   4   7   0   11.09    0.44
  -5  -7   0    0.23    0.09
  -5   7   0    0.14    0.09
   5   7   0    0.24    0.08
  -5   7   0    0.25    0.11
   5   7   0    0.37    0.12
   6   7   0    0.16    0.07
  -6   7   0    0.24    0.12
  -6   7   0    0.24    0.09
  -7  -7   0   17.20    0.62
   7   7   0   16.59    0.60
  -8  -7   0    3.02    0.19
   8   7   0    2.48    0.18
   0   8   0    2.49    0.16
   0   8   0    2.10    0.17
  -1   8   0    4.66    0.22
   1   8   0    4.47    0.22
  -1   8   0    5.00    0.24
   1   8   0    4.32    0.23
  -2   8   0    0.32    0.09
  -2   8   0    0.12    0.07
   2   8   0    0.12    0.08
   2   8   0    0.13    0.07
  -3  -8   0    2.15    0.25
  -3   8   0    2.01    0.14
   3   8   0    1.94    0.15
   3   8   0    1.95    0.15
  -3   8   0    1.82    0.17
   4   8   0    0.11    0.07
  -4   8   0   -0.03    0.06
   4   8   0    0.19    0.09
  -5   8   0    0.19    0.15
   5   8   0    0.10    0.06
  -5   8   0    0.27    0.08
   6   8   0    4.01    0.18
 -14   0   1   -0.08    0.10
 -14   0   1   -0.08    0.07
 -13   0   1    3.36    0.19
 -13   0   1    3.56    0.20
  11   0  -1    4.89    0.33
 -11   0   1    4.81    0.27
 -11   0   1    4.87    0.27
 -10   0   1    0.09    0.10
 -10   0   1   -0.04    0.13
 -10   0   1   -0.03    0.10
  -9   0   1  106.00    3.38
  -9   0   1  100.62    3.39
  -9   0   1  103.89    3.38
  -8   0   1    0.03    0.11
  -8   0   1    0.02    0.10
  -8   0   1    0.15    0.10
  -7   0   1   14.93    0.55
  -6   0   1    0.01    0.08
  -1   0   1  138.49    4.49
   1   0  -1  142.27    4.49
  -1   0  -1  251.26    7.92
   1   0   1  244.01    7.92
   2   0   1    0.00    0.01
   3   0   1   60.60    1.87
  -3   0  -1   56.43    1.87
  -5   0  -1    0.40    0.08
  -6   0  -1    0.16    0.08
  -7   0  -1    4.28    0.22
  -7   0  -1    4.51    0.26
  -8   0  -1    0.09    0.09
  -8   0  -1   -0.18    0.10
  -8   0  -1    0.16    0.11
  -9   0  -1   11.38    0.44
  -9   0  -1    9.78    0.56
 -10   0  -1   -0.12    0.09
 -10   0  -1    0.26    0.12
 -10   0  -1    0.09    0.10
 -11   0  -1    0.36    0.14
 -11   0  -1    0.30    0.10
 -11   0  -1    0.33    0.09
 -12   0  -1    0.04    0.07
 -12   0  -1   -0.09    0.08
 -13   0  -1    0.30    0.07
 -13   0  -1    0.29    0.07
 -14   0  -1    0.13    0.07
 -14   0  -1   -0.08    0.06
 -13  -1   1   13.79    0.51
 -13  -1   1   14.19    0.51
 -13   1   1   13.48    0.51
 -13   1   1   13.46    0.51
 -12  -1   1    0.17    0.09
 -12  -1   1    0.00    0.10
 -11  -1   1    1.31    0.19
 -11  -1   1    2.01    0.20
 -11  -1   1    1.34    0.21
 -11   1   1    1.33    0.18
  11   1  -1    1.47    0.24
 -11   1   1    1.47    0.17
 -10  -1   1    5.35    0.29
 -10  -1   1    5.08    0.30
 -10  -1   1    5.07    0.29
 -10   1   1    5.22    0.29
  10   1  -1    4.98    0.32
 -10   1   1    4.88    0.28
  -9  -1   1   89.08    2.85
  -9  -1   1   88.86    2.85
  -9  -1   1   87.82    2.84
   9   1  -1   86.62    2.85
  -9   1   1   85.35    2.85
  -9   1   1   81.97    2.90
  -8  -1   1   10.28    0.40
  -8  -1   1    9.98    0.42
  -8  -1   1    9.32    0.43
  -8   1   1    9.39    0.47
  -8   1   1    9.66    0.41
  -8   1   1    9.65    0.41
  -8   1   1    9.67    0.41
  -7  -1   1    9.57    0.37
  -7   1   1    9.18    0.38
  -7   1   1    8.74    0.39
  -7   1   1    9.57    0.40
  -6  -1   1    0.08    0.06
  -6   1   1    0.11    0.11
   5  -1  -1  111.95    3.51
   5  -1  -1  110.13    3.51
  -5  -1   1  106.93    3.54
   4  -1  -1   37.00    1.19
   4  -1  -1   36.29    1.18
   3  -1  -1   23.49    0.76
  -3  -1   1   23.43    0.75
  -3  -1   1   22.33    0.75
   3  -1  -1   23.51    0.76
   2  -1  -1   19.53    0.66
  -2  -1   1   19.84    0.65
  -2  -1   1   20.83    0.65
  -1  -1   1  179.84    5.52
   1  -1  -1  161.74    5.51
  -1   1   1  170.72    5.50
   0  -1   1   32.82    1.02
   0   1   1   30.32    1.02
  -1  -1  -1    2.81    0.11
   1  -1   1    3.17    0.11
   1   1   1    2.97    0.11
   2  -1   1  185.68    5.87
  -2  -1  -1  179.50    5.85
   2   1   1  180.85    5.84
  -3  -1  -1    0.12    0.03
   3  -1   1    0.16    0.03
   3   1   1    0.10    0.03
  -4  -1  -1   13.28    0.43
   4  -1   1   12.66    0.44
   4  -1   1   13.35    0.44
   5  -1   1   83.57    2.75
   5  -1   1   85.92    2.75
  -5  -1  -1   85.35    2.78
  -5   1  -1   88.60    2.79
  -6  -1  -1    6.98    0.28
  -6   1  -1    6.76    0.30
  -7  -1  -1   28.49    0.98
  -7  -1  -1   27.59    1.00
  -7   1  -1   29.25    1.00
  -7   1  -1   28.78    0.99
  -7   1  -1   29.38    0.99
  -8  -1  -1    9.22    0.40
  -8  -1  -1    9.18    0.42
  -8  -1  -1    9.37    0.38
  -8   1  -1    9.44    0.39
   8   1   1    8.37    0.44
  -8   1  -1    9.66    0.39
  -8   1  -1    9.63    0.40
  -9  -1  -1   57.51    1.99
  -9  -1  -1   57.19    2.03
  -9  -1  -1   61.29    1.97
  -9   1  -1   60.60    1.97
  -9   1  -1   61.31    1.97
  -9   1  -1   60.27    1.98
   9   1   1   54.74    1.97
 -10  -1  -1    4.12    0.32
 -10  -1  -1    3.69    0.25
 -10  -1  -1    3.86    0.26
 -10   1  -1    3.51    0.24
 -10   1  -1    3.64    0.29
 -10   1  -1    3.85    0.24
 -11  -1  -1    8.95    0.39
 -11  -1  -1    9.22    0.39
 -11  -1  -1    8.23    0.40
 -11   1  -1    9.01    0.39
 -11   1  -1    9.43    0.40
 -12  -1  -1   -0.02    0.14
 -12  -1  -1   -0.04    0.09
 -12  -1  -1    0.13    0.08
 -12   1  -1   -0.02    0.07
 -12   1  -1    0.03    0.08
 -13  -1  -1    0.18    0.07
 -13  -1  -1    0.06    0.09
 -13   1  -1    0.10    0.06
 -13   1  -1    0.22    0.06
 -14   1  -1    0.37    0.09
 -14   1  -1    0.35    0.09
 -13   2   1    1.30    0.12
 -13   2   1    1.21    0.12
 -12  -2   1    3.78    0.23
 -12   2   1    3.67    0.21
 -12   2   1    3.72    0.21
 -11  -2   1    5.08    0.29
 -11  -2   1    4.32    0.27
 -11  -2   1    4.69    0.30
 -11   2   1    4.88    0.27
 -11   2   1    4.34    0.25
  11   2  -1    5.29    0.30
 -10  -2   1    0.97    0.21
 -10  -2   1    1.13    0.24
 -10  -2   1    1.16    0.17
 -10   2   1    0.90    0.17
  10   2  -1    1.05    0.22
 -10   2   1    0.98    0.18
  -9  -2   1    9.84    0.40
  -9  -2   1    9.04    0.42
  -9  -2   1    9.17    0.49
  -9   2   1    9.07    0.41
   9   2  -1    9.52    0.42
  -9   2   1    9.08    0.40
  -8  -2   1   18.49    0.75
  -8  -2   1   19.05    0.73
  -8  -2   1   20.21    0.71
  -8   2   1   18.92    0.74
   8   2  -1   20.01    0.72
  -8   2   1   19.54    0.72
  -8   2   1   20.48    0.71
  -7  -2   1   19.09    0.69
  -7   2   1   19.44    0.70
  -7   2   1   19.89    0.71
   7   2  -1   18.97    0.71
   6  -2  -1    7.62    0.30
  -6  -2   1    7.80    0.32
  -5  -2   1   63.51    2.05
   5  -2  -1   64.31    2.07
  -5  -2   1   61.77    2.08
   5  -2  -1   66.17    2.07
  -5  -2   1   62.89    2.05
  -4  -2   1    3.01    0.14
   4  -2  -1    3.10    0.14
  -4  -2   1    2.72    0.16
   4  -2  -1    3.04    0.15
  -4  -2   1    3.06    0.13
   3  -2  -1    3.84    0.17
   3  -2  -1    4.13    0.17
  -3  -2   1    3.94    0.16
  -3  -2   1    3.93    0.16
  -2  -2   1    1.77    0.09
   2  -2  -1    1.76    0.09
  -2  -2   1    1.85    0.10
  -1  -2   1  250.58    7.75
  -1  -2   1  237.93    7.80
   1  -2  -1  235.63    7.78
   0  -2  -1  740.88   24.58
   0  -2   1  785.50   24.59
   0  -2   1  772.14   24.60
  -1  -2  -1   25.87    0.87
   1  -2   1   28.32    0.88
   1  -2   1   24.76    0.87
   2  -2   1   52.45    1.65
   2  -2   1   50.89    1.65
  -2  -2  -1   48.44    1.64
   3  -2   1   30.71    0.99
   3  -2   1   29.98    0.99
  -3  -2  -1   28.29    0.98
   4  -2   1   11.01    0.38
   4  -2   1   10.98    0.39
  -4  -2  -1    9.99    0.39
  -4  -2  -1   10.36    0.37
   5  -2   1    0.44    0.10
  -5  -2  -1    0.42    0.08
  -5  -2  -1    0.36    0.10
  -5  -2  -1    0.38    0.09
   5  -2   1    0.47    0.12
  -5   2  -1    0.26    0.09
  -6   2  -1   12.24    0.47
  -7  -2  -1    0.55    0.11
  -7  -2  -1    0.55    0.13
  -7   2  -1    0.59    0.12
   7   2   1    0.58    0.17
  -7   2  -1    0.95    0.19
  -8  -2  -1  106.06    3.36
  -8  -2  -1   98.41    3.36
  -8  -2  -1  102.49    3.36
   8   2   1  101.64    3.35
  -8   2  -1  103.18    3.36
  -8   2  -1  104.00    3.35
  -8   2  -1  103.53    3.35
  -9  -2  -1    1.00    0.26
  -9  -2  -1    1.25    0.17
  -9  -2  -1    1.20    0.21
  -9   2  -1    1.24    0.18
   9   2   1    1.28    0.18
  -9   2  -1    1.67    0.19
 -10  -2  -1   21.86    0.83
 -10  -2  -1   23.05    0.82
 -10  -2  -1   21.95    0.82
 -10   2  -1   23.48    0.83
  10   2   1   22.25    0.83
 -10   2  -1   23.79    0.82
 -11  -2  -1    3.61    0.24
 -11  -2  -1    3.73    0.25
 -11  -2  -1    3.05    0.27
 -11   2  -1    3.73    0.23
 -11   2  -1    3.85    0.23
 -12  -2  -1    5.85    0.28
 -12  -2  -1    4.29    0.38
 -12   2  -1    5.48    0.26
 -12   2  -1    5.78    0.26
 -13   2  -1   -0.03    0.06
 -13   2  -1   -0.07    0.05
 -13   3   1    5.92    0.25
 -13   3   1    5.55    0.24
 -12  -3   1   43.12    1.46
 -12   3   1   43.16    1.45
 -12   3   1   43.57    1.44
 -11  -3   1    0.01    0.10
  11   3  -1    0.09    0.11
 -10  -3   1    4.05    0.26
  10   3  -1    5.06    0.28
 -10   3   1    5.08    0.27
 -10   3   1    4.78    0.27
  -9  -3   1   50.50    1.66
  -9   3   1   49.06    1.64
   9   3  -1   48.55    1.64
  -9   3   1   46.94    1.65
  -9   3   1   48.80    1.65
  -8  -3   1   11.54    0.46
  -8   3   1   11.40    0.47
  -8   3   1   11.32    0.50
  -8   3   1   11.79    0.48
  -7  -3   1    1.81    0.15
   7   3  -1    2.09    0.21
  -7   3   1    1.95    0.23
  -7   3   1    2.02    0.27
  -7   3   1    2.03    0.21
  -6  -3   1   30.96    1.04
  -6   3   1   29.33    1.05
   6   3  -1   31.28    1.06
  -6   3   1   30.00    1.06
  -6   3   1   30.43    1.08
   5  -3  -1    5.75    0.29
   5  -3  -1    5.00    0.34
  -5  -3   1    6.03    0.30
  -5  -3   1    5.75    0.26
  -4  -3   1   53.66    1.90
  -4  -3   1   56.87    1.88
   4  -3  -1   61.00    1.90
   4  -3  -1   57.58    1.91
  -4  -3   1   57.07    1.89
   3  -3  -1    0.16    0.05
  -3  -3   1    0.25    0.06
  -3  -3   1    0.40    0.13
   3  -3  -1    0.53    0.13
  -2  -3   1   20.74    0.82
   2  -3  -1   24.59    0.81
  -2  -3   1   24.83    0.81
  -1  -3   1   68.13    2.45
   1  -3  -1   74.16    2.43
  -1  -3   1   77.15    2.44
   1   3  -1   79.09    2.43
   0  -3  -1    0.33    0.07
   0  -3   1    0.22    0.07
   0  -3   1    0.45    0.08
   1  -3   1    2.16    0.13
   1  -3   1    1.98    0.14
  -1  -3  -1    2.21    0.13
  -2  -3  -1  129.71    4.26
   2  -3   1  135.02    4.28
   2  -3   1  131.82    4.27
  -3  -3  -1    3.28    0.18
   3  -3   1    3.48    0.19
  -3  -3  -1    3.29    0.17
   3  -3   1    3.62    0.21
  -3   3  -1    2.94    0.19
  -4  -3  -1    0.39    0.12
   4  -3   1    0.57    0.14
  -4  -3  -1    0.47    0.10
   4  -3   1    0.66    0.18
  -4  -3  -1    0.56    0.16
  -4   3  -1    0.76    0.15
   5  -3   1   11.40    0.52
  -5  -3  -1   12.94    0.46
   5  -3   1   12.04    0.49
  -5   3  -1   12.28    0.47
  -6  -3  -1    8.45    0.34
  -6   3  -1    8.33    0.39
  -6   3  -1    7.80    0.36
  -6   3  -1    8.00    0.38
   6   3   1    8.27    0.38
  -7  -3  -1    0.23    0.08
  -7  -3  -1    0.33    0.18
  -7   3  -1    0.15    0.11
   7   3   1    0.20    0.13
  -7   3  -1    0.15    0.12
  -8  -3  -1    0.15    0.08
  -8  -3  -1   -0.11    0.16
  -8   3  -1    0.28    0.10
   8   3   1    0.35    0.15
  -8   3  -1    0.12    0.12
  -9  -3  -1    2.14    0.28
  -9  -3  -1    2.15    0.25
  -9   3  -1    2.71    0.21
   9   3   1    2.86    0.25
  -9   3  -1    2.74    0.22
 -10  -3  -1    8.08    0.38
 -10   3  -1    8.34    0.39
  10   3   1    9.02    0.40
 -10   3  -1    9.49    0.38
 -11  -3  -1    0.54    0.15
 -11   3  -1    0.48    0.09
 -11   3  -1    0.34    0.09
 -12  -3  -1    0.67    0.18
 -12   3  -1    0.58    0.12
 -12   3  -1    0.55    0.12
 -13   3  -1    0.10    0.08
 -13   3  -1    0.10    0.06
 -12  -4   1    3.20    0.24
 -12   4   1    3.02    0.19
 -12   4   1    2.96    0.17
 -11   4   1    0.30    0.08
 -11   4   1    0.27    0.08
  11   4  -1    0.34    0.10
 -10  -4   1    5.58    0.28
 -10   4   1    5.80    0.31
  -9  -4   1    0.64    0.14
  -9   4   1    0.86    0.17
   9   4  -1    1.01    0.18
  -9   4   1    0.92    0.19
  -9   4   1    1.13    0.26
  -8   4   1   56.62    1.86
  -8   4   1   54.84    1.87
   8   4  -1   55.90    1.87
  -8   4   1   55.47    1.87
  -7  -4   1   20.98    0.74
   7   4  -1   19.92    0.74
  -7   4   1   20.33    0.77
  -7   4   1   19.85    0.78
  -7   4   1   19.84    0.74
  -6  -4   1    6.51    0.30
  -6   4   1    6.51    0.36
  -6   4   1    6.21    0.34
   6   4  -1    6.42    0.32
  -6   4   1    6.58    0.36
  -5  -4   1   14.78    0.56
  -5   4   1   15.74    0.61
  -5   4   1   15.23    0.59
   5   4  -1   15.69    0.58
  -5   4   1   14.93    0.59
   5   4  -1   14.05    0.64
  -4  -4   1    0.34    0.15
  -4  -4   1    0.39    0.11
   4   4  -1    0.36    0.12
  -4   4   1    0.54    0.14
  -4   4   1    0.80    0.18
  -3  -4   1   69.72    2.30
  -3  -4   1   71.95    2.27
   3  -4  -1   67.26    2.31
  -3   4   1   69.56    2.26
   3   4  -1   66.99    2.28
  -2  -4   1   46.47    1.58
   2  -4  -1   47.41    1.59
  -2   4   1   45.65    1.54
   1  -4  -1   36.90    1.29
  -1  -4   1   37.27    1.28
  -1   4   1   38.09    1.26
   0  -4  -1    8.60    0.39
   0  -4   1    8.89    0.39
   0   4  -1    9.39    0.36
  -1  -4  -1   24.48    0.87
   1  -4   1   23.93    0.87
  -1   4  -1   24.74    0.84
  -2  -4  -1    7.84    0.33
   2  -4   1    8.04    0.39
  -2  -4  -1    8.43    0.38
  -2   4  -1    8.19    0.34
   3  -4   1   47.13    1.64
  -3  -4  -1   47.47    1.63
  -3  -4  -1   49.82    1.60
  -3   4  -1   47.95    1.59
   3   4   1   47.70    1.61
  -4  -4  -1    9.92    0.51
  -4  -4  -1   10.89    0.41
  -4   4  -1   10.49    0.45
  -4   4  -1   11.15    0.43
  -4   4  -1   10.23    0.50
   4   4   1   10.61    0.44
  -5  -4  -1    3.02    0.19
  -5   4  -1    2.64    0.23
  -5   4  -1    2.13    0.28
   5   4   1    2.91    0.22
  -5   4  -1    3.03    0.31
  -6  -4  -1    0.40    0.09
   6   4   1    0.09    0.12
  -6   4  -1    0.18    0.14
  -6   4  -1    0.65    0.18
  -6   4  -1    0.28    0.17
  -7  -4  -1    1.60    0.16
  -7   4  -1    1.63    0.23
  -7   4  -1    1.53    0.25
   7   4   1    1.81    0.20
  -7   4  -1    1.98    0.29
  -8  -4  -1   67.37    2.41
  -8   4  -1   72.14    2.41
   8   4   1   75.89    2.41
  -8   4  -1   75.49    2.40
  -9  -4  -1    0.05    0.09
  -9   4  -1    0.12    0.11
  -9   4  -1    0.06    0.10
   9   4   1   -0.07    0.11
 -10  -4  -1    0.37    0.10
 -10   4  -1    0.34    0.10
 -10   4  -1    0.36    0.09
  10   4   1    0.35    0.11
 -11  -4  -1    3.50    0.23
 -11   4  -1    3.72    0.26
 -11   4  -1    4.01    0.23
 -12   4  -1   13.30    0.48
 -12   4  -1   12.92    0.47
 -11  -5   1    2.72    0.19
  11   5  -1    2.13    0.19
 -11   5   1    2.21    0.19
  10   5  -1   16.02    0.58
 -10   5   1   15.71    0.57
  -9  -5   1    0.37    0.10
  -9   5   1    0.76    0.18
   9   5  -1    0.45    0.11
  -8  -5   1    0.06    0.07
  -8   5   1    0.33    0.12
   8   5  -1    0.10    0.10
  -8   5   1    0.10    0.14
  -7  -5   1    9.95    0.43
   7   5  -1   10.17    0.44
  -7   5   1   10.58    0.46
  -7   5   1   10.51    0.46
  -7   5   1   10.11    0.45
  -6  -5   1   21.33    0.75
  -6   5   1   20.24    0.74
  -6   5   1   19.18    0.75
   6   5  -1   19.41    0.74
  -5  -5   1    1.22    0.15
  -5   5   1    1.41    0.20
  -5   5   1    1.50    0.25
   5   5  -1    0.99    0.22
   5   5  -1    1.21    0.19
  -4  -5   1    0.89    0.14
  -4   5   1    1.28    0.19
   4   5  -1    1.23    0.18
   4   5  -1    0.97    0.21
  -4   5   1    0.74    0.15
  -3  -5   1    0.15    0.08
   3   5  -1    0.28    0.10
   3   5  -1   -0.02    0.12
  -3   5   1    0.09    0.14
  -3   5   1    0.15    0.11
  -2   5   1   41.46    1.38
  -2   5   1   40.78    1.36
   2   5  -1   39.10    1.35
   2   5  -1   39.00    1.36
  -1   5   1    1.62    0.21
   1   5  -1    1.18    0.19
  -1   5   1    1.72    0.19
   1   5  -1    1.75    0.21
   0   5   1    2.60    0.21
   0   5  -1    2.35    0.24
   0   5   1    2.61    0.24
   0   5  -1    2.43    0.21
  -1  -5  -1    2.88    0.19
   1   5   1    2.97    0.23
  -1   5  -1    2.53    0.25
  -1   5  -1    2.68    0.21
   1   5   1    2.68    0.22
  -2  -5  -1   12.31    0.48
  -2   5  -1   12.31    0.52
  -2   5  -1   12.39    0.49
  -2   5  -1   11.80    0.49
   2   5   1   12.87    0.50
   2   5   1   12.05    0.49
  -3  -5  -1    0.36    0.09
  -3   5  -1    0.28    0.13
   3   5   1    0.50    0.14
  -3   5  -1    0.63    0.12
  -3   5  -1    0.55    0.15
   3   5   1    0.61    0.13
  -4  -5  -1   23.61    0.81
   4   5   1   20.90    0.80
  -4   5  -1   22.23    0.83
  -4   5  -1   22.90    0.81
   4   5   1   21.16    0.90
  -4   5  -1   23.15    0.81
  -5  -5  -1    1.51    0.16
  -5   5  -1    1.29    0.21
  -5   5  -1    1.36    0.25
   5   5   1    1.50    0.19
  -6  -5  -1   15.34    0.59
  -6   5  -1   14.61    0.61
  -6   5  -1   15.25    0.60
   6   5   1   15.55    0.59
  -7  -5  -1    1.71    0.17
  -7   5  -1    2.35    0.28
   7   5   1    1.96    0.20
  -8  -5  -1   23.15    0.84
   8   5   1   25.48    0.84
  -8   5  -1   21.64    0.86
  -9  -5  -1    7.42    0.34
  -9   5  -1    7.39    0.34
   9   5   1    7.88    0.34
 -10  -5  -1    0.28    0.09
  10   5   1    0.08    0.10
 -10   5  -1    0.28    0.11
 -11  -5  -1    0.11    0.10
 -10  -6   1    0.59    0.15
  10   6  -1    0.83    0.14
  -9  -6   1    4.95    0.25
   9   6  -1    4.72    0.23
  -8  -6   1   19.62    0.70
   8   6  -1   19.92    0.69
  -8   6   1   17.97    0.69
  -7  -6   1   14.18    0.56
  -7   6   1   14.42    0.56
   7   6  -1   14.38    0.62
  -7   6   1   14.80    0.56
  -6  -6   1   36.38    1.33
   6   6  -1   39.43    1.33
  -6   6   1   39.47    1.33
  -6   6   1   40.38    1.34
  -5  -6   1    0.91    0.15
   5   6  -1    1.45    0.22
   5   6  -1    1.42    0.19
  -5   6   1    0.90    0.21
  -5   6   1    0.70    0.13
  -4  -6   1    2.39    0.19
  -4   6   1    2.50    0.24
   4   6  -1    2.54    0.22
   4   6  -1    2.36    0.21
  -4   6   1    2.43    0.21
  -3  -6   1   15.76    0.57
   3   6  -1   14.67    0.58
   3   6  -1   13.64    0.56
  -3   6   1   14.35    0.56
  -3   6   1   14.30    0.58
  -2  -6   1   32.27    1.07
  -2   6   1   29.89    1.06
   2   6  -1   30.60    1.08
   2   6  -1   28.81    1.05
  -2   6   1   30.86    1.08
   1  -6  -1    0.84    0.15
  -1  -6   1    1.15    0.17
  -1   6   1    1.12    0.17
  -1   6   1    0.95    0.21
   1   6  -1    1.10    0.17
   1   6  -1    1.23    0.21
   0  -6  -1   12.43    0.49
   0   6  -1   11.82    0.50
   0   6  -1   12.40    0.49
   0   6   1   11.67    0.50
   0   6   1   12.55    0.49
  -1  -6  -1    3.29    0.23
   1   6   1    3.42    0.22
   1   6   1    3.04    0.23
  -1   6  -1    3.09    0.22
  -1   6  -1    3.31    0.26
  -2  -6  -1    1.86    0.18
   2   6   1    2.06    0.20
  -2   6  -1    1.80    0.19
  -2   6  -1    2.20    0.25
   2   6   1    1.88    0.21
  -3  -6  -1    1.62    0.17
   3   6   1    2.17    0.20
  -3   6  -1    1.50    0.23
  -3   6  -1    1.79    0.19
   3   6   1    1.42    0.19
  -4  -6  -1   26.17    0.96
  -4   6  -1   27.02    0.96
  -4   6  -1   26.84    0.97
   4   6   1   26.91    0.95
   4   6   1   28.32    0.97
  -5  -6  -1    0.03    0.08
  -5   6  -1    0.42    0.14
   5   6   1    0.08    0.14
   5   6   1    0.07    0.10
  -5   6  -1    0.05    0.11
  -6  -6  -1    0.21    0.09
   6   6   1    0.25    0.11
  -6   6  -1    0.23    0.14
  -6   6  -1    0.22    0.12
  -7  -6  -1   10.56    0.44
   7   6   1   10.72    0.45
  -8  -6  -1    1.90    0.17
   8   6   1    1.77    0.17
  -9  -6  -1   -0.03    0.08
   9   6   1    0.09    0.09
  -8  -7   1    1.09    0.16
   8   7  -1    1.36    0.13
  -7  -7   1    7.08    0.30
   7   7  -1    6.66    0.28
  -7   7   1    6.51    0.33
  -7   7   1    6.25    0.31
  -6  -7   1    6.28    0.31
   6   7  -1    5.92    0.28
  -6   7   1    6.21    0.28
  -6   7   1    5.71    0.29
  -5  -7   1    2.09    0.18
   5   7  -1    2.00    0.20
   5   7  -1    2.18    0.18
  -5   7   1    2.23    0.18
  -5   7   1    2.10    0.20
  -4  -7   1   -0.06    0.09
   4   7  -1    0.22    0.10
  -4   7   1    0.24    0.11
  -4   7   1   -0.08    0.09
  -3  -7   1   22.00    0.81
   3   7  -1   22.17    0.81
  -3   7   1   22.59    0.82
   3   7  -1   22.72    0.80
  -3   7   1   22.68    0.80
  -2  -7   1    0.63    0.17
   2   7  -1    1.07    0.15
   2   7  -1    1.01    0.17
  -2   7   1    0.48    0.11
  -2   7   1    0.70    0.13
  -1  -7   1    0.03    0.10
   1   7  -1   -0.12    0.08
  -1   7   1    0.02    0.10
  -1   7   1   -0.04    0.09
   1   7  -1    0.03    0.10
   0  -7   1   -0.02    0.12
   0  -7  -1   -0.03    0.14
   0   7  -1    0.31    0.10
   0   7   1    0.12    0.11
   0   7   1   -0.09    0.09
   0   7  -1   -0.17    0.10
   1  -7   1    3.58    0.28
  -1  -7  -1    3.94    0.25
   1   7   1    3.81    0.25
  -1   7  -1    3.69    0.26
  -1   7  -1    3.96    0.24
   1   7   1    3.67    0.23
  -2  -7  -1    0.96    0.17
  -2   7  -1    1.09    0.16
  -2   7  -1    0.74    0.19
   2   7   1    0.73    0.16
   2   7   1    0.72    0.16
  -3  -7  -1   11.98    0.50
  -3   7  -1   13.43    0.56
  -3   7  -1   12.87    0.50
   3   7   1   13.03    0.51
   3   7   1   12.61    0.49
  -4  -7  -1   11.25    0.46
   4   7   1   11.17    0.45
  -4   7  -1   11.60    0.45
  -4   7  -1   11.84    0.47
  -5  -7  -1    4.88    0.25
   5   7   1    4.41    0.24
  -5   7  -1    4.59    0.24
  -5   7  -1    4.71    0.28
  -6  -7  -1    0.50    0.14
   6   7   1    0.31    0.08
  -6   7  -1    0.38    0.10
  -6   7  -1    0.49    0.15
  -7  -7  -1    1.05    0.15
   7   7   1    0.97    0.13
   8   7   1    7.55    0.30
   6   8  -1    1.12    0.11
  -5   8   1    1.00    0.12
  -5   8   1    0.69    0.16
   5   8  -1    0.70    0.11
  -4  -8   1    0.54    0.14
  -4   8   1    0.76    0.11
   4   8  -1    0.62    0.15
   4   8  -1    0.71    0.12
  -4   8   1    0.80    0.14
  -3  -8   1    4.90    0.28
  -3   8   1    4.88    0.23
   3   8  -1    4.90    0.23
   3   8  -1    4.82    0.23
  -3   8   1    4.92    0.24
  -2  -8   1    0.09    0.16
   2   8  -1    0.12    0.07
  -2   8   1    0.09    0.06
   2   8  -1    0.00    0.07
  -2   8   1    0.18    0.08
   1   8  -1    1.96    0.17
  -1   8   1    1.71    0.16
   1   8  -1    2.01    0.15
  -1   8   1    1.84    0.14
   0   8   1    0.47    0.12
   0   8  -1    0.35    0.08
   0   8   1    0.35    0.09
   0   8  -1    0.42    0.10
  -1   8  -1    5.12    0.26
   1   8   1    5.25    0.26
   1   8   1    5.39    0.24
  -1   8  -1    5.29    0.24
  -2   8  -1    2.80    0.19
   2   8   1    2.98    0.18
  -2   8  -1    2.97    0.17
   2   8   1    2.99    0.17
  -3   8  -1    1.97    0.14
  -3   8  -1    1.61    0.17
   3   8   1    1.96    0.15
   3   8   1    1.77    0.15
   4   8   1    0.17    0.11
  -4   8  -1    0.44    0.11
  -4   8  -1    0.29    0.11
   4   8   1    0.29    0.07
  -5   8  -1    0.96    0.13
   5   8   1    0.95    0.11
   6   8   1    1.12    0.11
 -14   0   2   14.41    0.54
 -13   0   2    0.07    0.07
 -13   0   2   -0.02    0.07
 -12   0   2    4.60    0.26
 -12   0   2    5.16    0.26
 -11   0   2   -0.02    0.10
  11   0  -2   -0.03    0.13
 -11   0   2   -0.08    0.09
 -10   0   2    1.93    0.25
 -10   0   2    1.68    0.20
 -10   0   2    1.25    0.19
  -9   0   2    0.00    0.10
  -9   0   2    0.03    0.10
  -9   0   2   -0.09    0.11
  -8   0   2    8.45    0.37
  -8   0   2    8.55    0.39
  -8   0   2    8.57    0.38
  -7   0   2    0.03    0.09
  -6   0   2   71.22    2.32
   2   0  -2  107.91    3.64
  -2   0   2  117.82    3.62
   1   0  -2    0.00    0.01
  -1   0   2    0.01    0.01
   0   0  -2  219.18    7.17
   0   0   2  227.69    7.17
   1   0   2    0.00    0.01
  -1   0  -2    0.00    0.01
   2   0   2  255.99    8.01
  -2   0  -2  243.26    8.01
  -3   0  -2    0.03    0.01
   3   0   2    0.03    0.01
   4   0   2   29.61    0.95
  -5   0  -2   -0.08    0.07
  -6   0  -2  178.78    5.75
  -7   0  -2    0.06    0.12
  -7   0  -2    0.06    0.10
  -7   0  -2    0.04    0.11
  -8   0  -2   48.00    1.61
  -8   0  -2   48.13    1.61
  -8   0  -2   47.87    1.62
  -9   0  -2    0.16    0.10
  -9   0  -2   -0.03    0.10
  -9   0  -2    0.13    0.10
 -10   0  -2   13.77    0.55
 -10   0  -2   13.69    0.55
 -10   0  -2   14.44    0.58
 -11   0  -2    0.02    0.08
 -11   0  -2    0.05    0.13
 -11   0  -2    0.09    0.09
 -12   0  -2    7.87    0.35
 -12   0  -2    8.16    0.34
 -13   0  -2    0.06    0.06
 -13   0  -2    0.01    0.07
 -14   0  -2   12.07    0.42
 -14   0  -2   11.60    0.42
 -14  -1   2    3.90    0.23
 -14   1   2    3.51    0.19
 -14   1   2    3.89    0.19
 -13  -1   2    0.06    0.08
 -13  -1   2    0.09    0.08
 -13   1   2   -0.01    0.06
 -13   1   2    0.01    0.07
 -12  -1   2    0.68    0.17
 -12  -1   2    0.88    0.18
  12   1  -2    1.16    0.22
 -11  -1   2    0.44    0.15
 -11  -1   2    0.46    0.11
 -11  -1   2    0.32    0.11
  11   1  -2    0.52    0.14
 -11   1   2    0.38    0.11
 -11   1   2    0.38    0.10
 -10  -1   2   13.18    0.53
 -10  -1   2   13.79    0.53
 -10  -1   2   13.17    0.53
 -10   1   2   12.64    0.53
  10   1  -2   13.29    0.54
 -10   1   2   12.90    0.52
  -9  -1   2    7.07    0.32
  -9  -1   2    6.43    0.33
  -9  -1   2    6.62    0.34
  -9   1   2    7.02    0.37
  -9   1   2    6.67    0.43
  -9   1   2    6.60    0.38
  -8  -1   2    0.95    0.22
  -8  -1   2    1.11    0.15
  -8  -1   2    1.12    0.23
  -8   1   2    1.31    0.18
  -8   1   2    1.14    0.29
  -8   1   2    1.08    0.18
  -7  -1   2    0.04    0.08
  -7   1   2    0.08    0.11
  -7   1   2    0.11    0.11
  -7   1   2    0.14    0.12
  -6  -1   2    0.13    0.07
   5  -1  -2    2.75    0.10
   5  -1  -2    2.50    0.10
  -5  -1   2    2.33    0.15
   4  -1  -2  184.79    5.87
   4  -1  -2  176.52    5.89
  -4  -1   2  188.91    5.86
  -3  -1   2   91.77    2.96
   3  -1  -2   88.24    2.95
  -3  -1   2   95.87    2.96
  -2  -1   2   30.23    0.98
   2  -1  -2   29.96    0.98
  -2   1   2   30.20    0.98
  -1  -1   2  181.87    5.86
   1  -1  -2  174.22    5.86
  -1   1   2  188.49    5.88
   0  -1   2   12.49    0.39
   0  -1  -2   10.90    0.39
   0   1  -2   10.26    0.38
   0   1   2   12.63    0.39
   1  -1   2  108.78    3.27
  -1  -1  -2   89.66    3.24
  -1   1  -2   98.66    3.28
   1   1   2  107.91    3.28
  -2  -1  -2    1.79    0.08
   2  -1   2    1.93    0.08
   2   1   2    1.82    0.08
  -3  -1  -2   45.32    1.51
   3  -1   2   46.92    1.52
   3   1   2   48.59    1.51
  -4  -1  -2   33.15    1.12
   4  -1   2   35.17    1.13
   4   1   2   35.70    1.12
   5  -1   2    1.79    0.10
   5  -1   2    1.85    0.09
  -5  -1  -2    1.82    0.13
  -5   1  -2    1.70    0.15
  -6  -1  -2  100.89    3.26
  -6   1  -2  100.05    3.26
  -7  -1  -2    9.04    0.36
  -7  -1  -2    8.79    0.39
  -7   1  -2    8.84    0.38
  -7   1  -2    8.97    0.39
  -8  -1  -2    8.54    0.36
  -8  -1  -2    9.19    0.40
  -8  -1  -2    8.48    0.38
  -8   1  -2    8.18    0.37
  -8   1  -2    8.85    0.38
  -8   1  -2    8.61    0.38
  -9  -1  -2   42.83    1.51
  -9  -1  -2   44.39    1.50
  -9  -1  -2   45.72    1.51
  -9   1  -2   43.92    1.51
  -9   1  -2   44.28    1.50
  -9   1  -2   44.63    1.50
 -10  -1  -2  186.22    6.07
 -10  -1  -2  193.74    6.18
 -10  -1  -2  189.62    6.07
 -10   1  -2  185.36    6.07
 -10   1  -2  184.33    6.08
 -11  -1  -2    4.71    0.26
 -11  -1  -2    4.67    0.27
 -11  -1  -2    4.37    0.28
 -11   1  -2    4.58    0.26
 -11   1  -2    4.72    0.26
 -12  -1  -2   13.35    0.51
 -12  -1  -2   13.29    0.51
 -12  -1  -2   13.23    0.55
 -12   1  -2   13.51    0.51
 -12   1  -2   13.43    0.51
 -13  -1  -2   13.92    0.51
 -13  -1  -2   14.46    0.51
 -13   1  -2   14.31    0.51
 -13   1  -2   13.86    0.52
 -14   1  -2    1.70    0.12
 -14   2   2   25.94    0.86
 -14   2   2   25.30    0.86
 -13   2   2   -0.01    0.05
 -13   2   2   -0.02    0.06
 -12  -2   2    0.92    0.19
 -12  -2   2    1.23    0.32
 -12   2   2    0.84    0.14
  12   2  -2    0.96    0.21
 -12   2   2    1.08    0.14
 -11  -2   2    8.71    0.41
 -11  -2   2    8.72    0.40
 -11  -2   2    7.92    0.39
 -11   2   2    8.68    0.38
 -11   2   2    9.20    0.39
  11   2  -2    8.69    0.39
 -10  -2   2    4.71    0.29
 -10  -2   2    5.18    0.31
 -10  -2   2    5.05    0.32
 -10   2   2    5.33    0.28
  10   2  -2    5.18    0.30
 -10   2   2    5.21    0.33
 -10   2   2    5.58    0.28
  -9  -2   2    0.89    0.16
  -9  -2   2    1.11    0.26
   9   2  -2    0.83    0.21
  -9   2   2    1.11    0.25
  -9   2   2    0.89    0.17
  -9   2   2    1.04    0.18
  -8  -2   2   20.20    0.78
  -8  -2   2   20.58    0.74
  -8  -2   2   20.15    0.77
  -8   2   2   20.09    0.74
  -8   2   2   21.62    0.76
   8   2  -2   21.22    0.76
  -8   2   2   20.23    0.77
  -7  -2   2    6.59    0.28
  -7   2   2    6.32    0.31
  -7   2   2    6.08    0.38
   7   2  -2    6.18    0.33
  -7   2   2    6.39    0.32
   6  -2  -2   54.09    1.81
  -6  -2   2   56.79    1.83
  -5  -2   2    2.28    0.12
   5  -2  -2    2.34    0.13
  -5  -2   2    2.12    0.14
  -5  -2   2    2.13    0.11
   5  -2  -2    2.10    0.14
   4  -2  -2   19.49    0.65
  -4  -2   2   18.20    0.65
   4  -2  -2   19.17    0.65
  -4  -2   2   19.31    0.64
  -4  -2   2   18.96    0.64
   3  -2  -2    0.04    0.03
  -3  -2   2    0.03    0.03
  -3  -2   2    0.06    0.03
   2  -2  -2   29.96    0.98
  -2  -2   2   30.28    0.98
  -2  -2   2   28.29    0.97
   1  -2  -2  179.38    6.14
  -1  -2   2  206.54    6.21
  -1  -2   2  210.36    6.22
  -1   2   2  170.91    6.15
   0  -2   2  890.55   26.90
   0  -2  -2  824.57   26.85
   0   2   2  795.45   26.83
  -1  -2  -2  257.70    8.56
   1  -2   2  258.68    8.59
   1   2   2  277.28    8.54
   2  -2   2   23.69    0.78
  -2  -2  -2   22.38    0.77
   2   2   2   23.78    0.78
  -3  -2  -2  122.96    4.02
  -3  -2  -2  129.84    4.05
   3  -2   2  125.09    4.03
   3  -2   2  122.99    4.03
   4  -2   2   22.71    0.73
  -4  -2  -2   21.28    0.74
  -4  -2  -2   21.54    0.72
   4  -2   2   22.11    0.73
  -4   2  -2   19.94    0.74
   5  -2   2    0.32    0.07
   5  -2   2    0.44    0.10
  -5  -2  -2    0.35    0.08
  -5  -2  -2    0.39    0.09
  -5  -2  -2    0.42    0.10
  -5   2  -2    0.39    0.09
  -6  -2  -2   14.28    0.51
  -6   2  -2   13.13    0.51
  -7  -2  -2   12.01    0.49
  -7  -2  -2   12.44    0.46
  -7   2  -2   12.31    0.48
   7   2   2   10.98    0.51
  -7   2  -2   12.56    0.49
  -7   2  -2   12.09    0.47
  -8  -2  -2   45.68    1.52
  -8  -2  -2   43.91    1.54
  -8  -2  -2   45.04    1.52
  -8   2  -2   44.17    1.52
   8   2   2   43.96    1.53
  -8   2  -2   46.92    1.53
  -8   2  -2   45.99    1.52
  -9  -2  -2   19.02    0.69
  -9  -2  -2   18.48    0.69
  -9  -2  -2   18.68    0.71
   9   2   2   17.44    0.70
  -9   2  -2   18.31    0.69
  -9   2  -2   18.91    0.70
  -9   2  -2   18.05    0.68
 -10  -2  -2    2.79    0.27
 -10  -2  -2    2.89    0.21
 -10  -2  -2    3.34    0.24
 -10   2  -2    3.18    0.21
 -10   2  -2    3.17    0.22
 -11  -2  -2   29.91    1.01
 -11  -2  -2   26.52    1.01
 -11   2  -2   30.17    1.02
 -11   2  -2   28.72    1.00
 -12  -2  -2    7.24    0.32
 -12  -2  -2    6.96    0.34
 -12   2  -2    7.63    0.31
 -12   2  -2    6.99    0.31
 -13   2  -2    0.05    0.05
 -13   2  -2    0.05    0.06
 -13   3   2   11.71    0.43
 -13   3   2   11.48    0.42
 -12  -3   2    1.66    0.23
  12   3  -2    1.84    0.20
 -12   3   2    1.74    0.15
 -12   3   2    1.81    0.15
 -11  -3   2   -0.09    0.10
  11   3  -2    0.02    0.11
 -11   3   2    0.07    0.09
 -10  -3   2   24.47    0.95
 -10   3   2   28.31    0.96
 -10   3   2   27.62    0.95
  10   3  -2   27.88    0.95
 -10   3   2   26.67    0.96
  -9  -3   2   69.06    2.22
  -9   3   2   65.13    2.22
  -9   3   2   65.45    2.22
  -9   3   2   66.10    2.21
   9   3  -2   68.00    2.22
  -8  -3   2    2.05    0.18
  -8   3   2    2.09    0.25
  -8   3   2    1.56    0.25
  -8   3   2    1.88    0.19
  -7  -3   2   93.95    3.06
  -7   3   2   93.24    3.06
  -7   3   2   90.67    3.06
  -7   3   2   92.94    3.05
   7   3  -2   95.93    3.06
  -6  -3   2    1.37    0.14
   6   3  -2    1.48    0.21
  -6   3   2    1.34    0.24
  -6   3   2    1.07    0.27
  -6   3   2    1.30    0.21
   5  -3  -2   13.12    0.55
   5  -3  -2   14.19    0.52
  -5  -3   2   11.87    0.57
  -5  -3   2   14.47    0.51
  -4  -3   2    0.59    0.16
  -4  -3   2    0.55    0.10
  -4  -3   2    0.42    0.12
   4  -3  -2    0.68    0.13
   4  -3  -2    0.40    0.10
   3  -3  -2    3.16    0.18
  -3  -3   2    3.11    0.19
  -3  -3   2    3.14    0.17
   2  -3  -2   50.81    1.62
  -2  -3   2   48.97    1.62
  -2  -3   2   47.10    1.61
  -1  -3   2   60.09    1.93
   1  -3  -2   57.92    1.92
  -1  -3   2   58.18    1.92
   1   3  -2   58.19    1.92
   0  -3  -2    0.31    0.08
   0  -3   2    0.48    0.08
   0  -3   2    0.30    0.10
   0   3  -2    0.31    0.07
   1  -3   2   34.34    1.11
   1  -3   2   33.14    1.12
  -1  -3  -2   34.12    1.11
  -1   3  -2   30.47    1.10
  -2  -3  -2   30.63    1.04
  -2  -3  -2   31.47    1.05
   2  -3   2   30.67    1.06
   2  -3   2   32.57    1.06
  -2   3  -2   30.29    1.04
   3  -3   2   30.41    1.03
  -3  -3  -2   29.70    1.01
   3  -3   2   31.05    1.02
  -3  -3  -2   30.01    1.01
  -3   3  -2   28.45    1.01
  -4  -3  -2    8.97    0.36
   4  -3   2    9.26    0.41
  -4  -3  -2    9.30    0.36
   4  -3   2    9.48    0.38
  -4   3  -2    9.07    0.37
  -5  -3  -2   16.63    0.62
   5  -3   2   17.66    0.66
  -5   3  -2   17.39    0.62
  -6  -3  -2    2.60    0.16
  -6   3  -2    2.30    0.20
   6   3   2    1.99    0.25
  -6   3  -2    2.43    0.25
  -6   3  -2    2.31    0.26
  -7  -3  -2    0.37    0.17
  -7  -3  -2    0.29    0.08
  -7   3  -2    0.25    0.12
  -7   3  -2    0.41    0.13
   7   3   2    0.27    0.15
  -7   3  -2    0.33    0.12
  -8  -3  -2    0.27    0.10
  -8  -3  -2    0.45    0.18
  -8   3  -2    0.19    0.11
   8   3   2    0.54    0.15
  -8   3  -2    0.34    0.11
  -9  -3  -2    0.76    0.15
  -9  -3  -2    0.69    0.14
  -9   3  -2    0.82    0.12
   9   3   2    0.56    0.15
  -9   3  -2    0.90    0.18
 -10  -3  -2    4.91    0.26
 -10   3  -2    4.92    0.27
 -10   3  -2    4.91    0.26
  10   3   2    4.00    0.31
 -11  -3  -2    0.61    0.16
 -11   3  -2    0.95    0.15
 -11   3  -2    0.72    0.13
 -12  -3  -2   28.32    0.97
 -12   3  -2   27.54    0.95
 -12   3  -2   27.79    0.96
 -13   3  -2   10.00    0.35
 -13   3  -2    9.01    0.35
 -12  -4   2    0.47    0.15
 -12   4   2    0.48    0.12
 -12   4   2    0.40    0.09
  12   4  -2    0.74    0.18
 -11  -4   2   10.88    0.50
 -11   4   2   10.49    0.41
  11   4  -2   10.35    0.41
 -11   4   2   10.41    0.42
 -10  -4   2    8.21    0.38
 -10   4   2    8.82    0.42
  10   4  -2    9.11    0.40
  -9  -4   2    4.13    0.25
  -9   4   2    4.20    0.25
  -9   4   2    4.31    0.28
  -9   4   2    4.83    0.30
   9   4  -2    4.71    0.27
  -8  -4   2    1.29    0.21
  -8   4   2    1.09    0.19
  -8   4   2    1.06    0.23
   8   4  -2    1.23    0.20
  -8   4   2    1.19    0.24
  -7  -4   2    0.50    0.13
  -7   4   2    0.68    0.16
  -7   4   2    0.00    0.30
  -7   4   2    0.33    0.12
   7   4  -2    0.22    0.12
  -6   4   2   -0.02    0.14
  -6   4   2   -0.16    0.12
  -6   4   2   -0.04    0.14
   6   4  -2    0.06    0.12
  -5  -4   2    0.95    0.12
  -5   4   2    0.97    0.15
   5   4  -2    0.86    0.18
  -5   4   2    0.92    0.16
   5   4  -2    1.07    0.19
  -5   4   2    1.33    0.27
  -4  -4   2    2.28    0.16
  -4  -4   2    2.36    0.31
   4   4  -2    2.73    0.43
   4   4  -2    2.08    0.21
  -4   4   2    1.92    0.27
  -4   4   2    2.37    0.22
   3  -4  -2    4.68    0.33
  -3  -4   2    5.55    0.33
  -3   4   2    5.55    0.30
   3   4  -2    5.41    0.30
  -3   4   2    6.77    0.48
   2  -4  -2   29.98    1.04
  -2  -4   2   28.32    1.03
  -2   4   2   29.82    1.01
   1  -4  -2   23.72    0.85
  -1  -4   2   23.49    0.85
   0  -4   2   32.02    1.12
   0  -4  -2   31.65    1.12
   0   4  -2   32.42    1.09
  -1  -4  -2    3.70    0.24
   1  -4   2    3.59    0.24
  -1   4  -2    3.70    0.20
  -2  -4  -2    3.46    0.25
  -2  -4  -2    3.66    0.19
   2  -4   2    3.69    0.26
  -2   4  -2    4.02    0.21
  -3  -4  -2   35.08    1.16
  -3  -4  -2   34.42    1.20
   3   4   2   32.85    1.17
  -3   4  -2   34.19    1.16
  -4  -4  -2    1.57    0.14
  -4  -4  -2    1.72    0.38
  -4   4  -2    1.79    0.19
   4   4   2    1.78    0.21
  -4   4  -2    1.90    0.24
  -4   4  -2    1.61    0.32
  -5  -4  -2    9.61    0.38
  -5   4  -2    8.75    0.47
   5   4   2    8.91    0.40
  -5   4  -2    9.35    0.39
  -5   4  -2    8.53    0.44
  -6  -4  -2    8.91    0.37
  -6   4  -2    8.27    0.43
   6   4   2    9.12    0.40
  -6   4  -2    8.61    0.42
  -6   4  -2    8.49    0.39
  -7   4  -2    0.26    0.15
  -7   4  -2    0.49    0.13
   7   4   2    0.44    0.13
  -8  -4  -2    1.01    0.15
  -8   4  -2    0.75    0.15
   8   4   2    1.00    0.20
  -8   4  -2    1.11    0.20
  -9  -4  -2    1.55    0.16
  -9   4  -2    1.61    0.20
   9   4   2    1.44    0.21
  -9   4  -2    1.62    0.19
 -10  -4  -2   10.55    0.45
 -10   4  -2   11.30    0.45
  10   4   2   11.00    0.45
 -10   4  -2   11.37    0.44
 -11  -4  -2    0.82    0.15
 -11   4  -2    1.04    0.15
 -11   4  -2    0.93    0.15
 -12   4  -2    0.39    0.08
 -12   4  -2    0.30    0.08
 -11  -5   2    0.03    0.10
 -11   5   2   -0.07    0.09
 -10  -5   2    3.41    0.23
  10   5  -2    3.23    0.20
 -10   5   2    3.21    0.20
  -9  -5   2    0.63    0.14
  -9   5   2    0.50    0.11
  -9   5   2    0.56    0.14
   9   5  -2    0.39    0.13
  -8  -5   2    5.08    0.28
  -8   5   2    5.44    0.30
  -8   5   2    5.77    0.32
   8   5  -2    5.86    0.30
  -7  -5   2   13.28    0.55
   7   5  -2   14.49    0.56
  -7   5   2   14.64    0.56
  -7   5   2   14.04    0.56
  -7   5   2   14.46    0.58
  -6  -5   2    1.24    0.15
   6   5  -2    1.11    0.18
  -6   5   2    1.26    0.18
  -6   5   2    1.38    0.21
  -6   5   2    1.36    0.23
   6   5  -2    1.38    0.28
  -5  -5   2    0.57    0.13
  -5   5   2    0.42    0.13
   5   5  -2    0.34    0.12
  -5   5   2    0.63    0.15
  -4  -5   2    0.04    0.08
  -4   5   2    0.21    0.14
   4   5  -2    0.19    0.12
  -4   5   2    0.06    0.10
   4   5  -2    0.20    0.12
  -3  -5   2    0.88    0.13
  -3   5   2    0.68    0.13
   3   5  -2    0.70    0.14
  -3   5   2    0.68    0.14
   3   5  -2    0.60    0.13
  -2   5   2    6.18    0.30
   2   5  -2    5.89    0.31
  -2   5   2    6.19    0.33
   2   5  -2    6.08    0.30
   1   5  -2   77.23    2.56
  -1   5   2   77.16    2.55
   1   5  -2   75.64    2.54
  -1   5   2   80.38    2.56
   0   5  -2    0.08    0.13
   0   5   2    0.24    0.11
   0   5  -2    0.29    0.11
   0   5   2    0.10    0.11
  -1  -5  -2    7.18    0.32
  -1   5  -2    7.48    0.35
  -1   5  -2    7.96    0.34
   1   5   2    7.46    0.35
   1   5   2    7.36    0.35
  -1   5  -2    7.59    0.38
  -2  -5  -2    0.18    0.09
  -2   5  -2    0.27    0.11
   2   5   2    0.30    0.12
  -2   5  -2    0.44    0.11
  -2   5  -2    0.16    0.14
   2   5   2   -0.05    0.11
  -3  -5  -2   23.51    0.84
   3   5   2   23.50    0.85
  -3   5  -2   24.08    0.85
   3   5   2   22.81    0.84
  -3   5  -2   24.29    0.87
  -3   5  -2   24.07    0.85
  -4  -5  -2   22.04    0.77
  -4   5  -2   20.64    0.78
   4   5   2   19.67    0.77
  -4   5  -2   20.78    0.80
  -4   5  -2   22.51    0.77
  -5  -5  -2   20.22    0.72
   5   5   2   19.30    0.72
  -5   5  -2   18.25    0.72
  -5   5  -2   19.94    0.75
  -6  -5  -2   14.40    0.55
   6   5   2   12.86    0.52
  -6   5  -2   13.03    0.55
  -6   5  -2   12.16    0.56
  -7  -5  -2   87.56    3.02
   7   5   2   96.22    3.02
  -8  -5  -2    7.77    0.36
   8   5   2    8.83    0.37
  -9  -5  -2    0.18    0.09
   9   5   2    0.27    0.11
 -10  -5  -2    1.38    0.15
  10   5   2    1.24    0.21
 -11  -5  -2    1.77    0.18
 -10  -6   2    0.08    0.10
  10   6  -2    0.04    0.07
  -9  -6   2    2.80    0.19
   9   6  -2    2.82    0.18
  -8  -6   2    2.03    0.17
  -8   6   2    2.21    0.20
   8   6  -2    1.93    0.17
  -7  -6   2    0.07    0.08
   7   6  -2   -0.14    0.09
  -7   6   2    0.04    0.12
  -7   6   2    0.19    0.11
  -6  -6   2    0.31    0.10
   6   6  -2    0.31    0.11
   6   6  -2    0.14    0.14
  -6   6   2    0.54    0.14
  -6   6   2    0.77    0.17
  -5  -6   2    0.04    0.09
  -5   6   2    0.21    0.10
  -5   6   2    0.19    0.12
   5   6  -2    0.07    0.09
   5   6  -2   -0.06    0.12
  -4  -6   2    2.27    0.18
   4   6  -2    1.82    0.20
  -4   6   2    2.37    0.21
   4   6  -2    2.45    0.21
  -4   6   2    2.23    0.23
  -3  -6   2    4.82    0.26
   3   6  -2    3.93    0.26
  -3   6   2    4.25    0.26
  -3   6   2    4.95    0.29
   3   6  -2    4.07    0.27
  -2  -6   2   14.21    0.54
   2   6  -2   14.22    0.55
   2   6  -2   13.20    0.53
  -2   6   2   13.54    0.54
  -2   6   2   13.65    0.56
   1  -6  -2   -0.14    0.12
  -1   6   2    0.11    0.10
   1   6  -2   -0.06    0.09
   1   6  -2    0.19    0.13
  -1   6   2    0.02    0.10
   0  -6  -2   20.53    0.72
   0   6  -2   18.76    0.73
   0   6   2   19.10    0.71
   0   6   2   19.89    0.73
   0   6  -2   19.30    0.71
  -1  -6  -2    3.28    0.22
  -1   6  -2    3.35    0.23
   1   6   2    3.15    0.24
  -1   6  -2    2.89    0.25
   1   6   2    3.16    0.22
  -2  -6  -2   12.40    0.49
  -2   6  -2   12.24    0.52
  -2   6  -2   11.70    0.49
   2   6   2   12.28    0.50
   2   6   2   12.15    0.48
  -3  -6  -2   25.68    0.90
   3   6   2   24.99    0.88
  -3   6  -2   24.79    0.90
   3   6   2   24.13    0.89
  -3   6  -2   24.71    0.89
  -4  -6  -2    1.62    0.17
   4   6   2    1.78    0.20
  -4   6  -2    1.73    0.21
  -4   6  -2    1.89    0.25
   4   6   2    1.42    0.22
  -5  -6  -2   16.23    0.63
  -5   6  -2   17.29    0.64
   5   6   2   16.82    0.63
  -5   6  -2   16.74    0.65
  -6  -6  -2    1.56    0.16
   6   6   2    1.54    0.18
  -6   6  -2    1.48    0.23
  -7  -6  -2    0.23    0.08
   7   6   2    0.12    0.09
  -8  -6  -2    4.20    0.23
   8   6   2    4.51    0.23
  -9  -6  -2   17.70    0.61
   9   6   2   15.84    0.60
  -8  -7   2    4.03    0.22
   8   7  -2    3.74    0.19
  -7  -7   2    9.23    0.37
   7   7  -2    9.07    0.36
  -7   7   2    8.57    0.36
  -7   7   2    8.74    0.36
  -6  -7   2    0.15    0.08
   6   7  -2    0.07    0.08
  -6   7   2    0.09    0.10
  -6   7   2   -0.04    0.08
  -5  -7   2    7.88    0.34
  -5   7   2    6.99    0.33
   5   7  -2    7.22    0.33
  -5   7   2    7.53    0.32
   5   7  -2    7.65    0.33
  -4  -7   2    0.86    0.15
   4   7  -2    0.77    0.15
  -4   7   2    1.10    0.21
  -4   7   2    1.18    0.18
  -3  -7   2    1.37    0.17
   3   7  -2    1.57    0.17
  -3   7   2    1.20    0.19
   3   7  -2    1.33    0.17
  -3   7   2    1.40    0.17
  -2  -7   2   -0.01    0.09
   2   7  -2    0.02    0.08
  -2   7   2    0.05    0.08
   2   7  -2    0.08    0.10
  -2   7   2    0.00    0.10
  -1  -7   2   16.91    0.64
  -1   7   2   16.56    0.64
  -1   7   2   16.84    0.62
   1   7  -2   17.29    0.63
   1   7  -2   16.21    0.64
   0  -7   2    1.75    0.20
   0   7  -2    1.78    0.20
   0   7  -2    1.67    0.18
   0   7   2    2.27    0.21
   0   7   2    1.70    0.18
  -1  -7  -2    2.39    0.23
   1  -7   2    1.75    0.22
  -1   7  -2    2.15    0.19
   1   7   2    2.26    0.20
   1   7   2    2.31    0.19
  -1   7  -2    2.09    0.22
   2  -7   2    6.07    0.40
  -2  -7  -2    6.64    0.33
  -2   7  -2    7.15    0.34
  -2   7  -2    6.66    0.32
   2   7   2    6.95    0.31
  -3  -7  -2    0.09    0.11
  -3   7  -2    0.20    0.10
   3   7   2    0.05    0.09
  -4  -7  -2    1.57    0.17
   4   7   2    1.04    0.19
  -4   7  -2    1.33    0.17
  -4   7  -2    1.21    0.20
   4   7   2    1.30    0.16
  -5  -7  -2    4.04    0.23
  -5   7  -2    3.91    0.23
  -5   7  -2    4.25    0.27
   5   7   2    4.09    0.23
  -6  -7  -2    7.18    0.31
   6   7   2    7.28    0.31
  -6   7  -2    6.66    0.31
  -7  -7  -2    5.54    0.26
   7   7   2    4.86    0.23
   8   7   2    2.44    0.17
  -6   8   2    5.92    0.27
  -5   8   2    0.08    0.09
  -5   8   2    0.13    0.10
  -4  -8   2    1.48    0.20
  -4   8   2    1.37    0.15
  -4   8   2    1.36    0.12
   4   8  -2    1.53    0.16
   4   8  -2    1.31    0.13
  -3  -8   2   14.15    0.54
   3   8  -2   14.76    0.51
  -3   8   2   14.36    0.51
   3   8  -2   13.99    0.52
  -3   8   2   13.50    0.52
  -2  -8   2    0.14    0.14
  -2   8   2    0.15    0.06
   2   8  -2    0.16    0.08
  -2   8   2    0.15    0.08
   2   8  -2    0.50    0.12
  -1  -8   2    2.38    0.31
  -1   8   2    2.33    0.17
   1   8  -2    2.69    0.17
   1   8  -2    2.50    0.18
  -1   8   2    2.53    0.16
   0   8  -2   10.91    0.42
   0   8   2   11.39    0.43
   0   8   2   11.15    0.42
   0   8  -2   10.64    0.43
   1   8   2   -0.07    0.07
   1   8   2    0.05    0.08
  -1   8  -2    0.06    0.07
  -1   8  -2   -0.17    0.08
  -2   8  -2    2.43    0.19
  -2   8  -2    2.93    0.17
   2   8   2    2.53    0.17
   2   8   2    2.95    0.17
  -3   8  -2    7.16    0.31
   3   8   2    7.26    0.30
  -3   8  -2    7.27    0.30
   3   8   2    7.47    0.30
   4   8   2    0.02    0.07
  -4   8  -2    0.02    0.06
  -5   8  -2    0.02    0.09
   6   8   2    4.71    0.21
 -14   0   3    0.11    0.09
 -14   0   3    0.00    0.10
 -13   0   3    1.71    0.15
 -13   0   3    1.71    0.16
 -12   0   3    0.05    0.08
 -12   0   3   -0.03    0.08
  12   0  -3    0.04    0.13
 -11   0   3    7.12    0.34
 -11   0   3    7.25    0.35
 -10   0   3    0.00    0.10
 -10   0   3   -0.09    0.10
  -9   0   3   62.37    2.10
  -9   0   3   64.53    2.12
  -8   0   3    0.35    0.15
  -8   0   3    0.03    0.12
  -8   0   3    0.05    0.11
  -8   0   3   -0.07    0.11
  -7   0   3   35.16    1.18
  -6   0   3    0.01    0.10
   3   0  -3   14.36    0.48
  -3   0   3   15.37    0.48
   2   0  -3    0.02    0.01
  -2   0   3    0.01    0.01
   1   0  -3    2.28    0.09
   0   0  -3    0.01    0.01
   0   0   3    0.01    0.01
   1   0   3    4.20    0.15
  -1   0  -3    3.96    0.15
  -2   0  -3    0.01    0.01
   2   0   3    0.03    0.01
  -3   0  -3  385.60   12.78
   3   0   3  411.92   12.80
   4   0   3   -0.01    0.02
  -4   0  -3    0.02    0.02
  -5   0  -3   25.70    0.92
   5   0   3   28.94    0.88
  -6   0  -3    0.04    0.07
  -7   0  -3    2.63    0.17
  -7   0  -3    2.39    0.21
  -7   0  -3    2.00    0.22
  -8   0  -3   -0.01    0.10
  -8   0  -3    0.12    0.09
  -8   0  -3   -0.11    0.08
  -9   0  -3   59.78    1.95
  -9   0  -3   57.28    1.95
  -9   0  -3   58.35    1.95
 -10   0  -3    0.10    0.10
 -10   0  -3   -0.16    0.15
 -10   0  -3   -0.04    0.08
 -11   0  -3   70.56    2.48
 -11   0  -3   77.33    2.48
 -11   0  -3   76.85    2.48
 -12   0  -3    0.12    0.16
 -12   0  -3    0.07    0.07
 -12   0  -3    0.08    0.08
 -13   0  -3    0.06    0.06
 -13   0  -3    0.07    0.07
 -14   0  -3    0.11    0.08
 -14  -1   3    0.10    0.10
 -14  -1   3    0.15    0.12
 -14   1   3    0.20    0.06
 -14   1   3    0.25    0.06
 -13  -1   3   33.31    1.13
 -13  -1   3   33.27    1.13
 -13   1   3   33.62    1.14
 -13   1   3   33.68    1.14
 -12  -1   3   11.36    0.53
 -12  -1   3   11.58    0.51
 -12   1   3   12.86    0.48
  12   1  -3   11.99    0.48
 -12   1   3   11.85    0.49
 -11  -1   3    1.86    0.21
 -11  -1   3    1.76    0.21
 -11  -1   3    1.64    0.26
  11   1  -3    1.85    0.21
 -11   1   3    2.26    0.20
 -11   1   3    1.71    0.18
 -10  -1   3    6.96    0.34
 -10  -1   3    6.89    0.34
 -10  -1   3    6.61    0.34
  10   1  -3    6.45    0.34
 -10   1   3    6.62    0.32
 -10   1   3    6.56    0.33
  -9  -1   3   61.39    2.00
  -9  -1   3   61.43    2.00
  -9  -1   3   61.66    1.99
  -9   1   3   58.00    2.01
  -9   1   3   59.39    2.00
  -9   1   3   57.55    2.00
  -8  -1   3    0.25    0.10
  -8  -1   3    0.27    0.13
  -8  -1   3    0.37    0.14
  -8   1   3    0.45    0.17
  -8   1   3    0.37    0.11
  -8   1   3    0.24    0.11
  -7  -1   3   50.12    1.65
  -7   1   3   49.97    1.66
  -7   1   3   49.44    1.67
  -6  -1   3   38.60    1.28
   5  -1  -3   39.57    1.25
  -5  -1   3   39.02    1.30
   5  -1  -3   37.62    1.25
  -4  -1   3  154.39    4.73
   4  -1  -3  143.95    4.73
  -4  -1   3  144.50    4.73
  -3  -1   3   62.19    1.98
   3  -1  -3   60.41    1.98
  -3   1   3   61.90    1.98
   2  -1  -3   12.55    0.42
  -2  -1   3   12.88    0.42
   2   1  -3   12.55    0.42
  -2   1   3   12.73    0.42
  -1  -1   3   86.93    2.88
   1  -1  -3   91.39    2.90
   1   1  -3   88.89    2.90
  -1   1   3   92.69    2.89
   0  -1  -3    0.36    0.03
   0  -1   3    0.39    0.04
   0   1   3    0.43    0.04
   0   1  -3    0.38    0.04
   1  -1   3   65.36    2.05
  -1  -1  -3   62.06    2.05
  -1   1  -3   62.67    2.05
   1   1   3   64.61    2.05
  -2  -1  -3   11.35    0.39
   2  -1   3   12.02    0.40
  -2   1  -3   10.98    0.40
   2   1   3   12.52    0.40
  -3  -1  -3   17.44    0.60
   3  -1   3   18.50    0.61
   3   1   3   18.70    0.60
  -3   1  -3   18.11    0.61
  -4  -1  -3    0.78    0.06
   4  -1   3    0.78    0.07
  -4  -1  -3    0.60    0.09
   4   1   3    0.86    0.06
   5  -1   3   21.54    0.70
  -5  -1  -3   20.01    0.72
  -5  -1  -3   21.45    0.69
   5  -1   3   21.63    0.70
  -5   1  -3   20.54    0.73
  -6  -1  -3    8.50    0.34
  -6   1  -3    8.59    0.35
  -7  -1  -3   15.78    0.64
  -7  -1  -3   17.12    0.61
  -7  -1  -3   17.64    0.63
  -7   1  -3   16.77    0.63
  -7   1  -3   17.50    0.61
  -7   1  -3   16.10    0.62
  -8  -1  -3    0.16    0.09
  -8  -1  -3    0.17    0.13
  -8  -1  -3    0.04    0.11
  -8   1  -3    0.17    0.10
  -8   1  -3    0.11    0.09
  -8   1  -3    0.10    0.09
  -9  -1  -3    1.05    0.20
  -9  -1  -3    1.35    0.16
  -9  -1  -3    1.00    0.19
  -9   1  -3    0.99    0.18
  -9   1  -3    1.01    0.17
  -9   1  -3    1.14    0.18
 -10  -1  -3   60.58    1.98
 -10  -1  -3   60.77    1.99
 -10  -1  -3   58.47    1.99
 -10   1  -3   58.63    1.99
 -10   1  -3   57.13    1.98
 -10   1  -3   60.50    1.98
 -11  -1  -3   12.77    0.51
 -11  -1  -3   13.46    0.51
 -11  -1  -3   12.45    0.52
 -11   1  -3   12.91    0.50
 -11   1  -3   13.12    0.51
 -11   1  -3   12.06    0.52
 -12  -1  -3    4.13    0.23
 -12  -1  -3    4.23    0.22
 -12   1  -3    4.21    0.22
 -12   1  -3    4.10    0.23
 -13  -1  -3   12.31    0.44
 -13  -1  -3   12.26    0.48
 -13   1  -3   11.80    0.45
 -13   1  -3   11.83    0.44
 -14   2   3    0.69    0.09
 -14   2   3    0.70    0.09
 -13   2   3    3.61    0.19
 -13   2   3    3.33    0.19
 -12  -2   3    1.15    0.22
 -12  -2   3    1.10    0.21
  12   2  -3    1.52    0.19
 -12   2   3    1.22    0.14
 -12   2   3    1.33    0.15
 -11  -2   3    0.05    0.12
 -11  -2   3    0.05    0.13
 -11  -2   3    0.14    0.13
  11   2  -3   -0.02    0.11
 -11   2   3    0.04    0.08
 -11   2   3    0.09    0.09
 -10  -2   3   14.32    0.58
 -10  -2   3   12.79    0.69
 -10  -2   3   14.71    0.60
 -10   2   3   15.47    0.59
  10   2  -3   15.48    0.58
 -10   2   3   15.49    0.58
 -10   2   3   14.65    0.57
  -9  -2   3   15.15    0.61
  -9  -2   3   15.03    0.62
  -9  -2   3   15.98    0.59
  -9   2   3   15.08    0.60
  -9   2   3   15.77    0.59
   9   2  -3   15.47    0.59
  -9   2   3   15.20    0.61
  -8  -2   3    2.20    0.17
  -8  -2   3    2.16    0.29
  -8  -2   3    1.87    0.30
  -8   2   3    2.43    0.20
  -8   2   3    2.35    0.21
  -8   2   3    2.22    0.27
   8   2  -3    2.14    0.22
  -7  -2   3   19.68    0.70
  -7   2   3   19.68    0.74
  -7   2   3   19.28    0.72
  -7   2   3   18.72    0.70
   7   2  -3   20.70    0.73
  -6  -2   3    0.07    0.07
   6  -2  -3    0.21    0.06
  -5  -2   3   74.57    2.38
  -5  -2   3   72.58    2.38
   5  -2  -3   74.21    2.40
  -5  -2   3   72.18    2.41
   5  -2  -3   76.14    2.40
  -4  -2   3   47.86    1.64
  -4  -2   3   49.92    1.63
  -4  -2   3   51.88    1.63
   4  -2  -3   50.40    1.63
  -3  -2   3  191.80    6.05
  -3  -2   3  192.00    6.05
   3  -2  -3  183.00    6.06
   2  -2  -3   92.68    3.19
  -2  -2   3  103.81    3.19
  -2   2   3  100.72    3.19
   1  -2  -3    9.38    0.33
  -1   2   3    9.17    0.33
   0  -2   3  254.82    8.33
   0  -2  -3  258.63    8.37
   0   2   3  261.97    8.34
   1  -2   3  829.70   26.12
  -1  -2  -3  801.65   26.11
   1   2   3  809.71   26.10
  -2  -2  -3   37.81    1.24
   2  -2   3   38.14    1.25
   2   2   3   37.39    1.24
   3  -2   3   32.79    1.07
  -3  -2  -3   30.05    1.06
  -3  -2  -3   32.10    1.06
   3   2   3   32.94    1.06
  -4  -2  -3   10.79    0.38
  -4  -2  -3   10.87    0.40
   4  -2   3   10.48    0.40
   4  -2   3   11.11    0.40
  -4   2  -3   10.65    0.40
  -5  -2  -3   17.96    0.62
  -5  -2  -3   18.82    0.64
   5  -2   3   17.44    0.64
   5  -2   3   18.50    0.64
  -5   2  -3   18.19    0.64
  -6  -2  -3    4.05    0.20
  -6   2  -3    4.02    0.22
  -6   2  -3    3.23    0.25
  -7  -2  -3    0.98    0.21
  -7  -2  -3    1.01    0.23
  -7  -2  -3    1.11    0.14
  -7   2  -3    1.15    0.19
  -7   2  -3    1.11    0.19
   7   2   3    0.92    0.24
  -7   2  -3    1.44    0.16
  -8  -2  -3   19.00    0.75
  -8  -2  -3   19.88    0.73
  -8  -2  -3   19.99    0.72
  -8   2  -3   19.81    0.72
  -8   2  -3   20.35    0.72
  -8   2  -3   19.31    0.73
  -9  -2  -3    1.06    0.19
  -9  -2  -3    1.00    0.15
  -9  -2  -3    0.95    0.17
  -9   2  -3    1.03    0.17
  -9   2  -3    0.77    0.17
  -9   2  -3    1.00    0.21
 -10  -2  -3    5.92    0.30
 -10  -2  -3    5.83    0.30
 -10  -2  -3    5.50    0.33
 -10   2  -3    6.23    0.30
 -10   2  -3    5.50    0.37
 -10   2  -3    6.01    0.30
 -11  -2  -3    0.98    0.16
 -11  -2  -3    0.75    0.15
 -11  -2  -3    1.04    0.21
 -11   2  -3    0.94    0.16
 -11   2  -3    0.95    0.15
 -12  -2  -3    3.10    0.23
 -12   2  -3    3.23    0.19
 -12   2  -3    3.33    0.19
 -13   2  -3   -0.01    0.05
 -13   2  -3    0.00    0.06
 -13   3   3   19.34    0.66
 -13   3   3   18.74    0.66
 -12  -3   3   11.79    0.50
 -12   3   3   12.52    0.47
  12   3  -3   12.49    0.47
 -12   3   3   12.45    0.47
 -11  -3   3    0.04    0.11
 -11   3   3    0.09    0.10
 -11   3   3    0.05    0.07
 -10  -3   3   12.89    0.53
 -10   3   3   14.20    0.55
  10   3  -3   13.69    0.54
 -10   3   3   13.60    0.55
 -10   3   3   13.63    0.53
  -9  -3   3   26.85    0.97
  -9   3   3   28.37    0.97
   9   3  -3   27.70    0.97
  -9   3   3   26.64    0.97
  -9   3   3   27.55    0.98
  -8  -3   3    1.16    0.15
  -8   3   3    0.90    0.20
  -8   3   3    1.04    0.19
   8   3  -3    0.70    0.15
  -8   3   3    0.98    0.18
  -7  -3   3   22.99    0.80
  -7   3   3   22.58    0.80
  -7   3   3   22.28    0.82
  -7   3   3   23.18    0.83
   7   3  -3   21.26    0.81
  -6  -3   3   50.19    1.62
  -6   3   3   48.58    1.64
  -6   3   3   48.64    1.62
  -6   3   3   47.53    1.64
   6   3  -3   47.58    1.63
   5  -3  -3   13.24    0.56
   5  -3  -3   14.96    0.54
  -4  -3   3   22.18    0.79
  -4  -3   3   22.79    0.79
   4  -3  -3   24.48    0.81
   4  -3  -3   22.41    0.82
  -4  -3   3   22.51    0.80
   3  -3  -3   79.25    2.52
  -3  -3   3   76.85    2.51
  -3  -3   3   74.54    2.50
  -2  -3   3   12.49    0.46
  -2  -3   3   11.72    0.45
   2  -3  -3   12.68    0.45
   2   3  -3   11.81    0.45
  -1  -3   3   53.57    1.75
   1  -3  -3   53.63    1.75
  -1  -3   3   51.91    1.75
   1   3  -3   53.16    1.74
   0  -3   3   38.51    1.29
   0  -3   3   40.49    1.29
   0  -3  -3   36.86    1.28
   0   3  -3   37.94    1.27
  -1  -3  -3    0.59    0.10
   1  -3   3    0.50    0.09
  -1  -3  -3    0.54    0.09
   1  -3   3    0.57    0.12
  -1   3  -3    0.45    0.11
  -2  -3  -3   66.89    2.17
  -2  -3  -3   63.41    2.16
   2  -3   3   68.57    2.18
   2  -3   3   64.81    2.19
  -2   3  -3   68.38    2.17
   3  -3   3   22.66    0.81
  -3  -3  -3   22.75    0.79
  -3  -3  -3   22.35    0.78
   3  -3   3   23.50    0.81
  -3   3  -3   23.12    0.79
  -4  -3  -3   13.29    0.51
  -4  -3  -3   13.70    0.50
   4  -3   3   13.87    0.53
  -4   3  -3   14.00    0.51
   5  -3   3   33.38    1.18
  -5  -3  -3   34.65    1.15
  -5   3  -3   33.25    1.14
  -6  -3  -3    1.40    0.30
  -6  -3  -3    1.81    0.15
  -6   3  -3    1.78    0.24
  -6   3  -3    1.81    0.24
   6   3   3    1.88    0.27
  -6   3  -3    1.60    0.18
  -7  -3  -3   80.09    2.61
  -7  -3  -3   75.16    2.60
  -7   3  -3   79.61    2.61
  -7   3  -3   80.68    2.60
   7   3   3   80.03    2.61
  -7   3  -3   79.44    2.60
  -8  -3  -3   46.53    1.62
  -8  -3  -3   51.36    1.63
  -8   3  -3   48.04    1.62
   8   3   3   46.36    1.62
  -8   3  -3   48.43    1.61
  -8   3  -3   47.27    1.62
  -9  -3  -3   41.30    1.48
  -9   3  -3   43.07    1.48
   9   3   3   43.32    1.48
  -9   3  -3   46.24    1.47
 -10  -3  -3    7.06    0.34
 -10   3  -3    7.86    0.35
 -10   3  -3    7.91    0.35
 -11  -3  -3    3.48    0.22
 -11   3  -3    3.26    0.20
 -11   3  -3    3.62    0.21
 -12  -3  -3    0.70    0.17
 -12   3  -3    0.66    0.11
 -12   3  -3    0.54    0.11
 -13   3  -3    4.55    0.20
 -13   3  -3    4.86    0.20
 -13   4   3    3.91    0.18
 -12  -4   3    4.47    0.33
 -12   4   3    4.21    0.21
 -12   4   3    4.17    0.20
 -11  -4   3    1.57    0.26
 -11   4   3    1.24    0.15
 -11   4   3    1.29    0.17
  11   4  -3    1.35    0.16
 -10  -4   3    0.02    0.10
 -10   4   3   -0.06    0.13
 -10   4   3    0.05    0.08
  10   4  -3    0.16    0.10
  -9  -4   3    0.11    0.09
  -9   4   3    0.08    0.13
   9   4  -3   -0.02    0.10
  -9   4   3    0.01    0.12
  -9   4   3    0.04    0.10
  -8  -4   3   16.35    0.67
  -8   4   3   17.33    0.66
   8   4  -3   17.37    0.65
  -8   4   3   17.00    0.66
  -8   4   3   17.48    0.64
  -7  -4   3   16.77    0.63
   7   4  -3   17.62    0.64
  -7   4   3   16.02    0.65
  -7   4   3   16.24    0.63
  -6  -4   3   77.67    2.46
  -6   4   3   73.01    2.45
   6   4  -3   74.63    2.46
  -6   4   3   74.15    2.45
  -6   4   3   72.74    2.47
  -5  -4   3    0.03    0.06
   5   4  -3    0.41    0.15
   5   4  -3    0.13    0.12
  -5   4   3    0.37    0.16
  -5   4   3   -0.03    0.14
  -5   4   3    0.07    0.12
  -4  -4   3    0.57    0.12
  -4  -4   3    0.46    0.17
  -4   4   3    0.74    0.14
   4   4  -3    0.63    0.14
  -4   4   3    0.72    0.15
   4   4  -3    0.52    0.12
  -3  -4   3    0.80    0.23
   3  -4  -3    0.29    0.12
  -3   4   3    0.55    0.15
  -3   4   3    0.61    0.14
   3   4  -3    0.48    0.12
   2  -4  -3   77.80    2.52
  -2  -4   3   73.56    2.50
   1  -4  -3    2.78    0.22
  -1  -4   3    3.01    0.22
   1   4  -3    2.93    0.18
   0  -4  -3  237.50    7.52
   0  -4   3  234.85    7.52
   0   4  -3  227.39    7.49
  -1  -4  -3   43.47    1.51
   1  -4   3   45.14    1.52
  -1  -4  -3   43.38    1.47
  -1   4  -3   45.54    1.48
   2  -4   3    0.07    0.10
  -2  -4  -3    0.16    0.07
  -2  -4  -3    0.09    0.09
  -2   4  -3    0.15    0.08
  -3  -4  -3    4.15    0.32
  -3  -4  -3    4.52    0.22
   3   4   3    4.43    0.28
  -3   4  -3    4.67    0.30
  -3   4  -3    4.40    0.31
  -4  -4  -3   40.49    1.33
  -4   4  -3   41.82    1.33
  -4   4  -3   38.46    1.34
  -4   4  -3   36.85    1.36
   4   4   3   39.21    1.34
  -5  -4  -3    0.15    0.07
  -5   4  -3    0.33    0.19
  -5   4  -3    0.29    0.12
   5   4   3    0.43    0.13
  -6  -4  -3    0.08    0.08
  -6   4  -3   -0.03    0.16
   6   4   3    0.26    0.13
  -6   4  -3    0.06    0.15
  -6   4  -3    0.21    0.12
  -7  -4  -3   27.10    0.96
   7   4   3   27.90    0.96
  -7   4  -3   26.25    1.04
  -7   4  -3   26.80    0.96
  -7   4  -3   27.08    0.95
  -8  -4  -3   54.82    1.98
  -8   4  -3   60.31    1.98
   8   4   3   62.20    1.98
  -8   4  -3   60.33    1.97
  -9  -4  -3    1.37    0.16
  -9   4  -3    1.67    0.20
   9   4   3    1.65    0.23
  -9   4  -3    1.67    0.20
 -10  -4  -3    9.39    0.40
 -10   4  -3    9.92    0.40
 -10   4  -3   10.02    0.40
 -11  -4  -3    1.34    0.16
 -11   4  -3    1.44    0.15
 -11   4  -3    1.35    0.15
 -12   4  -3    0.22    0.09
 -12   4  -3    0.13    0.08
 -11  -5   3    0.90    0.17
  11   5  -3    0.91    0.14
 -10  -5   3   40.78    1.33
  10   5  -3   36.91    1.29
 -10   5   3   37.26    1.28
  -9  -5   3    0.99    0.15
  -9   5   3    1.11    0.20
  -9   5   3    0.98    0.17
  -8  -5   3    2.53    0.20
   8   5  -3    2.42    0.21
  -8   5   3    2.90    0.28
  -8   5   3    2.08    0.24
  -8   5   3    2.69    0.23
  -7  -5   3    0.34    0.11
   7   5  -3    0.47    0.11
  -7   5   3    0.43    0.14
  -7   5   3    0.62    0.14
  -7   5   3    0.67    0.14
  -6  -5   3   11.73    0.46
  -6   5   3   11.10    0.48
  -6   5   3   11.29    0.45
   6   5  -3   10.54    0.47
   6   5  -3   10.33    0.46
  -6   5   3   10.43    0.47
  -5  -5   3    1.48    0.16
   5   5  -3    1.33    0.18
  -5   5   3    1.51    0.20
   5   5  -3    1.42    0.23
  -5   5   3    1.43    0.23
  -4  -5   3    0.66    0.13
  -4   5   3    0.78    0.15
   4   5  -3    0.69    0.13
   4   5  -3    0.48    0.13
  -4   5   3    0.63    0.12
  -3  -5   3   10.62    0.44
   3   5  -3   10.91    0.46
  -3   5   3   11.60    0.47
   3   5  -3   10.32    0.44
  -3   5   3   10.76    0.44
   2   5  -3    2.52    0.23
   2   5  -3    2.26    0.21
  -2   5   3    2.53    0.23
  -2   5   3    2.47    0.21
  -1   5   3    0.34    0.11
   1   5  -3    0.53    0.11
  -1   5   3    0.72    0.17
   1   5  -3    0.39    0.14
   0  -5  -3    0.16    0.09
   0   5   3    0.12    0.11
   0   5  -3    0.20    0.10
   0   5   3    0.08    0.11
   0   5  -3    0.48    0.14
  -1  -5  -3    2.90    0.19
  -1   5  -3    2.91    0.22
  -1   5  -3    2.32    0.26
   1   5   3    2.57    0.22
  -1   5  -3    2.78    0.20
   1   5   3    2.74    0.23
  -2  -5  -3    1.87    0.16
  -2   5  -3    1.47    0.17
   2   5   3    1.71    0.21
   2   5   3    1.27    0.21
  -2   5  -3    1.54    0.19
  -2   5  -3    1.52    0.27
  -3  -5  -3   21.28    0.77
   3   5   3   21.34    0.78
  -3   5  -3   21.86    0.81
   3   5   3   22.12    0.79
  -3   5  -3   21.63    0.78
  -3   5  -3   22.21    0.79
  -4  -5  -3   95.38    2.98
   4   5   3   89.30    2.99
  -4   5  -3   91.68    2.98
   4   5   3   88.55    2.97
  -4   5  -3   88.97    2.99
  -5  -5  -3   12.00    0.48
   5   5   3   12.23    0.49
  -5   5  -3   11.68    0.54
  -5   5  -3   12.03    0.51
  -5   5  -3   12.42    0.51
  -6   5  -3    3.70    0.35
   6   5   3    3.75    0.25
  -7  -5  -3   28.83    1.07
   7   5   3   32.64    1.07
  -8  -5  -3   26.02    0.96
   8   5   3   28.72    0.96
  -9  -5  -3    1.48    0.16
   9   5   3    1.15    0.20
 -10  -5  -3   10.82    0.43
 -10  -6   3    2.72    0.20
  -9  -6   3    6.89    0.31
   9   6  -3    6.92    0.29
  -8  -6   3    6.52    0.30
   8   6  -3    6.55    0.30
  -8   6   3    6.42    0.31
  -8   6   3    6.36    0.32
  -7  -6   3   11.27    0.47
  -7   6   3   11.63    0.48
  -7   6   3   11.60    0.47
   7   6  -3   12.47    0.47
  -6  -6   3   22.46    0.83
  -6   6   3   22.46    0.83
   6   6  -3   22.42    0.82
   6   6  -3   22.77    0.81
  -6   6   3   23.57    0.82
  -5  -6   3    0.04    0.09
  -5   6   3    0.01    0.09
   5   6  -3    0.15    0.11
  -5   6   3   -0.02    0.11
   5   6  -3   -0.12    0.11
  -4  -6   3    0.59    0.14
   4   6  -3    0.69    0.17
  -4   6   3    0.41    0.12
   4   6  -3    0.37    0.12
  -4   6   3    0.57    0.12
  -3  -6   3    0.15    0.09
   3   6  -3    0.13    0.11
   3   6  -3    0.16    0.10
  -3   6   3    0.26    0.11
  -3   6   3    0.10    0.11
  -2  -6   3    0.13    0.09
  -2   6   3    0.15    0.09
   2   6  -3    0.07    0.10
  -2   6   3    0.14    0.12
   2   6  -3    0.29    0.12
   1   6  -3    8.99    0.41
  -1   6   3    9.14    0.39
   1   6  -3    9.09    0.39
  -1   6   3    8.31    0.40
   0  -6  -3   76.67    2.48
   0   6  -3   76.19    2.49
   0   6   3   73.49    2.49
   0   6  -3   75.03    2.48
   0   6   3   74.11    2.47
  -1  -6  -3    1.75    0.19
  -1   6  -3    1.40    0.22
  -1   6  -3    1.68    0.19
   1   6   3    1.43    0.20
   1   6   3    1.33    0.19
  -2  -6  -3    0.06    0.10
  -2   6  -3    0.11    0.14
   2   6   3    0.08    0.10
   2   6   3    0.12    0.09
  -2   6  -3    0.09    0.09
   3   6   3    1.17    0.19
  -3   6  -3    1.19    0.24
  -3   6  -3    1.24    0.19
   3   6   3    1.24    0.20
  -4  -6  -3   19.59    0.73
   4   6   3   19.03    0.72
  -4   6  -3   20.45    0.75
   4   6   3   20.34    0.74
  -4   6  -3   19.85    0.73
  -5  -6  -3    3.57    0.22
  -5   6  -3    3.53    0.26
  -5   6  -3    3.47    0.30
   5   6   3    3.70    0.24
  -6  -6  -3    7.26    0.34
  -6   6  -3    6.62    0.48
   6   6   3    8.42    0.35
  -7  -6  -3    0.31    0.09
   7   6   3    0.33    0.10
  -8  -6  -3    1.45    0.18
   8   6   3    1.39    0.17
  -9  -6  -3    1.74    0.16
   9   6   3    1.28    0.19
   9   7  -3    1.59    0.13
  -8  -7   3   -0.09    0.10
   8   7  -3    0.04    0.07
  -7  -7   3    0.11    0.08
   7   7  -3    0.17    0.07
  -7   7   3    0.08    0.09
  -7   7   3    0.09    0.09
  -6  -7   3    3.74    0.22
   6   7  -3    3.54    0.21
   6   7  -3    4.06    0.27
  -6   7   3    3.61    0.21
  -6   7   3    3.44    0.22
  -5  -7   3   13.09    0.51
  -5   7   3   12.87    0.51
   5   7  -3   13.23    0.50
  -5   7   3   12.73    0.49
   5   7  -3   12.72    0.49
  -4  -7   3    0.86    0.16
  -4   7   3    0.89    0.19
   4   7  -3    0.99    0.15
  -3  -7   3    0.29    0.11
   3   7  -3    0.13    0.09
  -3   7   3    0.05    0.10
   3   7  -3    0.16    0.09
  -3   7   3    0.08    0.09
  -2  -7   3    3.24    0.22
   2   7  -3    3.36    0.22
  -2   7   3    3.53    0.24
   2   7  -3    3.45    0.24
  -2   7   3    3.27    0.22
  -1  -7   3    7.25    0.35
  -1   7   3    7.19    0.35
   1   7  -3    7.22    0.35
  -1   7   3    7.24    0.33
   1   7  -3    7.74    0.34
   0  -7   3    0.87    0.17
   0   7  -3    0.71    0.15
   0   7   3    0.90    0.17
   0   7   3    0.59    0.11
   0   7  -3    0.62    0.12
   1  -7   3   20.96    0.79
  -1  -7  -3   21.01    0.79
   1   7   3   21.71    0.79
  -1   7  -3   22.00    0.80
  -1   7  -3   21.74    0.78
   1   7   3   22.74    0.78
  -2  -7  -3    0.74    0.19
  -2   7  -3    0.78    0.17
   2   7   3    0.51    0.11
   2   7   3    0.75    0.17
  -2   7  -3    0.48    0.13
  -3  -7  -3    0.17    0.11
  -3   7  -3    0.17    0.12
   3   7   3    0.03    0.14
   3   7   3    0.37    0.10
  -3   7  -3    0.34    0.13
  -4  -7  -3    7.64    0.35
  -4   7  -3    7.79    0.34
   4   7   3    8.04    0.35
   4   7   3    7.82    0.34
  -4   7  -3    7.88    0.36
  -5  -7  -3    0.25    0.10
  -5   7  -3    0.07    0.10
   5   7   3    0.10    0.08
  -6  -7  -3    0.77    0.16
  -6   7  -3    0.75    0.13
   6   7   3    0.72    0.13
  -7  -7  -3   20.74    0.73
   7   7   3   20.51    0.71
   8   7   3    1.41    0.18
  -6   8   3    1.06    0.13
   6   8  -3    0.97    0.11
  -5   8   3    9.80    0.38
   5   8  -3   10.60    0.38
  -4  -8   3   -0.08    0.11
   4   8  -3    0.35    0.08
  -4   8   3    0.27    0.06
  -4   8   3    0.28    0.08
   4   8  -3    0.26    0.07
  -3  -8   3    3.02    0.23
   3   8  -3    2.88    0.18
  -3   8   3    3.03    0.19
  -3   8   3    2.92    0.16
   3   8  -3    2.96    0.17
  -2  -8   3   10.25    0.42
  -2   8   3    9.69    0.39
   2   8  -3    9.96    0.38
   2   8  -3    9.59    0.39
  -2   8   3    9.84    0.38
  -1  -8   3    0.21    0.15
   1   8  -3    0.30    0.09
  -1   8   3    0.23    0.08
  -1   8   3    0.27    0.07
   1   8  -3    0.30    0.07
   0   8   3    5.26    0.25
   0   8  -3    5.24    0.25
   0   8   3    4.97    0.24
   0   8  -3    5.25    0.24
   1   8   3    5.70    0.26
  -1   8  -3    6.07    0.26
  -1   8  -3    5.93    0.28
   1   8   3    5.93    0.27
   2   8   3    0.05    0.07
  -2   8  -3    0.13    0.10
  -2   8  -3    0.13    0.07
   2   8   3    0.15    0.07
  -3   8  -3    0.02    0.11
  -3   8  -3    0.13    0.06
   3   8   3   -0.03    0.07
   4   8   3    2.07    0.14
  -4   8  -3    1.85    0.21
  -5   8  -3    0.17    0.10
   5   8   3    0.00    0.07
 -14   0   4   24.92    0.86
 -13   0   4    0.05    0.07
 -13   0   4    0.15    0.08
 -12   0   4   13.61    0.52
 -12   0   4   13.34    0.53
 -11   0   4    0.08    0.10
 -11   0   4    0.14    0.10
 -10   0   4   13.95    0.56
 -10   0   4   14.10    0.55
  -9   0   4   -0.05    0.09
  -9   0   4    0.01    0.11
  -8   0   4  100.27    3.20
  -8   0   4   99.30    3.22
  -8   0   4   97.48    3.21
  -8   0   4   96.52    3.22
  -7   0   4   -0.08    0.11
   4   0  -4  220.55    7.41
  -4   0   4  242.74    7.41
   3   0  -4    0.01    0.01
  -3   0   4    0.01    0.01
   2   0  -4  107.18    3.42
  -2   0   4  104.53    3.39
  -1   0   4    0.02    0.01
   1   0  -4    0.00    0.01
   0   0   4    2.31    0.09
   0   0  -4    2.38    0.10
  -1   0  -4    0.02    0.01
   1   0   4    0.03    0.01
   2   0   4   52.77    1.69
  -2   0  -4   51.75    1.69
   3   0   4    0.01    0.02
  -3   0  -4    0.00    0.02
  -4   0  -4    1.27    0.12
  -4   0  -4    1.55    0.08
   4   0   4    1.60    0.08
  -5   0  -4    0.00    0.03
   5   0   4    0.01    0.03
  -5   0  -4    0.04    0.06
  -6   0  -4   80.92    2.64
  -7   0  -4    0.17    0.10
  -7   0  -4    0.07    0.08
  -7   0  -4    0.10    0.09
  -8   0  -4   17.89    0.66
  -8   0  -4   16.71    0.64
  -8   0  -4   18.02    0.65
  -9   0  -4    0.01    0.10
  -9   0  -4    0.04    0.10
  -9   0  -4    0.01    0.10
 -10   0  -4   13.70    0.53
 -10   0  -4   13.73    0.53
 -10   0  -4   12.38    0.53
 -11   0  -4    0.19    0.11
 -11   0  -4    0.09    0.08
 -11   0  -4    0.00    0.08
 -12   0  -4   26.18    0.89
 -12   0  -4   25.04    0.90
 -12   0  -4   25.07    0.88
 -13   0  -4   -0.02    0.05
 -13   0  -4    0.05    0.07
 -14  -1   4    6.82    0.31
 -14  -1   4    7.00    0.31
 -14   1   4    7.27    0.28
 -14   1   4    7.56    0.29
 -13  -1   4    1.15    0.16
 -13  -1   4    1.23    0.16
 -13   1   4    1.26    0.14
 -13   1   4    1.10    0.14
  13   1  -4    0.90    0.20
 -12  -1   4   23.12    0.91
 -12  -1   4   22.28    0.88
 -12   1   4   23.56    0.83
  12   1  -4   22.33    0.81
 -12   1   4   23.19    0.82
 -11  -1   4   10.65    0.45
 -11  -1   4   10.72    0.45
 -11   1   4   10.18    0.44
 -11   1   4   10.35    0.45
  11   1  -4   11.19    0.46
 -10  -1   4    0.23    0.11
 -10  -1   4    0.08    0.11
 -10  -1   4    0.07    0.14
 -10   1   4    0.02    0.09
 -10   1   4    0.00    0.08
  -9  -1   4   -0.04    0.13
  -9  -1   4    0.15    0.12
  -9  -1   4    0.05    0.12
  -9   1   4    0.05    0.14
  -9   1   4    0.22    0.10
  -9   1   4    0.16    0.10
  -8  -1   4    0.82    0.15
  -8  -1   4    0.49    0.14
  -8  -1   4    1.06    0.17
  -8   1   4    0.79    0.18
  -8   1   4    0.84    0.17
  -8   1   4    0.93    0.18
  -7  -1   4   10.42    0.41
  -7   1   4   10.71    0.43
  -7   1   4   10.46    0.44
  -6  -1   4   59.11    1.94
   5  -1  -4    5.26    0.19
   4  -1  -4   27.03    0.91
  -4  -1   4   28.60    0.90
  -4   1   4   27.56    0.91
  -3  -1   4   47.30    1.46
   3  -1  -4   43.67    1.46
   3   1  -4   43.15    1.46
  -3   1   4   46.23    1.46
  -2  -1   4    9.06    0.30
   2  -1  -4    8.72    0.31
  -2   1   4    9.22    0.31
   2   1  -4    8.41    0.30
  -1  -1   4   22.63    0.74
   1  -1  -4   23.40    0.75
  -1   1   4   22.80    0.75
   1   1  -4   21.79    0.74
   0  -1   4  250.29    8.39
   0   1   4  268.33    8.43
   0   1  -4  263.32    8.42
  -1  -1  -4    4.31    0.15
   1  -1   4    3.95    0.15
   1   1   4    3.83    0.15
  -1   1  -4    3.97    0.15
  -2  -1  -4   32.08    1.08
   2  -1   4   32.72    1.08
   2   1   4   34.91    1.08
  -2   1  -4   33.04    1.09
   3  -1   4   47.12    1.52
  -3  -1  -4   47.14    1.52
  -3   1  -4   45.63    1.52
   3   1   4   47.26    1.52
   4  -1   4    0.20    0.07
  -4  -1  -4    0.18    0.06
  -4  -1  -4    0.40    0.06
  -4   1  -4    0.33    0.08
   4   1   4    0.30    0.06
   5  -1   4   19.10    0.65
  -5  -1  -4   19.15    0.66
  -5  -1  -4   18.96    0.63
   5   1   4   19.95    0.64
  -5   1  -4   18.21    0.66
  -6  -1  -4    5.44    0.25
  -6   1  -4    5.84    0.26
  -7  -1  -4    1.87    0.23
  -7  -1  -4    1.92    0.15
  -7  -1  -4    1.98    0.21
  -7   1  -4    1.68    0.19
  -7   1  -4    1.92    0.16
  -7   1  -4    1.69    0.19
  -8  -1  -4   18.52    0.67
  -8  -1  -4   17.25    0.68
  -8  -1  -4   19.00    0.68
  -8   1  -4   18.11    0.67
  -8   1  -4   17.75    0.68
  -8   1  -4   19.20    0.68
  -9  -1  -4   16.52    0.61
  -9  -1  -4   15.36    0.60
  -9  -1  -4   15.64    0.61
  -9   1  -4   15.46    0.60
  -9   1  -4   16.04    0.61
  -9   1  -4   15.54    0.60
 -10  -1  -4   12.99    0.51
 -10  -1  -4   11.64    0.50
 -10  -1  -4   12.75    0.50
 -10   1  -4   12.74    0.50
 -10   1  -4   11.53    0.50
 -10   1  -4   12.65    0.50
 -11  -1  -4   11.58    0.45
 -11  -1  -4   11.51    0.45
 -11  -1  -4   10.10    0.45
 -11   1  -4   11.34    0.45
 -11   1  -4   10.13    0.46
 -11   1  -4   11.33    0.44
 -12  -1  -4    5.92    0.31
 -12  -1  -4    6.05    0.28
 -12  -1  -4    6.30    0.29
 -12   1  -4    6.04    0.27
 -12   1  -4    5.92    0.28
 -13  -1  -4    0.28    0.10
 -13   1  -4    0.28    0.06
 -14   2   4    3.90    0.18
 -13   2   4    4.58    0.22
 -13   2   4    4.32    0.22
  13   2  -4    4.01    0.25
 -12  -2   4    2.28    0.25
 -12  -2   4    2.30    0.26
  12   2  -4    2.62    0.20
 -12   2   4    2.48    0.19
 -12   2   4    2.36    0.18
 -11  -2   4    1.95    0.25
 -11  -2   4    2.49    0.25
 -11  -2   4    2.29    0.25
 -11   2   4    2.43    0.20
  11   2  -4    2.63    0.22
 -11   2   4    2.62    0.21
 -10  -2   4    6.05    0.37
 -10  -2   4    6.19    0.35
  10   2  -4    6.83    0.34
 -10   2   4    7.07    0.33
 -10   2   4    6.95    0.34
 -10   2   4    7.20    0.36
  -9  -2   4    3.86    0.32
  -9  -2   4    3.99    0.33
  -9  -2   4    5.07    0.27
  -9   2   4    4.65    0.27
  -9   2   4    4.37    0.26
   9   2  -4    4.48    0.28
  -9   2   4    4.36    0.30
  -8  -2   4  104.22    3.66
  -8  -2   4  108.58    3.67
  -8  -2   4  113.35    3.67
  -8   2   4  111.51    3.68
   8   2  -4  117.38    3.68
  -8   2   4  118.44    3.68
  -8   2   4  114.91    3.67
  -7  -2   4    0.60    0.13
  -7   2   4    0.45    0.15
  -7   2   4    0.56    0.12
   7   2  -4    0.84    0.21
  -7   2   4    0.73    0.20
  -6  -2   4   79.44    2.57
   6  -2  -4   77.82    2.55
  -5  -2   4    0.86    0.12
   5  -2  -4    0.84    0.10
  -5  -2   4    0.94    0.08
  -5  -2   4    1.08    0.11
  -4  -2   4    8.45    0.34
   4  -2  -4    8.84    0.33
  -4  -2   4    9.14    0.32
  -4  -2   4    8.98    0.32
   3  -2  -4   23.76    0.82
  -3   2   4   25.05    0.82
  -2  -2   4  295.96    9.42
   2  -2  -4  290.02    9.42
  -2   2   4  291.05    9.40
  -1  -2   4   70.15    2.21
   1  -2  -4   66.17    2.20
  -1   2   4   67.70    2.20
   0  -2   4   93.07    2.94
   0  -2  -4   89.42    2.94
   0   2   4   91.03    2.94
   1  -2   4  150.75    4.72
  -1  -2  -4  139.83    4.71
   1   2   4  149.78    4.72
  -2  -2  -4    0.01    0.03
   2  -2   4    0.04    0.03
   2   2   4    0.04    0.03
  -3  -2  -4    1.63    0.12
   3  -2   4    1.70    0.12
  -3  -2  -4    1.71    0.10
   3   2   4    1.74    0.12
  -3   2  -4    1.53    0.14
  -4  -2  -4    3.39    0.16
  -4  -2  -4    3.38    0.17
   4  -2   4    3.43    0.18
   4   2   4    3.52    0.18
  -4   2  -4    3.42    0.19
  -5  -2  -4    1.39    0.14
   5  -2   4    1.30    0.18
  -5  -2  -4    1.25    0.11
   5  -2   4    1.21    0.15
  -5   2  -4    1.15    0.14
  -6  -2  -4   32.86    1.15
  -6  -2  -4   33.34    1.12
  -6   2  -4   34.79    1.15
  -6   2  -4   33.25    1.13
  -6   2  -4   30.32    1.12
  -7  -2  -4   26.66    0.93
  -7  -2  -4   26.11    0.94
  -7  -2  -4   25.07    0.96
  -7   2  -4   27.22    0.93
  -7   2  -4   27.94    0.94
  -7   2  -4   26.59    0.93
  -8  -2  -4   75.54    2.67
  -8  -2  -4   83.20    2.67
  -8  -2  -4   81.77    2.68
  -8   2  -4   81.24    2.68
  -8   2  -4   83.67    2.67
  -9  -2  -4    6.58    0.38
  -9  -2  -4    7.32    0.33
  -9  -2  -4    7.77    0.35
  -9   2  -4    6.88    0.33
  -9   2  -4    6.88    0.34
  -9   2  -4    7.45    0.36
 -10  -2  -4    1.46    0.24
 -10  -2  -4    1.58    0.18
 -10  -2  -4    1.84    0.20
 -10   2  -4    1.54    0.24
 -10   2  -4    1.58    0.18
 -10   2  -4    2.10    0.19
 -11  -2  -4    6.60    0.38
 -11  -2  -4    7.01    0.32
 -11  -2  -4    7.05    0.35
 -11   2  -4    6.27    0.37
 -12  -2  -4    8.38    0.37
 -12   2  -4    8.30    0.34
 -12   2  -4    8.43    0.35
 -13   2  -4    1.02    0.10
 -13   2  -4    1.08    0.10
  13   3  -4    0.32    0.13
 -13   3   4    0.46    0.10
 -13   3   4    0.32    0.07
 -12  -3   4   11.38    0.49
 -12   3   4   11.55    0.44
 -12   3   4   11.40    0.45
  12   3  -4   12.10    0.45
 -11  -3   4    1.06    0.19
 -11   3   4    1.07    0.15
 -11   3   4    1.34    0.22
 -11   3   4    1.11    0.17
 -10  -3   4    0.16    0.10
 -10   3   4    0.04    0.09
  10   3  -4    0.02    0.10
 -10   3   4    0.06    0.13
 -10   3   4    0.12    0.09
  -9  -3   4  119.96    3.87
   9   3  -4  119.58    3.87
  -9   3   4  118.72    3.86
  -9   3   4  116.38    3.87
  -9   3   4  117.84    3.87
  -8  -3   4   28.95    1.00
  -8   3   4   29.09    1.00
  -8   3   4   27.05    1.03
   8   3  -4   28.64    1.01
  -7  -3   4   45.01    1.49
  -7   3   4   41.96    1.50
  -7   3   4   45.01    1.51
  -7   3   4   43.88    1.50
  -7   3   4   43.49    1.49
   7   3  -4   45.23    1.50
  -6  -3   4    7.40    0.31
  -6   3   4    7.07    0.34
  -6   3   4    6.93    0.38
  -6   3   4    7.14    0.38
  -6   3   4    7.55    0.38
   6   3  -4    7.23    0.34
  -5  -3   4    3.41    0.21
  -5  -3   4    3.26    0.27
   5  -3  -4    3.41    0.29
   5  -3  -4    3.43    0.23
  -4  -3   4   78.56    2.71
   4  -3  -4   86.79    2.72
  -4  -3   4   83.73    2.71
   3  -3  -4   39.53    1.30
  -3  -3   4   38.26    1.30
  -3  -3   4   37.96    1.29
   2  -3  -4   33.85    1.13
  -2  -3   4   32.76    1.13
  -2  -3   4   34.64    1.13
   2   3  -4   32.99    1.13
  -1  -3   4   93.48    2.95
  -1  -3   4   92.10    2.95
   1  -3  -4   93.21    2.94
   1   3  -4   82.98    2.93
   0  -3   4    3.35    0.19
   0   3   4    3.53    0.19
   0   3  -4    3.44    0.19
  -1  -3  -4    0.55    0.09
   1  -3   4    0.25    0.06
  -1  -3  -4    0.31    0.08
  -1   3  -4    0.52    0.11
   1   3   4    0.38    0.10
   2  -3   4    0.15    0.06
  -2  -3  -4    0.14    0.05
  -2  -3  -4    0.19    0.07
   2  -3   4    0.25    0.08
  -2   3  -4    0.19    0.07
  -3  -3  -4   17.12    0.60
  -3  -3  -4   16.80    0.61
   3  -3   4   16.24    0.63
   3  -3   4   17.84    0.63
  -3   3  -4   17.05    0.61
   4  -3   4    0.44    0.11
  -4  -3  -4    0.30    0.08
  -4  -3  -4    0.31    0.08
  -4   3  -4    0.41    0.09
   5  -3   4   25.13    0.96
  -5  -3  -4   26.89    0.91
  -5   3  -4   27.51    0.93
  -6  -3  -4    0.13    0.15
  -6  -3  -4    0.04    0.06
  -6   3  -4    0.15    0.13
  -6   3  -4    0.18    0.10
  -6   3  -4    0.48    0.14
   6   3   4    0.12    0.16
  -7  -3  -4    6.56    0.30
  -7  -3  -4    5.96    0.34
   7   3   4    5.86    0.36
  -7   3  -4    6.39    0.32
  -7   3  -4    6.46    0.31
  -7   3  -4    6.08    0.32
  -8  -3  -4    9.13    0.38
  -8   3  -4    8.61    0.38
  -8   3  -4    8.29    0.39
   8   3   4    7.97    0.45
  -8   3  -4    8.47    0.39
  -9  -3  -4   19.19    0.75
  -9   3  -4   21.12    0.74
  -9   3  -4   20.14    0.76
  -9   3  -4   21.16    0.75
 -10  -3  -4   52.98    1.95
 -10   3  -4   62.17    1.95
 -10   3  -4   60.10    1.95
 -11  -3  -4    0.15    0.09
 -11   3  -4    0.09    0.07
 -11   3  -4    0.04    0.07
 -12  -3  -4    1.13    0.17
 -12   3  -4    0.98    0.12
 -12   3  -4    1.00    0.12
 -13   3  -4    9.46    0.35
 -13   3  -4    9.56    0.35
 -13   4   4    0.71    0.10
 -12   4   4    0.30    0.07
  12   4  -4    0.39    0.09
 -12   4   4    0.27    0.08
 -11   4   4   15.16    0.55
 -11   4   4   13.58    0.55
  11   4  -4   15.03    0.55
 -11   4   4   14.86    0.54
 -10  -4   4    0.04    0.10
 -10   4   4    0.02    0.08
 -10   4   4    0.00    0.12
  10   4  -4    0.02    0.09
  -9  -4   4    0.09    0.09
  -9   4   4    0.16    0.12
  -9   4   4    0.04    0.10
   9   4  -4   -0.16    0.09
  -9   4   4    0.06    0.12
  -8  -4   4    4.75    0.27
  -8   4   4    4.15    0.26
   8   4  -4    4.44    0.28
  -8   4   4    4.76    0.30
  -8   4   4    4.19    0.28
  -7  -4   4    9.38    0.39
  -7   4   4    8.93    0.39
   7   4  -4    8.66    0.39
  -7   4   4    8.57    0.41
  -7   4   4    8.28    0.42
  -6  -4   4    7.50    0.32
   6   4  -4    7.32    0.35
  -6   4   4    7.10    0.35
  -6   4   4    7.33    0.37
  -6   4   4    6.52    0.34
   6   4  -4    6.64    0.38
  -5  -4   4   53.89    1.76
  -5   4   4   51.84    1.76
   5   4  -4   49.82    1.76
  -5   4   4   55.09    1.78
  -5   4   4   52.55    1.76
   5   4  -4   53.40    1.77
  -4  -4   4    7.94    0.47
  -4  -4   4    9.31    0.37
  -4   4   4    8.85    0.39
   4   4  -4    9.28    0.40
   4   4  -4    9.31    0.40
  -4   4   4    9.55    0.42
  -4   4   4    8.14    0.42
  -3  -4   4   18.73    0.72
   3   4  -4   18.38    0.69
  -3   4   4   18.51    0.70
  -3   4   4   18.70    0.68
   3   4  -4   19.21    0.70
  -2  -4   4   25.73    0.93
   2  -4  -4   25.57    0.93
   1  -4  -4    6.75    0.34
  -1  -4   4    7.12    0.35
   1   4  -4    6.90    0.30
   0  -4  -4   89.64    2.90
   0  -4   4   93.86    2.96
   0  -4  -4   82.69    2.94
   0   4  -4   91.72    2.92
  -1  -4  -4  166.70    5.54
   1  -4   4  172.94    5.55
  -1  -4  -4  172.77    5.50
  -1   4  -4  171.32    5.51
  -2  -4  -4    0.38    0.12
  -2  -4  -4    0.55    0.12
  -2   4  -4    0.49    0.10
  -3  -4  -4   56.81    1.83
  -3   4  -4   58.26    1.84
   3   4   4   54.04    1.84
  -3   4  -4   52.50    1.84
  -4  -4  -4    0.96    0.13
  -4   4  -4    0.87    0.16
   4   4   4    0.87    0.15
  -4   4  -4    1.07    0.18
  -5  -4  -4    8.54    0.35
   5   4   4    7.36    0.38
  -5   4  -4    8.08    0.36
  -6  -4  -4    0.70    0.14
  -6   4  -4    0.87    0.16
   6   4   4    0.89    0.22
  -6   4  -4    1.04    0.19
  -7  -4  -4   -0.06    0.07
  -7   4  -4    0.01    0.14
   7   4   4    0.12    0.13
  -7   4  -4   -0.11    0.13
  -7   4  -4   -0.17    0.12
  -8  -4  -4    7.97    0.37
  -8   4  -4    8.41    0.39
   8   4   4    9.21    0.41
  -8   4  -4    8.74    0.39
  -9  -4  -4    3.67    0.22
  -9   4  -4    3.61    0.24
  -9   4  -4    3.34    0.24
 -10  -4  -4    5.76    0.28
 -10   4  -4    5.86    0.28
 -10   4  -4    5.46    0.28
 -11  -4  -4    1.35    0.16
 -11   4  -4    1.58    0.15
 -11   4  -4    1.59    0.16
 -12   4  -4    0.56    0.13
 -11  -5   4    0.49    0.13
  11   5  -4    0.84    0.12
 -11   5   4    0.53    0.10
 -10  -5   4    0.59    0.16
  10   5  -4    0.72    0.14
 -10   5   4    0.63    0.14
 -10   5   4    0.47    0.12
  -9  -5   4   17.76    0.67
  -9   5   4   17.68    0.66
  -9   5   4   18.68    0.66
  -8  -5   4   13.74    0.57
  -8   5   4   14.79    0.57
   8   5  -4   15.74    0.58
  -8   5   4   14.57    0.58
  -8   5   4   15.51    0.59
  -7  -5   4    0.00    0.07
  -7   5   4    0.13    0.12
   7   5  -4    0.19    0.11
  -7   5   4    0.16    0.12
  -7   5   4    0.31    0.12
  -6  -5   4    0.22    0.08
  -6   5   4    0.28    0.13
  -6   5   4    0.38    0.13
   6   5  -4    0.20    0.12
  -6   5   4    0.09    0.11
   6   5  -4   -0.03    0.13
  -5  -5   4    7.42    0.33
  -5   5   4    6.81    0.33
  -5   5   4    6.49    0.35
   5   5  -4    6.71    0.34
   5   5  -4    6.76    0.35
  -5   5   4    6.75    0.45
  -4  -5   4    1.08    0.14
  -4   5   4    1.37    0.35
  -4   5   4    1.03    0.21
   4   5  -4    0.83    0.19
  -3   5   4    2.18    0.22
   3   5  -4    2.26    0.22
  -3   5   4    2.22    0.20
   3   5  -4    1.77    0.20
  -2   5   4   11.56    0.48
   2   5  -4   11.46    0.47
  -2   5   4   12.03    0.47
   2   5  -4   11.79    0.48
   1  -5  -4    1.13    0.20
  -1   5   4    1.41    0.18
   1   5  -4    1.57    0.23
   1   5  -4    1.35    0.18
  -1   5   4    1.49    0.20
   0  -5  -4    0.49    0.12
   0   5  -4    0.78    0.16
   0   5   4    0.24    0.12
   0   5  -4    0.58    0.12
   0   5   4    0.42    0.12
   0   5  -4    0.77    0.15
  -1  -5  -4    3.88    0.22
  -1   5  -4    4.23    0.23
  -1   5  -4    3.84    0.30
  -1   5  -4    3.67    0.25
   1   5   4    3.65    0.26
   1   5   4    4.16    0.25
  -2  -5  -4   25.58    0.89
   2   5   4   25.90    0.91
  -2   5  -4   25.84    0.90
   2   5   4   24.97    0.90
  -2   5  -4   25.29    0.93
  -2   5  -4   25.24    0.90
  -3  -5  -4    5.37    0.27
  -3   5  -4    5.64    0.31
   3   5   4    4.98    0.32
   3   5   4    5.32    0.30
  -3   5  -4    5.40    0.36
  -3   5  -4    6.12    0.29
  -4  -5  -4    0.19    0.09
  -4   5  -4    0.47    0.18
   4   5   4    0.82    0.19
  -4   5  -4    0.28    0.13
  -4   5  -4    0.23    0.11
  -5  -5  -4   48.16    1.59
  -5   5  -4   47.76    1.59
   5   5   4   44.98    1.58
  -5   5  -4   46.64    1.59
  -6   5  -4    0.62    0.16
   6   5   4    0.66    0.13
  -7  -5  -4    0.02    0.08
   7   5   4    0.20    0.13
  -8  -5  -4    3.12    0.21
  -9  -5  -4    6.60    0.31
   9   5   4    7.06    0.35
 -10  -5  -4    0.12    0.08
 -10  -6   4    0.01    0.11
  10   6  -4    0.04    0.07
  -9  -6   4    0.16    0.09
   9   6  -4    0.12    0.07
  -9   6   4    0.10    0.10
  -8  -6   4   15.06    0.57
   8   6  -4   15.16    0.56
  -8   6   4   14.66    0.56
  -8   6   4   14.64    0.55
  -7  -6   4    0.54    0.14
   7   6  -4    0.67    0.15
  -7   6   4    0.72    0.14
  -7   6   4    0.42    0.11
  -6  -6   4    3.04    0.21
  -6   6   4    3.43    0.22
  -6   6   4    3.34    0.25
   6   6  -4    2.88    0.24
   6   6  -4    3.21    0.23
  -5  -6   4   13.71    0.57
  -5   6   4   14.88    0.59
  -5   6   4   15.45    0.57
   5   6  -4   15.04    0.58
   5   6  -4   14.62    0.57
  -4  -6   4    0.94    0.16
  -4   6   4    0.77    0.17
   4   6  -4    0.94    0.18
  -4   6   4    1.28    0.19
   4   6  -4    1.02    0.18
  -3   6   4    4.99    0.27
  -3   6   4    4.91    0.30
   3   6  -4    5.04    0.28
   3   6  -4    5.36    0.30
   2   6  -4    0.81    0.17
  -2   6   4    0.52    0.11
  -2   6   4    0.97    0.19
   2   6  -4    1.01    0.20
  -1   6   4    0.01    0.09
  -1   6   4    0.04    0.11
   1   6  -4    0.02    0.10
   1   6  -4    0.05    0.12
   0  -6  -4    0.30    0.13
   0   6   4    0.12    0.10
   0   6  -4    0.08    0.10
   0   6   4    0.23    0.11
   0   6  -4    0.32    0.13
  -1  -6  -4    1.99    0.21
   1   6   4    1.32    0.19
   1   6   4    1.60    0.20
  -1   6  -4    1.32    0.18
  -1   6  -4    1.34    0.24
  -2  -6  -4    5.96    0.29
  -2   6  -4    5.09    0.29
  -2   6  -4    4.58    0.33
   2   6   4    5.14    0.29
   2   6   4    5.53    0.29
  -3  -6  -4   14.23    0.64
  -3   6  -4   14.50    0.58
  -3   6  -4   14.65    0.56
   3   6   4   14.79    0.57
  -3   6  -4   13.71    0.58
   3   6   4   14.01    0.56
  -4  -6  -4    0.66    0.15
   4   6   4    0.60    0.12
  -4   6  -4    0.76    0.18
  -4   6  -4    0.81    0.14
   4   6   4    0.57    0.15
  -4   6  -4    0.64    0.16
  -5  -6  -4    5.77    0.29
  -5   6  -4    5.67    0.32
   5   6   4    5.62    0.30
  -6  -6  -4    1.69    0.17
   6   6   4    1.74    0.19
  -6   6  -4    1.98    0.25
  -7  -6  -4    3.80    0.23
   7   6   4    3.92    0.23
  -8  -6  -4    4.09    0.22
   8   6   4    3.83    0.23
  -9  -6  -4   14.93    0.55
   9   7  -4    2.86    0.15
  -8  -7   4    0.63    0.15
  -8   7   4    0.66    0.17
   8   7  -4    0.47    0.11
  -7  -7   4    0.01    0.08
   7   7  -4   -0.08    0.06
  -7   7   4    0.01    0.08
  -7   7   4    0.00    0.08
  -6  -7   4    0.09    0.09
   6   7  -4   -0.06    0.08
  -6   7   4    0.14    0.08
  -6   7   4    0.25    0.09
   6   7  -4   -0.07    0.11
  -5  -7   4    1.39    0.17
   5   7  -4    1.38    0.16
  -5   7   4    1.25    0.17
  -5   7   4    1.60    0.15
   5   7  -4    1.26    0.16
  -4  -7   4    4.94    0.26
  -4   7   4    4.71    0.33
  -4   7   4    4.81    0.27
   4   7  -4    4.85    0.25
  -3  -7   4    0.22    0.10
   3   7  -4    0.10    0.09
  -3   7   4   -0.02    0.08
   3   7  -4    0.27    0.10
  -3   7   4    0.01    0.10
  -2  -7   4    0.05    0.10
  -2   7   4   -0.03    0.10
   2   7  -4    0.16    0.10
  -2   7   4    0.11    0.09
   2   7  -4    0.04    0.09
  -1  -7   4    3.96    0.25
  -1   7   4    3.88    0.25
   1   7  -4    3.90    0.24
   1   7  -4    3.85    0.25
  -1   7   4    3.81    0.23
   0  -7   4    0.07    0.11
   0   7   4   -0.05    0.08
   0   7  -4    0.15    0.10
   0   7  -4   -0.03    0.10
   0   7   4   -0.05    0.10
  -1   7  -4    0.40    0.10
   1   7   4    0.33    0.10
   1   7   4    0.61    0.12
  -1   7  -4    0.55    0.13
  -2  -7  -4    0.12    0.14
  -2   7  -4    0.12    0.09
   2   7   4    0.10    0.09
   2   7   4    0.11    0.09
  -3  -7  -4    3.03    0.23
  -3   7  -4    3.12    0.25
   3   7   4    2.75    0.22
   3   7   4    3.57    0.29
  -4  -7  -4    0.22    0.10
   4   7   4    0.23    0.08
  -4   7  -4    0.24    0.09
   4   7   4    0.06    0.12
  -4   7  -4    0.15    0.14
  -5  -7  -4    5.48    0.32
  -5   7  -4    4.29    0.25
   5   7   4    4.69    0.24
  -6  -7  -4    0.24    0.11
   6   7   4    0.29    0.08
  -7  -7  -4    3.18    0.21
   7   7   4    2.27    0.23
  -6   8   4    0.26    0.07
  -6   8   4    0.24    0.09
   6   8  -4    0.20    0.06
   5   8  -4    9.20    0.35
   5   8  -4    9.05    0.36
  -5   8   4    9.70    0.36
  -4  -8   4    0.42    0.12
   4   8  -4    0.76    0.12
  -4   8   4    0.60    0.12
  -4   8   4    0.66    0.10
   4   8  -4    0.69    0.12
  -3  -8   4    0.01    0.11
   3   8  -4    0.08    0.07
   3   8  -4    0.01    0.07
  -3   8   4    0.06    0.06
  -3   8   4    0.04    0.08
  -2  -8   4    3.35    0.23
   2   8  -4    3.35    0.20
   2   8  -4    3.63    0.19
  -2   8   4    3.44    0.18
  -2   8   4    3.60    0.20
  -1  -8   4    0.03    0.14
   1   8  -4   -0.03    0.07
  -1   8   4   -0.04    0.07
  -1   8   4   -0.01    0.06
   1   8  -4   -0.10    0.08
   0  -8   4    1.10    0.27
   0   8  -4    1.24    0.13
   0   8   4    1.18    0.14
   0   8   4    1.09    0.12
   0   8  -4    1.29    0.16
  -1   8  -4    0.13    0.09
   1   8   4    0.10    0.07
  -1   8  -4   -0.01    0.11
   1   8   4    0.06    0.07
   2   8   4   -0.07    0.07
   2   8   4   -0.03    0.07
  -2   8  -4   -0.10    0.06
  -2   8  -4    0.06    0.10
  -3   8  -4    5.03    0.22
   3   8   4    4.69    0.24
   3   8   4    5.07    0.23
   4   8   4    6.44    0.26
  -4   8  -4    6.14    0.26
   5   8   4    3.98    0.19
 -14   0   5   -0.03    0.07
 -13   0   5   23.01    0.83
  13   0  -5   23.82    0.83
 -13   0   5   24.22    0.83
 -12   0   5    0.08    0.09
 -11   0   5    2.09    0.21
 -11   0   5    2.17    0.21
 -10   0   5   -0.12    0.09
 -10   0   5   -0.06    0.09
  -9   0   5   24.09    0.86
  -9   0   5   24.39    0.87
  -8   0   5    0.16    0.12
  -8   0   5    0.20    0.12
  -8   0   5   -0.07    0.13
  -4   0   5    0.02    0.02
   4   0  -5    0.01    0.02
  -3   0   5  435.95   13.54
   3   0  -5  407.81   13.54
  -2   0   5    0.01    0.01
   2   0  -5    0.02    0.02
   1   0  -5  208.30    6.95
  -1   0   5  223.20    6.97
   0   0  -5    0.01    0.02
   0   0   5    0.02    0.02
   1   0   5  143.94    4.48
  -1   0  -5  134.17    4.47
  -2   0  -5    0.00    0.02
   2   0   5    0.04    0.02
  -3   0  -5   58.61    1.95
   3   0   5   62.02    1.95
   4   0   5    0.01    0.03
  -4   0  -5    0.02    0.03
  -4   0  -5    0.19    0.06
  -5   0  -5  109.32    3.46
   5   0   5  107.96    3.43
  -5   0  -5  103.06    3.43
  -6   0  -5    0.03    0.06
  -7   0  -5   22.51    0.79
  -7   0  -5   22.35    0.80
  -8   0  -5   -0.04    0.08
  -8   0  -5    0.18    0.10
  -8   0  -5   -0.01    0.10
  -9   0  -5   74.23    2.41
  -9   0  -5   74.27    2.42
  -9   0  -5   69.82    2.41
 -10   0  -5   -0.04    0.09
 -10   0  -5    0.17    0.10
 -10   0  -5    0.01    0.08
 -11   0  -5    1.74    0.17
 -11   0  -5    1.42    0.19
 -11   0  -5    1.51    0.17
 -12   0  -5    0.01    0.06
 -12   0  -5    0.02    0.08
 -12   0  -5    0.14    0.14
 -13   0  -5    5.72    0.24
 -13   0  -5    5.49    0.24
 -14  -1   5    6.78    0.30
 -14  -1   5    6.87    0.36
 -14   1   5    6.69    0.27
 -14   1   5    6.68    0.27
 -13  -1   5   17.18    0.64
 -13  -1   5   18.27    0.64
  13  -1  -5   17.89    0.65
 -13   1   5   17.91    0.64
  13   1  -5   17.42    0.64
 -13   1   5   18.02    0.64
 -12  -1   5    4.11    0.33
 -12  -1   5    4.22    0.29
  12   1  -5    4.43    0.29
 -12   1   5    4.54    0.25
 -12   1   5    4.97    0.26
 -11  -1   5   11.89    0.48
 -11  -1   5   11.82    0.48
 -11   1   5   11.07    0.47
  11   1  -5   11.78    0.48
 -11   1   5   11.18    0.48
 -10  -1   5    5.86    0.32
 -10  -1   5    6.52    0.33
 -10   1   5    6.29    0.34
 -10   1   5    5.93    0.30
 -10   1   5    5.93    0.31
  -9  -1   5    8.08    0.37
  -9  -1   5    7.93    0.39
  -9  -1   5    7.85    0.37
  -9   1   5    7.97    0.39
  -9   1   5    7.83    0.43
  -9   1   5    7.91    0.38
  -8  -1   5    1.67    0.19
  -8  -1   5    1.28    0.23
  -8  -1   5    1.03    0.24
  -8   1   5    1.16    0.19
  -8   1   5    1.02    0.17
  -8   1   5    0.94    0.18
  -7  -1   5   75.35    2.43
  -7   1   5   74.61    2.45
  -7   1   5   73.18    2.44
  -6  -1   5   30.24    1.02
   5  -1  -5   34.61    1.17
  -5  -1   5   35.51    1.16
  -5  -1   5   37.75    1.16
   4  -1  -5   36.39    1.20
  -4  -1   5   37.26    1.19
  -4   1   5   36.32    1.19
  -3  -1   5   29.03    0.93
   3  -1  -5   28.31    0.93
   3   1  -5   27.66    0.93
  -3   1   5   28.57    0.93
   2  -1  -5    5.95    0.23
  -2  -1   5    6.49    0.23
  -2   1   5    6.70    0.23
   2   1  -5    6.44    0.23
  -1  -1   5   76.60    2.44
   1  -1  -5   73.59    2.44
  -1   1   5   80.56    2.44
   1   1  -5   71.95    2.44
   0  -1   5   10.70    0.36
   0  -1  -5   10.53    0.35
   0   1   5   10.13    0.35
   0   1  -5    9.57    0.35
  -1  -1  -5  277.11    9.19
   1  -1   5  299.82    9.19
  -1   1  -5  268.04    9.15
   1   1   5  292.99    9.18
  -2  -1  -5    0.08    0.02
   2  -1   5    0.08    0.03
  -2   1  -5    0.07    0.03
   2   1   5    0.07    0.02
  -3  -1  -5    0.17    0.06
   3  -1   5    0.09    0.03
  -3   1  -5    0.12    0.03
   3   1   5    0.12    0.03
   4  -1   5    0.65    0.09
  -4  -1  -5    0.51    0.08
  -4  -1  -5    0.57    0.07
  -4   1  -5    0.53    0.11
  -4   1  -5    0.60    0.08
   4   1   5    0.67    0.08
  -5  -1  -5    0.38    0.09
   5  -1   5    0.18    0.06
  -5  -1  -5    0.15    0.05
   5   1   5    0.16    0.05
  -5   1  -5    0.20    0.07
  -6  -1  -5   11.39    0.41
  -6   1  -5    8.99    0.46
  -6   1  -5   11.03    0.45
  -7  -1  -5   67.35    2.33
  -7  -1  -5   72.39    2.33
  -7  -1  -5   69.86    2.32
  -7   1  -5   69.56    2.33
  -7   1  -5   72.51    2.32
  -7   1  -5   71.12    2.32
  -8  -1  -5    1.36    0.22
  -8  -1  -5    2.05    0.17
  -8  -1  -5    1.82    0.19
  -8   1  -5    1.74    0.20
  -8   1  -5    2.19    0.18
  -8   1  -5    1.88    0.19
  -9  -1  -5    0.48    0.11
  -9  -1  -5    0.24    0.09
  -9  -1  -5    0.22    0.12
  -9   1  -5    0.40    0.10
  -9   1  -5    0.47    0.12
  -9   1  -5    0.28    0.10
 -10  -1  -5    1.82    0.18
 -10  -1  -5    1.81    0.19
 -10  -1  -5    1.83    0.21
 -10   1  -5    1.38    0.18
 -10   1  -5    1.83    0.20
 -10   1  -5    1.60    0.18
 -11  -1  -5   12.19    0.51
 -11  -1  -5   12.59    0.57
 -11  -1  -5   13.38    0.50
 -11   1  -5   13.58    0.50
 -11   1  -5   13.13    0.51
 -11   1  -5   11.79    0.51
 -12  -1  -5    0.07    0.09
 -12  -1  -5   -0.10    0.07
 -12  -1  -5    0.14    0.11
 -12   1  -5   -0.02    0.07
 -12   1  -5    0.00    0.06
 -13  -1  -5   52.50    1.69
 -13   1  -5   50.83    1.69
 -13   1  -5   51.50    1.69
 -14   2   5    1.42    0.11
 -14   2   5    1.57    0.11
 -13   2   5    8.71    0.35
 -13   2   5    8.81    0.36
  13   2  -5    8.95    0.36
 -12  -2   5    0.14    0.14
 -12   2   5    0.09    0.09
 -12   2   5    0.01    0.07
  12   2  -5    0.02    0.09
 -11  -2   5    9.90    0.45
 -11  -2   5    9.53    0.45
 -11  -2   5   10.08    0.45
 -11   2   5   11.05    0.44
 -11   2   5   10.17    0.42
  11   2  -5   10.11    0.43
 -10  -2   5    4.31    0.31
 -10  -2   5    4.15    0.33
 -10   2   5    4.61    0.27
 -10   2   5    4.20    0.26
 -10   2   5    4.95    0.30
  10   2  -5    4.37    0.27
  -9  -2   5    0.63    0.13
  -9  -2   5    0.65    0.16
  -9  -2   5    0.30    0.17
   9   2  -5    0.45    0.12
  -9   2   5    0.46    0.11
  -9   2   5    0.28    0.11
  -9   2   5    0.27    0.13
  -8  -2   5   24.87    0.86
  -8  -2   5   23.28    0.89
  -8   2   5   24.92    0.87
  -8   2   5   24.12    0.88
   8   2  -5   24.50    0.87
  -8   2   5   23.78    0.86
  -7  -2   5    0.82    0.13
  -7   2   5    0.51    0.16
  -7   2   5    0.48    0.11
  -7   2   5    0.35    0.13
   6  -2  -5   52.91    1.74
  -6  -2   5   53.41    1.75
  -5  -2   5    0.80    0.12
  -5  -2   5    0.74    0.09
   5  -2  -5    0.83    0.10
  -5  -2   5    0.73    0.10
  -4  -2   5    1.15    0.10
  -4  -2   5    1.11    0.09
   4  -2  -5    1.17    0.09
   3  -2  -5   22.98    0.80
  -3  -2   5   24.08    0.80
  -3   2   5   24.43    0.81
   2  -2  -5    3.96    0.18
  -2  -2   5    4.33    0.18
  -2   2   5    4.30    0.18
   1  -2  -5    7.48    0.28
  -1  -2   5    8.15    0.29
  -1   2   5    7.28    0.29
   0  -2  -5   53.35    1.77
   0  -2   5   56.28    1.77
   0   2   5   56.17    1.77
   0   2  -5   51.45    1.77
   1  -2   5   21.92    0.72
  -1  -2  -5   20.82    0.72
  -1   2  -5   19.87    0.72
   1   2   5   22.11    0.72
  -2  -2  -5   45.69    1.52
   2  -2   5   46.71    1.53
   2   2   5   46.89    1.53
   3  -2   5   72.91    2.38
  -3  -2  -5   72.41    2.37
  -3  -2  -5   73.95    2.37
  -3   2  -5   72.60    2.37
   3   2   5   72.66    2.37
  -4  -2  -5  103.42    3.24
   4  -2   5   99.62    3.25
  -4  -2  -5   97.37    3.24
   4   2   5   99.01    3.24
  -4   2  -5  101.42    3.25
   5  -2   5    7.42    0.35
  -5  -2  -5    7.62    0.32
  -5  -2  -5    8.05    0.32
  -5   2  -5    8.22    0.33
  -6  -2  -5   54.29    1.76
  -6  -2  -5   52.27    1.76
  -6   2  -5   52.17    1.76
  -6   2  -5   51.08    1.75
  -6   2  -5   54.26    1.76
  -7  -2  -5    6.32    0.40
  -7  -2  -5    6.93    0.34
  -7  -2  -5    7.19    0.31
  -7   2  -5    6.88    0.33
  -7   2  -5    6.91    0.33
  -7   2  -5    6.77    0.31
  -8  -2  -5   11.34    0.47
  -8  -2  -5   11.62    0.46
  -8  -2  -5   11.19    0.50
  -8   2  -5   11.24    0.47
  -8   2  -5   11.81    0.47
  -8   2  -5   11.43    0.46
  -9  -2  -5    4.48    0.27
  -9  -2  -5    4.53    0.31
  -9   2  -5    4.03    0.33
  -9   2  -5    4.42    0.26
  -9   2  -5    4.44    0.26
 -10  -2  -5    0.21    0.10
 -10  -2  -5    0.30    0.10
 -10  -2  -5    0.43    0.15
 -10   2  -5    0.64    0.16
 -10   2  -5    0.44    0.14
 -10   2  -5    0.35    0.10
 -11  -2  -5    3.81    0.27
 -11  -2  -5    3.49    0.23
 -11   2  -5    3.77    0.21
 -11   2  -5    3.60    0.21
 -12  -2  -5    2.32    0.20
 -12   2  -5    2.03    0.15
 -12   2  -5    2.24    0.16
 -13   2  -5    0.53    0.09
 -13   2  -5    0.57    0.12
  13   3  -5    2.82    0.19
 -13   3   5    2.71    0.15
 -13   3   5    2.68    0.16
 -12   3   5    2.52    0.18
  12   3  -5    2.59    0.19
 -12   3   5    2.60    0.17
 -11  -3   5    3.23    0.25
 -11   3   5    3.77    0.25
 -11   3   5    3.56    0.22
 -11   3   5    3.02    0.24
  11   3  -5    3.43    0.25
 -10  -3   5   20.64    0.81
 -10   3   5   22.67    0.82
 -10   3   5   23.11    0.82
  10   3  -5   22.80    0.81
 -10   3   5   22.14    0.81
  -9  -3   5    1.06    0.17
  -9   3   5    0.91    0.18
  -9   3   5    1.03    0.18
   9   3  -5    0.95    0.19
  -9   3   5    1.10    0.21
  -8  -3   5    7.22    0.32
  -8   3   5    6.62    0.35
  -8   3   5    6.23    0.35
   8   3  -5    6.85    0.34
  -8   3   5    6.84    0.33
  -7  -3   5   17.10    0.63
  -7   3   5   17.31    0.65
  -7   3   5   16.78    0.66
  -7   3   5   16.90    0.64
   7   3  -5   17.27    0.65
  -7   3   5   17.48    0.67
  -6  -3   5    3.32    0.19
  -6   3   5    3.25    0.27
  -6   3   5    2.70    0.24
  -6   3   5    3.30    0.27
  -6   3   5    3.18    0.29
   6   3  -5    3.35    0.24
   5  -3  -5    0.53    0.11
  -5  -3   5    0.47    0.11
  -5  -3   5    0.56    0.18
   5   3  -5    0.64    0.14
  -4  -3   5   11.77    0.50
   4  -3  -5   13.77    0.49
  -4  -3   5   12.66    0.48
  -3  -3   5    2.11    0.16
   3  -3  -5    2.23    0.16
  -3  -3   5    2.24    0.18
  -2  -3   5    7.12    0.29
  -2  -3   5    6.73    0.30
   2  -3  -5    7.25    0.29
  -2   3   5    6.69    0.30
   2   3  -5    6.89    0.29
  -1  -3   5    8.27    0.34
   1  -3  -5    8.53    0.33
   1   3  -5    8.41    0.32
  -1   3   5    7.49    0.33
   0  -3   5    3.19    0.19
   0  -3  -5    3.18    0.17
   0   3  -5    3.08    0.17
   0   3   5    2.96    0.18
   1  -3   5    2.50    0.17
  -1  -3  -5    2.31    0.15
  -1  -3  -5    2.45    0.15
  -1   3  -5    2.60    0.16
   1   3   5    2.38    0.18
   2  -3   5    5.05    0.27
  -2  -3  -5    5.38    0.24
  -2  -3  -5    5.55    0.25
  -2   3  -5    5.52    0.24
   2   3   5    5.56    0.27
  -3  -3  -5   91.63    3.00
  -3  -3  -5   92.95    2.98
   3   3   5   88.58    3.01
  -3   3  -5   94.70    2.99
  -4  -3  -5   97.21    3.16
   4  -3   5   99.25    3.18
  -4   3  -5   94.17    3.15
  -5  -3  -5    0.96    0.12
   5  -3   5    0.79    0.18
  -5   3  -5    0.99    0.18
  -5   3  -5    1.01    0.15
  -6  -3  -5    2.61    0.17
  -6   3  -5    2.69    0.19
   6   3   5    2.11    0.31
  -6   3  -5    2.74    0.24
  -6   3  -5    2.00    0.24
  -7  -3  -5   36.89    1.22
  -7   3  -5   35.44    1.21
  -7   3  -5   33.73    1.21
  -8  -3  -5  107.70    3.43
  -8   3  -5  104.90    3.42
  -8   3  -5  104.94    3.43
  -8   3  -5  101.02    3.41
  -9  -3  -5    2.36    0.19
  -9   3  -5    2.69    0.25
  -9   3  -5    2.56    0.21
  -9   3  -5    2.45    0.21
 -10  -3  -5   21.55    0.85
 -10   3  -5   25.00    0.85
 -10   3  -5   24.70    0.86
 -11  -3  -5   20.59    0.74
 -11   3  -5   20.57    0.74
 -11   3  -5   20.79    0.73
 -12  -3  -5    0.57    0.16
 -12   3  -5    0.76    0.11
 -12   3  -5    0.50    0.11
  12   3   5    1.07    0.19
 -13   4   5    3.07    0.16
 -12   4   5    2.70    0.18
 -12   4   5    2.63    0.16
  12   4  -5    2.68    0.17
 -11  -4   5    4.05    0.30
 -11   4   5    4.62    0.24
 -11   4   5    4.60    0.26
  11   4  -5    4.63    0.24
 -11   4   5    4.30    0.23
 -10  -4   5    3.47    0.25
  10   4  -5    4.35    0.24
 -10   4   5    4.13    0.23
  -9  -4   5    3.63    0.23
   9   4  -5    3.29    0.24
  -9   4   5    3.73    0.27
  -9   4   5    4.13    0.24
  -9   4   5    3.90    0.26
  -8  -4   5   21.23    0.81
   8   4  -5   20.73    0.74
  -8   4   5   19.88    0.75
  -8   4   5   19.32    0.75
  -8   4   5   19.40    0.75
  -8   4   5   19.56    0.73
  -7  -4   5    0.09    0.08
  -7   4   5   -0.02    0.15
  -7   4   5    0.27    0.14
  -7   4   5    0.10    0.10
   7   4  -5    0.21    0.12
  -7   4   5    0.01    0.13
  -6  -4   5    7.93    0.34
   6   4  -5    7.34    0.38
  -6   4   5    7.41    0.36
  -6   4   5    7.82    0.38
  -6   4   5    7.59    0.36
   6   4  -5    7.00    0.36
  -5  -4   5    1.06    0.14
   5   4  -5    1.28    0.23
  -5   4   5    1.43    0.20
  -5   4   5    1.38    0.22
   5   4  -5    1.55    0.19
  -5   4   5    1.40    0.22
  -4   4   5    8.30    0.36
  -4   4   5    8.18    0.38
   4   4  -5    7.61    0.37
  -4   4   5    8.23    0.39
   4   4  -5    8.07    0.37
  -3  -4   5    8.57    0.44
   3   4  -5    9.14    0.40
   3   4  -5    9.12    0.39
  -3   4   5    8.95    0.38
  -3   4   5    9.07    0.40
   2  -4  -5    8.66    0.42
  -2  -4   5    7.45    0.39
  -2   4   5    8.00    0.38
  -2   4   5    7.59    0.36
   2   4  -5    8.30    0.34
   1  -4  -5    4.63    0.28
  -1  -4   5    4.75    0.30
   0  -4  -5  335.17   10.72
   0  -4  -5  324.95   10.67
   0  -4   5  342.26   10.73
   0   4  -5  332.11   10.70
  -1  -4  -5   95.38    3.13
  -1  -4  -5   94.48    3.08
  -2  -4  -5    0.84    0.13
   2   4   5    0.97    0.22
  -2   4  -5    0.58    0.15
  -2   4  -5    1.07    0.13
  -3  -4  -5    7.28    0.31
   3   4   5    7.14    0.36
  -3   4  -5    7.61    0.32
  -3   4  -5    6.97    0.38
  -4  -4  -5   38.19    1.24
  -4   4  -5   34.98    1.25
  -4   4  -5   36.80    1.24
   4   4   5   35.22    1.24
  -5  -4  -5   -0.07    0.07
   5   4   5    0.07    0.14
  -5   4  -5    0.03    0.10
  -6  -4  -5   24.74    0.88
  -6   4  -5   25.13    0.89
  -7  -4  -5    0.66    0.14
   7   4   5    0.62    0.16
  -7   4  -5    0.77    0.15
  -7   4  -5    0.58    0.13
  -7   4  -5    0.87    0.21
  -8  -4  -5    3.83    0.23
  -8   4  -5    3.86    0.27
  -8   4  -5    3.93    0.29
  -8   4  -5    3.85    0.26
   8   4   5    3.31    0.30
  -9  -4  -5    5.99    0.29
  -9   4  -5    5.99    0.33
 -10  -4  -5    9.64    0.40
 -10   4  -5    9.41    0.39
 -10   4  -5    9.50    0.38
 -11  -4  -5    0.22    0.09
 -11   4  -5    0.24    0.08
 -12   4  -5    0.59    0.10
  12   5  -5    1.57    0.16
 -11  -5   5    1.96    0.22
  11   5  -5    2.54    0.16
 -11   5   5    2.47    0.16
 -10   5   5   20.61    0.75
 -10   5   5   22.10    0.74
  10   5  -5   20.55    0.75
  -9  -5   5   29.66    1.07
  -9   5   5   31.36    1.05
  -9   5   5   30.36    1.06
  -8  -5   5    3.27    0.22
  -8   5   5    3.26    0.24
  -8   5   5    3.67    0.26
   8   5  -5    3.23    0.23
  -8   5   5    3.10    0.24
  -7  -5   5    0.78    0.15
   7   5  -5    0.80    0.17
  -7   5   5    1.31    0.20
  -7   5   5    0.88    0.21
   7   5  -5    0.73    0.16
  -7   5   5    0.46    0.13
  -6  -5   5   23.29    0.80
  -6   5   5   21.55    0.79
   6   5  -5   21.70    0.79
  -6   5   5   21.88    0.79
  -6   5   5   21.28    0.81
   6   5  -5   21.18    0.80
  -5  -5   5   12.35    0.50
  -5   5   5   12.25    0.51
   5   5  -5   12.94    0.51
  -5   5   5   12.82    0.52
  -5   5   5   12.21    0.49
   5   5  -5   11.59    0.49
  -4  -5   5   45.60    1.44
  -4   5   5   44.31    1.49
  -4   5   5   39.42    1.42
  -4   5   5   40.41    1.54
   4   5  -5   39.67    1.46
   4   5  -5   41.70    1.42
   3   5  -5    1.83    0.20
  -3   5   5    1.71    0.19
  -3   5   5    2.05    0.22
   3   5  -5    2.28    0.21
   2   5  -5    0.98    0.21
  -2   5   5    1.15    0.17
  -2   5   5    0.91    0.19
   2   5  -5    0.89    0.18
  -1   5   5    0.37    0.12
   1   5  -5    0.34    0.11
  -1   5   5    0.35    0.11
   1   5  -5    0.84    0.16
   0  -5  -5    1.63    0.18
   0   5  -5    1.23    0.18
   0   5  -5    1.59    0.25
   0   5   5    1.32    0.19
   0   5   5    1.20    0.20
   0   5  -5    1.56    0.17
  -1  -5  -5   16.96    0.64
  -1   5  -5   18.06    0.69
   1   5   5   17.46    0.65
  -1   5  -5   18.00    0.66
  -1   5  -5   17.59    0.65
   1   5   5   17.48    0.66
  -2  -5  -5    4.16    0.23
   2   5   5    4.42    0.28
  -2   5  -5    4.41    0.24
  -2   5  -5    4.18    0.26
  -2   5  -5    3.82    0.33
   2   5   5    4.19    0.27
  -3  -5  -5   10.52    0.41
  -3   5  -5    9.03    0.48
  -3   5  -5   10.13    0.44
  -3   5  -5   10.49    0.43
   3   5   5   10.09    0.43
   3   5   5    9.45    0.44
  -4  -5  -5   10.76    0.44
   4   5   5   10.95    0.46
  -4   5  -5   10.90    0.46
  -4   5  -5   10.86    0.46
  -5  -5  -5    1.00    0.15
  -5   5  -5    0.97    0.18
  -5   5  -5    0.93    0.21
   5   5   5    0.84    0.20
  -6  -5  -5    3.09    0.21
   6   5   5    3.69    0.26
  -6   5  -5    3.26    0.27
  -7  -5  -5    1.30    0.16
   7   5   5    1.58    0.22
  -8  -5  -5    1.29    0.15
   8   5   5    1.63    0.23
  -9  -5  -5    0.88    0.14
 -10  -5  -5   54.47    1.81
 -10  -6   5   11.28    0.45
  10   6  -5   10.73    0.41
  -9  -6   5   17.80    0.63
  -9   6   5   16.22    0.61
   9   6  -5   16.82    0.61
  -8  -6   5    0.01    0.09
  -8   6   5    0.06    0.10
   8   6  -5    0.17    0.08
  -8   6   5    0.11    0.10
  -7  -6   5   11.32    0.48
  -7   6   5   11.54    0.46
  -7   6   5   11.32    0.55
   7   6  -5   11.44    0.48
   7   6  -5   13.12    0.50
  -6  -6   5    2.27    0.19
   6   6  -5    2.43    0.23
  -6   6   5    2.36    0.19
   6   6  -5    2.08    0.20
  -6   6   5    2.23    0.22
  -5  -6   5    8.44    0.39
   5   6  -5    9.36    0.40
  -5   6   5    9.19    0.41
   5   6  -5    8.87    0.40
  -5   6   5    9.13    0.39
  -4  -6   5    0.88    0.16
   4   6  -5    1.17    0.19
  -4   6   5    1.34    0.20
   4   6  -5    1.26    0.20
  -4   6   5    1.36    0.17
   3   6  -5    3.13    0.23
   3   6  -5    3.07    0.25
  -3   6   5    3.20    0.22
  -3   6   5    3.54    0.25
   2   6  -5    4.93    0.29
   2   6  -5    5.14    0.27
  -2   6   5    5.11    0.27
  -2   6   5    4.67    0.29
   1   6  -5    3.60    0.23
  -1   6   5    3.25    0.24
  -1   6   5    3.32    0.23
   1   6  -5    3.28    0.27
   0   6   5   79.41    2.59
   0   6  -5   76.91    2.59
   0   6   5   79.62    2.58
   0   6  -5   77.09    2.58
  -1  -6  -5    1.36    0.21
   1   6   5    1.91    0.19
  -1   6  -5    1.85    0.25
   1   6   5    1.52    0.19
  -1   6  -5    1.26    0.18
  -2  -6  -5   17.71    0.64
  -2   6  -5   16.75    0.64
   2   6   5   16.12    0.62
   2   6   5   16.98    0.64
  -2   6  -5   15.84    0.65
  -3  -6  -5    0.73    0.17
  -3   6  -5    1.23    0.18
  -3   6  -5    0.62    0.17
   3   6   5    0.61    0.14
   3   6   5    0.92    0.18
  -3   6  -5    0.68    0.14
  -4  -6  -5    0.26    0.10
  -4   6  -5    0.48    0.14
   4   6   5    0.46    0.11
  -4   6  -5    0.36    0.13
  -5  -6  -5    0.56    0.15
   5   6   5    0.44    0.12
  -5   6  -5    0.58    0.14
  -6  -6  -5    0.25    0.09
  -7  -6  -5    2.37    0.18
   7   6   5    2.58    0.20
  -8  -6  -5    0.23    0.09
   8   6   5    0.14    0.12
  -9  -6  -5    4.58    0.24
   9   7  -5    0.05    0.06
  -8  -7   5    0.12    0.10
   8   7  -5    0.47    0.11
  -8   7   5   -0.03    0.09
  -7  -7   5    0.62    0.13
  -7   7   5    0.40    0.09
  -7   7   5    0.51    0.09
   7   7  -5    0.30    0.08
  -6  -7   5    0.29    0.10
  -6   7   5    0.35    0.08
  -6   7   5    0.22    0.09
   6   7  -5    0.18    0.10
   6   7  -5    0.14    0.08
  -5  -7   5    2.79    0.20
  -5   7   5    2.75    0.18
   5   7  -5    2.82    0.19
  -5   7   5    2.66    0.20
   5   7  -5    2.52    0.19
  -4  -7   5    4.65    0.26
   4   7  -5    4.51    0.26
  -4   7   5    4.51    0.24
  -4   7   5    4.53    0.25
   4   7  -5    4.48    0.25
  -3  -7   5    0.70    0.15
  -3   7   5    0.99    0.18
   3   7  -5    1.03    0.17
  -3   7   5    0.80    0.15
   3   7  -5    1.09    0.16
  -2  -7   5    4.29    0.26
  -2   7   5    4.50    0.26
   2   7  -5    4.34    0.27
   2   7  -5    4.78    0.25
  -2   7   5    4.30    0.25
  -1  -7   5    6.14    0.32
   1   7  -5    6.30    0.32
  -1   7   5    6.48    0.30
  -1   7   5    6.21    0.31
   1   7  -5    6.62    0.31
   0  -7   5    0.27    0.11
   0   7   5    0.14    0.11
   0   7  -5    0.17    0.11
   0   7   5    0.26    0.10
   0   7  -5    0.10    0.08
  -1   7  -5    7.76    0.36
   1   7   5    7.19    0.33
   1   7   5    7.23    0.34
  -1   7  -5    7.21    0.33
   2   7   5    0.44    0.10
  -2   7  -5    0.33    0.13
  -2   7  -5    0.50    0.10
  -3  -7  -5    0.03    0.13
  -3   7  -5   -0.01    0.09
   3   7   5    0.00    0.10
  -3   7  -5    0.05    0.14
   3   7   5   -0.06    0.10
  -4  -7  -5    7.83    0.35
   4   7   5    7.61    0.33
  -4   7  -5    7.68    0.34
  -5  -7  -5    2.94    0.23
  -5   7  -5    2.68    0.21
   5   7   5    3.01    0.19
  -6  -7  -5    0.13    0.12
   6   7   5    0.10    0.08
   7   7   5    1.00    0.17
  -6   8   5    4.63    0.21
  -6   8   5    4.86    0.21
   6   8  -5    4.78    0.21
   5   8  -5    0.20    0.09
   5   8  -5    0.06    0.07
  -5   8   5    0.24    0.08
  -4  -8   5    1.32    0.18
   4   8  -5    1.29    0.13
   4   8  -5    1.57    0.13
  -4   8   5    1.48    0.12
  -4   8   5    1.66    0.14
  -3  -8   5    0.52    0.12
   3   8  -5    0.95    0.13
  -3   8   5    0.68    0.12
   3   8  -5    0.87    0.12
  -3   8   5    0.79    0.11
  -2  -8   5    0.83    0.18
  -2   8   5    0.85    0.11
   2   8  -5    0.66    0.11
  -2   8   5    1.10    0.13
   2   8  -5    0.59    0.14
  -1  -8   5    2.40    0.22
   1   8  -5    2.52    0.16
   1   8  -5    2.37    0.18
  -1   8   5    2.30    0.15
  -1   8   5    2.49    0.17
   0  -8   5    5.12    0.32
   0   8   5    5.50    0.26
   0   8   5    5.65    0.24
   0   8  -5    5.61    0.25
   0   8  -5    5.73    0.27
  -1   8  -5    0.06    0.07
  -1   8  -5    0.20    0.10
   1   8   5    0.19    0.07
   1   8   5    0.16    0.07
  -2   8  -5    0.85    0.19
   2   8   5    0.76    0.12
   2   8   5    0.85    0.13
  -2   8  -5    0.85    0.12
  -3   8  -5    2.57    0.16
   3   8   5    2.51    0.16
  -4   8  -5    1.08    0.14
   5   8   5    0.77    0.13
 -14   0   6    8.16    0.35
 -14   0   6    8.84    0.33
  13   0  -6    0.05    0.10
 -13   0   6    0.02    0.07
 -13   0   6   -0.01    0.07
 -12   0   6    0.82    0.17
 -12   0   6    1.41    0.18
 -11   0   6   -0.10    0.10
 -11   0   6   -0.20    0.09
 -10   0   6   -0.02    0.09
 -10   0   6    0.13    0.10
  -9   0   6    0.02    0.11
  -9   0   6    0.25    0.11
  -8   0   6   40.71    1.39
  -8   0   6   41.90    1.40
  -8   0   6   40.36    1.40
  -5   0   6    0.04    0.03
   5   0  -6    0.00    0.02
  -4   0   6    0.20    0.04
   4   0  -6    0.08    0.02
   3   0  -6    0.02    0.02
  -3   0   6    0.00    0.02
  -2   0   6    4.18    0.16
   2   0  -6    3.83    0.16
   1   0  -6    0.02    0.02
  -1   0   6   -0.02    0.02
   0   0  -6   79.07    2.58
   0   0   6   80.86    2.58
   1   0   6    0.00    0.02
  -1   0  -6   -0.01    0.02
   2   0   6    0.00    0.02
  -2   0  -6    0.04    0.02
  -3   0  -6    0.03    0.03
   3   0   6   -0.01    0.03
  -4   0  -6  107.70    3.57
   4   0   6  111.96    3.58
  -4   0  -6  113.40    3.58
  -5   0  -6    0.09    0.06
  -5   0  -6    0.14    0.05
   5   0   6    0.05    0.05
  -6   0  -6    8.18    0.33
  -6   0  -6    7.54    0.36
  -7   0  -6    0.03    0.11
  -7   0  -6    0.08    0.09
  -7   0  -6    0.02    0.07
  -8   0  -6  102.76    3.48
  -8   0  -6  110.64    3.49
  -8   0  -6  106.72    3.49
  -9   0  -6    0.23    0.10
  -9   0  -6    0.13    0.10
  -9   0  -6    0.00    0.09
 -10   0  -6    8.03    0.38
 -10   0  -6    8.74    0.38
 -10   0  -6    9.28    0.39
 -11   0  -6    0.09    0.08
 -11   0  -6    0.05    0.11
 -11   0  -6   -0.08    0.08
 -12   0  -6   19.18    0.70
 -12   0  -6   18.85    0.68
 -12   0  -6   18.97    0.67
 -14  -1   6    0.47    0.11
 -14   1   6    0.58    0.10
 -14   1   6    0.44    0.10
 -13  -1   6   -0.03    0.10
 -13  -1   6    0.19    0.09
  13  -1  -6   -0.07    0.10
 -13   1   6   -0.09    0.07
  13   1  -6   -0.04    0.09
 -13   1   6   -0.09    0.07
 -12  -1   6   67.78    2.35
 -12  -1   6   67.38    2.48
 -12   1   6   74.58    2.37
 -12   1   6   76.22    2.39
 -11  -1   6    0.77    0.19
 -11  -1   6    0.75    0.14
 -11   1   6    0.79    0.17
  11   1  -6    0.82    0.19
 -11   1   6    0.84    0.17
 -10  -1   6   11.50    0.50
 -10  -1   6   12.01    0.49
 -10   1   6   11.71    0.48
 -10   1   6   12.25    0.50
 -10   1   6   12.19    0.50
  -9  -1   6    4.25    0.27
  -9  -1   6    4.21    0.28
  -9  -1   6    4.54    0.30
  -9   1   6    4.24    0.29
  -9   1   6    3.57    0.29
  -8  -1   6    3.07    0.26
  -8  -1   6    2.76    0.23
  -8  -1   6    2.87    0.28
  -8   1   6    3.02    0.26
  -8   1   6    3.22    0.23
  -8   1   6    2.70    0.22
  -7  -1   6    0.67    0.16
  -7   1   6    0.73    0.19
  -7   1   6    0.94    0.23
  -7   1   6    0.59    0.12
  -6  -1   6  178.99    5.79
   6  -1  -6  181.28    5.76
  -5  -1   6   19.05    0.62
   5  -1  -6   18.10    0.62
  -5   1   6   18.65    0.62
   4  -1  -6   66.62    2.23
  -4  -1   6   71.11    2.23
   4   1  -6   67.16    2.23
  -4   1   6   71.64    2.23
   3  -1  -6    1.71    0.09
  -3  -1   6    1.67    0.09
   3   1  -6    1.61    0.09
  -3   1   6    1.65    0.09
   2  -1  -6   11.26    0.40
  -2  -1   6   11.56    0.40
  -2   1   6   12.05    0.40
   2   1  -6   11.31    0.40
   1  -1  -6    5.49    0.21
  -1  -1   6    5.31    0.20
  -1   1   6    5.18    0.21
   1   1  -6    5.66    0.21
   0  -1   6   62.08    1.91
   0  -1  -6   52.00    1.90
   0   1   6   61.45    1.91
   0   1  -6   59.54    1.91
   1  -1   6   37.97    1.28
  -1  -1  -6   38.28    1.27
   1   1   6   40.32    1.27
  -1   1  -6   38.43    1.27
  -2  -1  -6   33.85    1.10
   2  -1   6   33.58    1.10
  -2   1  -6   32.35    1.10
  -3  -1  -6   53.63    1.85
  -3  -1  -6   57.59    1.85
   3  -1   6   58.82    1.86
  -3   1  -6   57.16    1.85
   3   1   6   59.13    1.85
  -3   1  -6   55.09    1.86
  -4  -1  -6   70.21    2.24
   4  -1   6   68.45    2.24
  -4  -1  -6   66.90    2.24
   4   1   6   69.55    2.23
  -4   1  -6   69.31    2.24
  -4   1  -6   68.38    2.24
  -5  -1  -6    0.06    0.06
  -5  -1  -6    0.12    0.06
   5  -1   6    0.15    0.07
   5   1   6    0.16    0.07
  -5   1  -6    0.08    0.06
  -6  -1  -6   50.75    1.62
  -6  -1  -6   46.59    1.62
  -6   1  -6   48.00    1.63
  -6   1  -6   50.19    1.62
  -6   1  -6   47.31    1.62
  -7  -1  -6    0.60    0.11
  -7  -1  -6    0.35    0.08
  -7  -1  -6    0.88    0.21
  -7   1  -6    0.73    0.13
  -7   1  -6    0.94    0.17
  -7   1  -6    0.56    0.13
  -8  -1  -6  109.15    3.70
  -8  -1  -6  109.73    3.70
  -8   1  -6  116.97    3.74
  -8   1  -6  117.54    3.70
  -9  -1  -6    1.41    0.17
  -9  -1  -6    1.88    0.19
  -9  -1  -6    1.99    0.21
  -9   1  -6    1.75    0.19
  -9   1  -6    1.67    0.19
  -9   1  -6    1.97    0.19
 -10  -1  -6    9.46    0.41
 -10  -1  -6    9.35    0.40
 -10  -1  -6    8.56    0.40
 -10   1  -6    9.70    0.41
 -10   1  -6    8.77    0.41
 -10   1  -6    9.40    0.39
 -11  -1  -6    0.72    0.16
 -11  -1  -6    1.05    0.17
 -11   1  -6    1.44    0.22
 -11   1  -6    0.72    0.20
 -12  -1  -6    0.88    0.15
 -12  -1  -6    1.11    0.13
 -12  -1  -6    1.27    0.19
 -12   1  -6    1.10    0.13
 -12   1  -6    0.99    0.12
 -13  -1  -6    1.75    0.19
 -13   1  -6    1.75    0.13
 -13   1  -6    2.00    0.12
 -14   2   6    0.52    0.09
 -13   2   6    1.13    0.12
  13   2  -6    1.30    0.16
 -13   2   6    0.81    0.12
 -12  -2   6   10.07    0.44
 -12   2   6   10.26    0.41
 -12   2   6    9.80    0.42
  12   2  -6   10.55    0.42
 -11  -2   6    0.48    0.15
 -11   2   6    0.65    0.15
 -11   2   6    0.61    0.16
 -11   2   6    0.38    0.13
  11   2  -6    0.90    0.18
 -10  -2   6    1.82    0.44
 -10  -2   6    1.38    0.26
 -10   2   6    1.65    0.19
 -10   2   6    1.73    0.20
 -10   2   6    1.84    0.23
  10   2  -6    2.01    0.19
  -9  -2   6    0.22    0.18
  -9  -2   6    0.29    0.12
   9   2  -6    0.23    0.12
  -9   2   6    0.11    0.13
  -9   2   6    0.26    0.11
  -9   2   6    0.13    0.10
  -8  -2   6   37.09    1.40
  -8  -2   6   42.54    1.39
  -8   2   6   42.21    1.40
  -8   2   6   40.31    1.40
  -8   2   6   40.88    1.39
   8   2  -6   42.58    1.40
  -7  -2   6    3.12    0.19
  -7   2   6    2.68    0.25
  -7   2   6    2.84    0.22
  -7   2   6    2.27    0.23
  -6  -2   6   26.19    0.88
   6  -2  -6   25.26    0.88
  -5  -2   6  126.20    4.16
  -5  -2   6  134.66    4.18
   5  -2  -6  127.30    4.17
  -5  -2   6  129.51    4.18
   4  -2  -6    3.06    0.15
  -4  -2   6    3.17    0.16
  -4   2   6    3.07    0.17
   3  -2  -6    2.67    0.14
  -3  -2   6    2.78    0.14
  -3   2   6    2.88    0.15
   3   2  -6    2.66    0.17
   2  -2  -6   76.30    2.45
  -2  -2   6   75.51    2.45
   2   2  -6   72.88    2.44
  -2   2   6   76.82    2.45
  -1  -2   6   10.80    0.38
   1  -2  -6   10.81    0.38
  -1   2   6   11.12    0.39
   1   2  -6    9.66    0.38
   0  -2  -6   61.06    1.99
   0  -2   6   62.55    1.99
   0   2   6   61.99    1.99
   0   2  -6   58.57    1.99
  -1  -2  -6    6.28    0.24
   1  -2   6    6.29    0.25
  -1   2  -6    6.03    0.24
   1   2   6    5.60    0.24
  -2  -2  -6    3.13    0.16
   2  -2   6    3.41    0.17
  -2   2  -6    3.38    0.16
   2   2   6    3.38    0.17
  -2   2  -6    3.43    0.18
  -3  -2  -6   72.19    2.33
  -3  -2  -6   71.18    2.34
   3  -2   6   70.24    2.35
  -3   2  -6   71.41    2.34
   3   2   6   73.93    2.34
  -4  -2  -6  119.44    3.99
   4  -2   6  124.90    4.01
  -4  -2  -6  124.32    3.99
   4   2   6  122.26    4.00
  -4   2  -6  127.76    4.00
   5  -2   6    3.61    0.28
  -5  -2  -6    4.27    0.21
  -5   2  -6    4.29    0.21
  -6  -2  -6   -0.05    0.12
  -6  -2  -6    0.03    0.07
  -6   2  -6   -0.07    0.07
  -6   2  -6    0.18    0.12
  -6   2  -6    0.04    0.11
  -7  -2  -6    1.00    0.18
  -7  -2  -6    0.94    0.13
  -7  -2  -6    0.99    0.20
  -7   2  -6    1.02    0.18
  -7   2  -6    1.48    0.16
  -7   2  -6    0.98    0.18
  -8  -2  -6   34.35    1.17
  -8  -2  -6   33.64    1.16
  -8   2  -6   33.61    1.17
  -8   2  -6   32.94    1.16
  -8   2  -6   33.47    1.17
  -9  -2  -6    0.08    0.10
  -9  -2  -6    0.51    0.15
  -9  -2  -6    0.11    0.09
  -9   2  -6    0.23    0.12
  -9   2  -6    0.58    0.15
  -9   2  -6    0.33    0.10
 -10  -2  -6    8.72    0.39
 -10  -2  -6    9.81    0.40
 -10  -2  -6    9.23    0.42
 -10   2  -6    8.18    0.41
 -10   2  -6    9.18    0.40
 -10   2  -6    9.32    0.39
 -11  -2  -6   13.12    0.53
 -11  -2  -6   12.62    0.51
 -11   2  -6   13.32    0.51
 -11   2  -6   13.43    0.50
 -12  -2  -6   12.27    0.48
 -12   2  -6   11.90    0.46
 -12   2  -6   12.55    0.45
 -13   2  -6    0.03    0.06
 -13   2  -6    0.04    0.06
  13   3  -6    3.86    0.21
 -13   3   6    3.85    0.19
 -13   3   6    4.13    0.20
 -12   3   6    8.02    0.34
 -12   3   6    8.56    0.35
  12   3  -6    8.36    0.35
 -11  -3   6    0.45    0.15
 -11   3   6    0.72    0.18
  11   3  -6    0.95    0.18
 -11   3   6    0.70    0.15
 -11   3   6    0.60    0.13
 -10  -3   6    1.73    0.22
  10   3  -6    1.89    0.19
 -10   3   6    1.73    0.19
 -10   3   6    1.98    0.22
 -10   3   6    2.00    0.20
  -9  -3   6    5.23    0.27
  -9   3   6    4.22    0.27
  -9   3   6    3.88    0.28
   9   3  -6    4.23    0.27
  -9   3   6    4.12    0.25
  -8  -3   6    6.43    0.30
  -8   3   6    5.72    0.38
   8   3  -6    6.30    0.32
  -8   3   6    5.93    0.30
  -8   3   6    6.40    0.33
  -8   3   6    6.12    0.34
  -7  -3   6    4.20    0.23
   7   3  -6    4.82    0.27
  -7   3   6    4.10    0.30
  -7   3   6    4.22    0.30
  -7   3   6    4.21    0.25
  -7   3   6    4.38    0.29
  -6  -3   6    1.20    0.14
  -6   3   6    1.03    0.15
  -6   3   6    1.37    0.25
   6   3  -6    1.02    0.26
  -6   3   6    1.06    0.19
   6   3  -6    1.34    0.19
  -6   3   6    1.50    0.22
  -5  -3   6   57.89    1.85
   5  -3  -6   53.43    1.86
   5   3  -6   56.39    1.86
  -5   3   6   55.55    1.87
  -5   3   6   56.45    1.87
  -4  -3   6    1.85    0.22
   4  -3  -6    1.98    0.18
  -4  -3   6    1.94    0.18
  -3  -3   6   59.04    2.01
  -3  -3   6   60.55    2.01
   3  -3  -6   63.13    2.01
   2  -3  -6   10.37    0.38
  -2  -3   6    9.29    0.39
   2   3  -6    9.56    0.37
  -2   3   6    8.71    0.39
  -1  -3   6   25.19    0.86
   1  -3  -6   24.87    0.85
   1   3  -6   25.69    0.85
  -1   3   6   22.93    0.86
   0  -3   6    9.79    0.40
   0  -3  -6   10.75    0.39
   0   3  -6   10.08    0.38
   0   3   6    9.65    0.40
  -1  -3  -6   12.07    0.46
  -1  -3  -6   13.06    0.48
   1  -3   6   13.07    0.51
   1   3   6   12.22    0.49
  -1   3  -6   13.10    0.47
  -2  -3  -6    2.36    0.17
  -2  -3  -6    2.32    0.16
  -2   3  -6    2.67    0.16
   2   3   6    2.15    0.21
  -3  -3  -6   20.10    0.71
  -3  -3  -6   19.34    0.69
  -3   3  -6   19.73    0.69
  -4  -3  -6   33.52    1.10
  -4  -3  -6   31.17    1.12
   4  -3   6   32.20    1.14
  -4   3  -6   32.81    1.11
  -5  -3  -6   64.40    2.13
  -5   3  -6   64.04    2.14
  -5   3  -6   65.22    2.13
  -6  -3  -6    6.17    0.29
  -6   3  -6    6.42    0.34
  -6   3  -6    6.24    0.34
  -6   3  -6    6.37    0.30
  -7  -3  -6   52.24    1.75
  -7   3  -6   52.65    1.76
  -7   3  -6   53.77    1.76
  -7   3  -6   50.56    1.79
  -8  -3  -6   27.95    1.06
  -8   3  -6   29.74    1.01
  -8   3  -6   28.78    1.02
  -8   3  -6   29.50    1.03
  -9  -3  -6    7.48    0.35
  -9   3  -6    8.35    0.35
  -9   3  -6    7.62    0.35
  -9   3  -6    7.12    0.36
 -10  -3  -6    2.06    0.18
 -10   3  -6    2.09    0.18
 -11  -3  -6   33.89    1.26
 -11   3  -6   35.19    1.17
 -11   3  -6   34.85    1.18
 -12  -3  -6    0.08    0.10
 -12   3  -6   -0.08    0.09
 -12   3  -6   -0.07    0.06
  12   3   6    0.07    0.10
 -13   4   6    0.27    0.07
 -12   4   6    0.04    0.08
 -12   4   6    0.06    0.06
  12   4  -6    0.03    0.07
 -11  -4   6    1.95    0.22
 -11   4   6    1.74    0.18
  11   4  -6    1.91    0.16
 -11   4   6    1.86    0.19
 -11   4   6    1.96    0.16
 -10  -4   6    3.46    0.24
 -10   4   6    3.73    0.23
  10   4  -6    3.69    0.23
 -10   4   6    3.69    0.34
  -9  -4   6    1.69    0.19
  -9   4   6    1.75    0.22
   9   4  -6    1.79    0.20
  -9   4   6    1.87    0.22
  -9   4   6    1.75    0.20
  -8   4   6   10.43    0.44
  -8   4   6   10.77    0.47
   8   4  -6   10.90    0.45
  -8   4   6   10.82    0.46
  -8   4   6   10.29    0.46
  -7  -4   6    0.10    0.09
  -7   4   6    0.15    0.11
  -7   4   6    0.11    0.14
   7   4  -6    0.05    0.11
  -7   4   6    0.03    0.12
  -7   4   6    0.16    0.12
  -6  -4   6   23.30    0.84
  -6   4   6   23.57    0.84
  -6   4   6   23.80    0.84
   6   4  -6   22.71    0.84
   6   4  -6   22.91    0.84
  -6   4   6   23.93    0.85
  -5  -4   6   23.43    0.82
  -5   4   6   23.44    0.84
   5   4  -6   22.49    0.82
  -5   4   6   22.84    0.82
   5   4  -6   23.36    0.83
  -5   4   6   22.89    0.83
  -4   4   6    7.02    0.34
  -4   4   6    7.49    0.33
   4   4  -6    7.18    0.35
   4   4  -6    7.59    0.35
  -4   4   6    6.47    0.36
  -3   4   6   16.12    0.59
   3   4  -6   16.08    0.61
   3   4  -6   15.24    0.59
  -3   4   6   15.90    0.60
   2   4  -6   71.76    2.19
  -2   4   6   66.16    2.19
  -2   4   6   65.73    2.18
   2   4  -6   61.16    2.18
   1   4  -6   37.77    1.26
   1   4  -6   36.50    1.26
   0  -4  -6    0.09    0.10
   0   4  -6    0.07    0.07
   0   4  -6    0.09    0.16
  -1  -4  -6  178.51    5.89
  -1   4  -6  188.44    5.91
  -1   4  -6  182.45    5.91
  -2   4  -6   14.22    0.57
   2   4   6   14.09    0.57
  -2   4  -6   15.23    0.55
  -3  -4  -6   16.35    0.58
  -3   4  -6   16.55    0.59
   3   4   6   15.52    0.61
  -3   4  -6   15.26    0.62
  -4  -4  -6    0.57    0.12
   4   4   6    0.73    0.17
  -4   4  -6    1.74    0.31
  -4   4  -6    0.66    0.15
   4   4   6    0.59    0.16
  -5  -4  -6    0.88    0.13
   5   4   6    1.05    0.26
   5   4   6    0.74    0.16
  -5   4  -6    1.20    0.16
  -6  -4  -6    0.07    0.08
  -6   4  -6    0.10    0.11
  -6   4  -6   -0.05    0.14
   6   4   6    0.34    0.16
   7   4   6    2.40    0.29
  -7   4  -6    2.36    0.25
  -8  -4  -6    0.88    0.15
  -8   4  -6    0.89    0.20
  -8   4  -6    0.98    0.15
  -8   4  -6    1.36    0.23
  -9  -4  -6    3.25    0.21
  -9   4  -6    3.50    0.24
   9   4   6    3.47    0.25
  -9   4  -6    3.25    0.24
 -10  -4  -6    1.45    0.15
 -10   4  -6    1.40    0.16
 -10   4  -6    1.18    0.18
 -11  -4  -6   10.26    0.40
 -11   4  -6    9.76    0.38
 -11   4  -6    9.82    0.38
 -12   5   6    1.87    0.17
  12   5  -6    2.06    0.15
 -11  -5   6    0.54    0.14
 -11   5   6    0.40    0.11
  11   5  -6    0.46    0.11
 -11   5   6    0.60    0.13
 -10  -5   6    0.01    0.11
 -10   5   6    0.07    0.10
  10   5  -6    0.24    0.08
 -10   5   6    0.12    0.08
  -9  -5   6   33.32    1.17
  -9   5   6   33.15    1.16
  -9   5   6   34.59    1.15
  -8  -5   6   17.96    0.70
   8   5  -6   19.61    0.71
  -8   5   6   18.78    0.71
  -8   5   6   19.30    0.70
  -8   5   6   18.89    0.70
  -7  -5   6    1.38    0.16
   7   5  -6    1.42    0.23
  -7   5   6    1.62    0.20
  -7   5   6    1.24    0.21
  -7   5   6    1.56    0.20
   7   5  -6    1.41    0.19
  -6  -5   6    2.50    0.19
   6   5  -6    2.59    0.21
  -6   5   6    2.15    0.23
  -6   5   6    2.50    0.23
  -6   5   6    2.09    0.20
   6   5  -6    1.82    0.23
  -5  -5   6    5.88    0.30
   5   5  -6    5.72    0.31
  -5   5   6    5.84    0.32
  -5   5   6    5.85    0.29
  -5   5   6    5.86    0.32
   5   5  -6    6.05    0.31
  -4  -5   6    0.07    0.09
   4   5  -6    0.00    0.19
  -4   5   6    0.22    0.14
  -4   5   6    0.16    0.12
   4   5  -6    0.04    0.10
  -4   5   6    0.31    0.11
   3   5  -6    9.77    0.41
  -3   5   6    9.18    0.45
  -3   5   6   10.13    0.42
  -3   5   6    9.80    0.40
   3   5  -6    9.36    0.42
   2   5  -6   17.34    0.67
   2   5  -6   17.66    0.65
  -2   5   6   17.28    0.65
  -2   5   6   17.99    0.66
   1   5  -6    2.22    0.19
   1   5  -6    1.69    0.25
   1   5  -6    2.30    0.20
  -1   5   6    1.63    0.19
  -1   5   6    2.52    0.21
   0  -5  -6    9.63    0.41
   0   5  -6   10.04    0.42
   0   5  -6   10.35    0.47
   0   5   6    9.73    0.42
   0   5  -6   10.59    0.42
   0   5   6   10.08    0.43
  -1  -5  -6    1.61    0.18
   1   5   6    1.54    0.21
   1   5   6    1.50    0.20
  -1   5  -6    1.42    0.27
  -1   5  -6    1.31    0.20
  -1   5  -6    1.76    0.17
  -2  -5  -6   41.73    1.34
  -2   5  -6   39.95    1.35
  -2   5  -6   39.38    1.35
   2   5   6   38.68    1.34
  -2   5  -6   37.22    1.36
   2   5   6   39.44    1.35
  -3  -5  -6    7.05    0.31
  -3   5  -6    6.81    0.32
   3   5   6    5.83    0.35
  -4  -5  -6    5.27    0.27
  -4   5  -6    5.32    0.29
   4   5   6    5.43    0.30
  -4   5  -6    4.99    0.31
  -5  -5  -6   28.12    0.94
   5   5   6   25.89    0.94
  -5   5  -6   25.45    0.95
  -5   5  -6   26.78    0.95
  -6  -5  -6   -0.02    0.08
  -6   5  -6   -0.10    0.13
   6   5   6    0.12    0.13
  -7  -5  -6    2.59    0.19
   7   5   6    2.57    0.26
  -7   5  -6    2.53    0.31
  -8  -5  -6    6.77    0.31
  -9  -5  -6   10.30    0.42
 -10  -5  -6    0.10    0.09
 -10   6   6    2.89    0.21
  10   6  -6    3.04    0.16
  -9  -6   6   26.09    0.89
   9   6  -6   24.65    0.87
  -9   6   6   25.03    0.87
  -8  -6   6   11.93    0.46
  -8   6   6   10.69    0.44
  -8   6   6   10.88    0.43
  -8   6   6   11.14    0.45
   8   6  -6   11.37    0.44
  -7  -6   6    2.38    0.19
  -7   6   6    2.63    0.23
   7   6  -6    2.80    0.24
  -7   6   6    2.65    0.20
  -7   6   6    2.65    0.24
  -6  -6   6    1.04    0.16
   6   6  -6    1.30    0.20
  -6   6   6    1.05    0.17
   6   6  -6    1.15    0.18
  -6   6   6    1.13    0.19
  -5  -6   6   40.80    1.49
  -5   6   6   44.54    1.50
  -5   6   6   45.60    1.48
   5   6  -6   44.81    1.48
   5   6  -6   42.82    1.49
  -4  -6   6    5.42    0.29
   4   6  -6    5.47    0.29
  -4   6   6    5.38    0.28
  -4   6   6    5.47    0.30
   4   6  -6    5.44    0.30
  -3  -6   6    0.79    0.16
   3   6  -6    0.62    0.14
   3   6  -6    0.61    0.12
  -3   6   6    0.52    0.11
  -3   6   6    0.40    0.11
  -2   6   6    0.87    0.17
  -2   6   6    1.25    0.19
   2   6  -6    1.17    0.21
   2   6  -6    0.88    0.17
   1   6  -6    1.64    0.19
  -1   6   6    1.99    0.19
   1   6  -6    1.97    0.23
  -1   6   6    1.91    0.21
   0   6   6   28.98    1.03
   0   6   6   29.35    1.01
   0   6  -6   28.93    1.03
   0   6  -6   28.77    1.02
  -1  -6  -6   61.77    2.06
   1   6   6   61.51    2.06
   1   6   6   61.85    2.07
  -1   6  -6   62.80    2.07
  -1   6  -6   62.21    2.07
  -2   6  -6    3.95    0.31
  -2   6  -6    3.83    0.25
   2   6   6    3.79    0.25
   2   6   6    3.67    0.24
  -2   6  -6    3.64    0.26
  -3  -6  -6    3.73    0.24
  -3   6  -6    4.07    0.26
  -3   6  -6    3.79    0.27
   3   6   6    4.05    0.26
  -3   6  -6    3.68    0.33
   3   6   6    4.05    0.27
  -4  -6  -6    0.29    0.10
   4   6   6    0.43    0.12
  -4   6  -6    0.38    0.12
  -4   6  -6    0.23    0.13
  -5  -6  -6    1.69    0.18
  -5   6  -6    2.12    0.25
  -5   6  -6    1.59    0.25
   5   6   6    2.07    0.20
  -6  -6  -6    4.51    0.25
   6   6   6    4.35    0.26
  -7  -6  -6    1.09    0.16
   7   6   6    1.38    0.18
  -8  -6  -6    0.55    0.14
  -9  -6  -6    0.12    0.12
  -8  -7   6    0.52    0.14
   8   7  -6    0.85    0.11
  -8   7   6    0.83    0.13
  -8   7   6    0.92    0.18
  -7  -7   6    0.39    0.10
  -7   7   6    0.36    0.08
   7   7  -6    0.51    0.11
  -7   7   6    0.33    0.09
  -6   7   6    7.48    0.32
   6   7  -6    7.17    0.32
   6   7  -6    7.41    0.31
  -6   7   6    7.26    0.31
  -5  -7   6    0.57    0.15
   5   7  -6    0.58    0.14
   5   7  -6    0.79    0.15
  -5   7   6    1.00    0.15
  -5   7   6    0.75    0.13
  -4  -7   6    0.78    0.15
  -4   7   6    1.16    0.16
  -4   7   6    0.79    0.13
   4   7  -6    0.69    0.15
   4   7  -6    0.72    0.16
  -3  -7   6    1.44    0.17
  -3   7   6    1.49    0.18
   3   7  -6    1.47    0.17
  -3   7   6    1.53    0.15
  -2  -7   6    2.47    0.20
  -2   7   6    2.53    0.21
  -2   7   6    2.68    0.19
   2   7  -6    2.69    0.20
   2   7  -6    2.89    0.22
  -1  -7   6    0.69    0.17
  -1   7   6    1.11    0.17
   1   7  -6    1.11    0.19
   1   7  -6    0.91    0.17
  -1   7   6    1.17    0.16
   0   7  -6    1.64    0.18
   0   7   6    1.94    0.18
   0   7   6    1.41    0.19
   0   7  -6    1.83    0.21
  -1   7  -6    4.45    0.25
   1   7   6    4.52    0.26
   1   7   6    4.60    0.25
  -1   7  -6    3.82    0.36
   2   7   6   10.33    0.47
   2   7   6    9.18    0.38
  -2   7  -6    8.91    0.42
  -3   7  -6    0.73    0.15
   3   7   6    0.39    0.10
   3   7   6    0.57    0.12
  -4  -7  -6    0.01    0.15
  -4   7  -6    0.10    0.09
   4   7   6   -0.01    0.08
  -5  -7  -6   33.28    1.13
  -5   7  -6   32.57    1.11
   5   7   6   33.30    1.12
  -6  -7  -6    0.89    0.20
   6   7   6    0.73    0.14
   6   8  -6    2.41    0.14
  -6   8   6    2.53    0.14
  -6   8   6    2.23    0.15
   5   8  -6    1.44    0.14
  -5   8   6    0.90    0.12
  -4  -8   6    0.64    0.16
   4   8  -6    0.48    0.08
   4   8  -6    0.74    0.12
  -4   8   6    0.75    0.12
  -4   8   6    0.74    0.10
  -3  -8   6   -0.04    0.10
  -3   8   6   -0.03    0.06
  -3   8   6    0.18    0.07
   3   8  -6    0.03    0.08
   3   8  -6    0.04    0.06
  -2  -8   6   11.22    0.43
   2   8  -6   10.40    0.40
   2   8  -6    9.91    0.40
  -2   8   6   10.60    0.39
  -2   8   6   10.27    0.40
  -1  -8   6    0.41    0.13
   1   8  -6    0.38    0.10
   1   8  -6    0.53    0.11
  -1   8   6    0.51    0.10
  -1   8   6    0.69    0.12
   0  -8   6    0.04    0.14
   0   8   6    0.30    0.08
   0   8  -6    0.25    0.07
   0   8  -6    0.18    0.10
   0   8   6    0.06    0.06
  -1   8  -6    3.39    0.18
   1   8   6    3.40    0.18
  -1   8  -6    2.44    0.24
   1   8   6    3.30    0.18
   2   8   6    0.30    0.08
  -2   8  -6    0.20    0.07
  -3   8  -6    4.08    0.21
   3   8   6    4.24    0.20
   4   8   6    3.83    0.19
  -4   8  -6    3.73    0.20
 -14   0   7   -0.01    0.07
 -14   0   7    0.06    0.08
 -13   0   7   14.05    0.52
 -13   0   7   13.38    0.52
  13   0  -7   13.73    0.51
 -12   0   7   -0.21    0.10
 -12   0   7   -0.17    0.09
 -11   0   7    4.06    0.26
 -11   0   7    3.72    0.25
 -10   0   7    0.17    0.09
 -10   0   7    0.12    0.11
  -9   0   7    1.91    0.22
  -9   0   7    1.57    0.20
  -9   0   7    2.16    0.23
  -8   0   7    0.00    0.12
  -8   0   7    0.12    0.13
  -8   0   7   -0.08    0.12
  -7   0   7   36.47    1.28
  -7   0   7   38.35    1.28
   5   0  -7  102.42    3.38
  -5   0   7  108.03    3.38
   4   0  -7    0.01    0.02
  -4   0   7   -0.01    0.03
  -3   0   7    2.36    0.11
   3   0  -7    2.30    0.11
  -2   0   7    0.00    0.02
   2   0  -7    0.02    0.02
  -1   0   7  899.35   28.38
   1   0  -7  870.29   28.40
   0   0  -7    0.01    0.02
   0   0   7   -0.01    0.02
  -1   0  -7  122.34    3.93
   2   0   7    0.00    0.03
  -2   0  -7    0.04    0.03
   3   0   7  137.46    4.30
  -3   0  -7  133.10    4.30
  -3   0  -7  130.53    4.30
  -4   0  -7    0.04    0.04
  -4   0  -7   -0.05    0.06
   4   0   7    0.02    0.05
  -5   0  -7   21.47    0.74
   5   0   7   20.84    0.73
  -5   0  -7   21.18    0.73
  -6   0  -7    0.00    0.11
  -6   0  -7    0.07    0.07
  -6   0  -7    0.14    0.10
  -7   0  -7    2.23    0.21
  -7   0  -7    2.44    0.21
  -7   0  -7    1.98    0.16
  -8   0  -7    0.03    0.08
  -8   0  -7    0.00    0.10
  -8   0  -7    0.11    0.09
  -9   0  -7   47.34    1.62
  -9   0  -7   48.00    1.61
  -9   0  -7   48.15    1.62
 -10   0  -7    0.26    0.10
 -10   0  -7    0.15    0.09
 -10   0  -7    0.17    0.09
 -11   0  -7    1.71    0.17
 -11   0  -7    1.66    0.19
 -12   0  -7    0.06    0.13
 -12   0  -7   -0.01    0.07
 -12   0  -7   -0.09    0.06
 -13   0  -7    2.59    0.15
 -14  -1   7    1.07    0.16
  14   1  -7    1.07    0.19
 -14   1   7    1.02    0.11
 -14   1   7    0.84    0.12
  13  -1  -7    4.00    0.22
 -13  -1   7    3.91    0.24
 -13  -1   7    3.67    0.22
 -13   1   7    4.03    0.22
  13   1  -7    4.16    0.22
 -13   1   7    4.05    0.22
 -12  -1   7    8.81    0.39
 -12  -1   7    9.03    0.42
 -12   1   7    8.68    0.40
 -12   1   7   10.05    0.47
 -11  -1   7   20.33    0.75
 -11  -1   7   20.32    0.75
 -11   1   7   19.77    0.75
  11   1  -7   20.25    0.75
 -10  -1   7    1.43    0.24
 -10  -1   7    1.32    0.20
 -10   1   7    1.54    0.19
 -10   1   7    1.25    0.21
 -10   1   7    1.38    0.18
  -9  -1   7    4.90    0.29
  -9  -1   7    4.34    0.30
  -9   1   7    4.06    0.32
  -8  -1   7   25.06    0.88
  -8  -1   7   24.58    0.90
  -8  -1   7   24.29    0.90
  -8   1   7   25.12    0.90
  -8   1   7   25.96    0.90
  -8   1   7   25.78    0.89
  -7  -1   7   21.96    0.78
  -7   1   7   22.58    0.81
  -7   1   7   22.39    0.81
  -7   1   7   22.53    0.80
  -6  -1   7   27.77    0.95
   6  -1  -7   28.29    0.93
   5  -1  -7    6.40    0.25
  -5  -1   7    6.82    0.25
  -5   1   7    6.45    0.26
  -4  -1   7    0.59    0.08
   4  -1  -7    0.61    0.07
   4   1  -7    0.61    0.07
  -3  -1   7    9.52    0.34
   3  -1  -7    9.91    0.34
  -3   1   7    8.79    0.35
   3   1  -7    9.78    0.34
   2  -1  -7   33.36    1.10
  -2  -1   7   33.09    1.11
   2   1  -7   32.38    1.10
  -2   1   7   34.31    1.10
   1  -1  -7   78.13    2.61
  -1  -1   7   84.56    2.61
  -1   1   7   82.07    2.61
   1   1  -7   78.50    2.61
   0  -1  -7   56.20    1.85
   0   1  -7   56.68    1.85
   0   1   7   57.42    1.85
   1  -1   7   16.56    0.56
  -1  -1  -7   16.13    0.55
   1   1   7   16.19    0.56
  -1   1  -7   15.67    0.55
  -2  -1  -7    5.27    0.20
   2  -1   7    4.43    0.20
   2   1   7    4.64    0.20
  -2   1  -7    4.54    0.20
  -3  -1  -7   71.20    2.30
   3  -1   7   72.90    2.31
  -3  -1  -7   67.64    2.30
  -3   1  -7   69.60    2.31
  -3   1  -7   71.49    2.31
   3   1   7   72.70    2.31
   4  -1   7   90.67    2.89
  -4  -1  -7   88.10    2.88
  -4  -1  -7   89.78    2.88
   4   1   7   90.67    2.88
  -4   1  -7   87.13    2.88
  -4   1  -7   86.59    2.88
  -5  -1  -7    8.32    0.32
   5  -1   7    7.51    0.34
  -5  -1  -7    7.88    0.32
  -5   1  -7    8.61    0.33
   5   1   7    7.62    0.33
  -6  -1  -7    5.67    0.29
  -6  -1  -7    5.75    0.32
  -6  -1  -7    5.79    0.26
  -6   1  -7    5.81    0.26
  -6   1  -7    5.43    0.29
  -6   1  -7    5.52    0.30
  -7  -1  -7   55.40    1.84
  -7  -1  -7   55.44    1.85
  -7  -1  -7   52.78    1.84
  -7   1  -7   54.67    1.84
  -7   1  -7   57.32    1.84
  -7   1  -7   55.34    1.84
  -8  -1  -7   28.41    1.05
  -8  -1  -7   29.71    1.02
  -8  -1  -7   28.80    1.02
  -8   1  -7   28.83    1.02
  -8   1  -7   28.31    1.01
  -8   1  -7   30.03    1.02
  -9  -1  -7    5.40    0.27
  -9  -1  -7    4.71    0.28
  -9   1  -7    4.71    0.26
  -9   1  -7    4.70    0.27
 -10  -1  -7   18.65    0.67
 -10  -1  -7   17.17    0.67
 -10  -1  -7   18.79    0.68
 -10   1  -7   18.12    0.67
 -10   1  -7   17.25    0.67
 -10   1  -7   18.07    0.66
 -11  -1  -7    2.64    0.20
 -11  -1  -7    2.67    0.21
 -11  -1  -7    2.81    0.19
 -11   1  -7    2.81    0.23
 -11   1  -7    2.48    0.18
 -11   1  -7    2.54    0.19
 -12  -1  -7    2.96    0.20
 -12  -1  -7    3.43    0.23
 -12   1  -7    2.95    0.17
 -12   1  -7    3.19    0.17
 -14   2   7   13.24    0.47
 -13   2   7   12.62    0.48
 -13   2   7   12.76    0.48
  13   2  -7   12.96    0.48
 -12  -2   7    0.21    0.13
 -12   2   7    0.01    0.08
  12   2  -7    0.06    0.09
 -12   2   7    0.16    0.09
 -11  -2   7   11.84    0.51
 -11   2   7   12.07    0.50
 -11   2   7   12.11    0.49
  11   2  -7   12.58    0.50
 -11   2   7   12.20    0.50
 -10  -2   7    7.40    0.40
 -10  -2   7    7.84    0.40
 -10   2   7    8.71    0.39
 -10   2   7    8.52    0.37
 -10   2   7    8.29    0.39
  10   2  -7    9.00    0.39
  -9  -2   7    1.10    0.20
  -9   2   7    0.86    0.18
  -9   2   7    0.90    0.20
   9   2  -7    0.84    0.14
  -9   2   7    0.89    0.17
  -8  -2   7   47.94    1.71
  -8  -2   7   51.47    1.70
  -8   2   7   51.04    1.71
  -8   2   7   52.42    1.72
  -8   2   7   50.66    1.70
  -7  -2   7    0.36    0.09
  -7   2   7    0.13    0.12
  -7   2   7    0.38    0.17
  -7   2   7    0.31    0.12
  -7   2   7    0.22    0.13
   6  -2  -7    3.40    0.23
  -6  -2   7    3.60    0.21
  -6   2   7    3.47    0.24
  -6   2   7    3.83    0.29
  -5  -2   7    0.61    0.13
   5  -2  -7    0.76    0.11
  -5  -2   7    0.74    0.14
  -5  -2   7    0.66    0.11
   4  -2  -7   31.06    1.06
  -4  -2   7   31.63    1.06
  -4   2   7   32.28    1.07
   3  -2  -7   18.33    0.65
  -3  -2   7   19.06    0.65
   3   2  -7   18.08    0.65
  -3   2   7   19.29    0.66
   2  -2  -7    0.67    0.08
  -2  -2   7    0.65    0.09
   2   2  -7    0.63    0.08
  -2   2   7    0.77    0.09
   1  -2  -7   22.11    0.73
  -1  -2   7   21.00    0.73
  -1   2   7   22.51    0.74
   1   2  -7   20.07    0.73
   0  -2  -7   33.78    1.11
   0  -2   7   33.41    1.11
   0   2   7   31.62    1.11
   0   2  -7   34.24    1.12
   1  -2   7   44.97    1.41
  -1  -2  -7   44.07    1.41
   1   2   7   39.38    1.41
  -1   2  -7   41.46    1.40
   2  -2   7   13.02    0.49
  -2  -2  -7   12.53    0.48
  -2   2  -7   13.83    0.49
   2   2   7   14.11    0.50
  -2   2  -7   13.99    0.49
   3  -2   7  144.39    4.59
  -3  -2  -7  141.47    4.58
  -3  -2  -7  140.43    4.57
  -3   2  -7  143.43    4.58
   3   2   7  140.16    4.58
   4  -2   7    0.26    0.10
  -4  -2  -7    0.24    0.08
  -4  -2  -7    0.36    0.07
  -4   2  -7    0.26    0.08
   4   2   7    0.28    0.10
  -5  -2  -7    4.61    0.22
  -5  -2  -7    3.81    0.27
  -5   2  -7    4.09    0.28
  -5   2  -7    4.59    0.22
  -6  -2  -7    0.58    0.11
  -6  -2  -7    0.73    0.20
  -6  -2  -7    0.94    0.19
  -6   2  -7    0.49    0.13
  -6   2  -7    0.63    0.13
  -6   2  -7    0.54    0.12
  -7  -2  -7    1.62    0.28
  -7  -2  -7    1.03    0.14
  -7  -2  -7    1.03    0.19
  -7   2  -7    1.21    0.20
  -7   2  -7    1.13    0.18
  -7   2  -7    1.00    0.15
  -8  -2  -7   12.06    0.47
  -8  -2  -7   11.19    0.50
  -8  -2  -7   11.74    0.48
  -8   2  -7   11.76    0.48
  -8   2  -7   12.17    0.48
  -8   2  -7   11.18    0.47
  -9  -2  -7   23.54    0.89
  -9  -2  -7   25.67    0.89
  -9  -2  -7   23.62    0.89
  -9   2  -7   23.62    0.89
  -9   2  -7   26.38    0.89
  -9   2  -7   26.44    0.90
 -10  -2  -7    0.70    0.15
 -10  -2  -7    0.89    0.23
 -10   2  -7    0.77    0.15
 -10   2  -7    0.81    0.15
 -10   2  -7    0.66    0.14
 -11  -2  -7    0.00    0.09
 -11   2  -7    0.12    0.08
 -11   2  -7    0.14    0.15
 -11   2  -7    0.01    0.07
 -12  -2  -7    4.72    0.25
 -12   2  -7    4.31    0.21
 -12   2  -7    4.28    0.21
 -13   2  -7    0.45    0.09
 -13   3   7   -0.08    0.05
 -13   3   7    0.04    0.06
 -12   3   7    2.33    0.17
 -12   3   7    2.46    0.18
  12   3  -7    2.41    0.18
 -11  -3   7    0.04    0.15
 -11   3   7    0.05    0.11
 -11   3   7    0.13    0.08
  11   3  -7    0.10    0.11
 -10  -3   7   14.89    0.62
 -10   3   7   16.21    0.62
 -10   3   7   16.37    0.62
 -10   3   7   16.45    0.63
  10   3  -7   16.54    0.62
  -9  -3   7    0.75    0.17
  -9   3   7    0.59    0.13
  -9   3   7    0.96    0.20
   9   3  -7    0.80    0.18
  -9   3   7    0.71    0.17
  -8  -3   7    0.72    0.16
  -8   3   7    0.29    0.12
  -8   3   7    0.77    0.19
   8   3  -7    0.80    0.19
  -8   3   7    0.57    0.12
  -7  -3   7    7.01    0.32
  -7   3   7    6.55    0.33
  -7   3   7    7.03    0.36
   7   3  -7    7.29    0.34
   7   3  -7    6.53    0.38
  -7   3   7    7.05    0.36
  -7   3   7    7.26    0.36
  -6  -3   7   29.92    1.01
  -6   3   7   28.98    1.01
  -6   3   7   29.91    1.03
   6   3  -7   29.77    1.02
  -6   3   7   27.76    1.01
   6   3  -7   28.17    1.02
  -6   3   7   29.20    1.03
   5  -3  -7    1.28    0.22
  -5  -3   7    1.34    0.14
   5   3  -7    1.70    0.22
  -5   3   7    1.69    0.21
  -5   3   7    1.15    0.20
  -5   3   7    1.42    0.22
  -4  -3   7    5.77    0.29
   4  -3  -7    6.12    0.29
  -4  -3   7    5.22    0.32
  -3  -3   7    0.26    0.10
   3  -3  -7    0.70    0.14
   3   3  -7    0.42    0.09
   2  -3  -7   16.62    0.59
  -2  -3   7   15.06    0.60
   2   3  -7   16.52    0.58
  -1  -3   7   31.18    1.05
   1  -3  -7   26.85    0.97
   1   3  -7   27.04    0.96
   0  -3  -7    0.77    0.12
   0   3  -7    0.58    0.11
  -1  -3  -7   11.83    0.44
  -1  -3  -7   10.87    0.42
  -1   3  -7   11.44    0.43
  -2  -3  -7  144.59    4.68
  -2  -3  -7  141.28    4.65
  -2   3  -7  147.57    4.66
  -3  -3  -7    3.42    0.24
  -3  -3  -7    4.08    0.20
  -3   3  -7    3.63    0.20
  -4  -3  -7    0.59    0.11
  -4  -3  -7    0.49    0.14
  -4   3  -7    0.51    0.13
  -5  -3  -7   20.83    0.73
  -5   3  -7   20.54    0.74
  -5   3  -7   20.23    0.75
  -6  -3  -7   10.46    0.41
  -6   3  -7   10.45    0.42
  -6   3  -7    9.49    0.45
  -6   3  -7    9.80    0.43
  -7  -3  -7    9.31    0.39
  -7   3  -7    9.26    0.41
  -7   3  -7    8.97    0.41
  -7   3  -7    9.29    0.40
  -8  -3  -7    0.21    0.09
  -8   3  -7    0.08    0.09
  -8   3  -7    0.38    0.12
  -8   3  -7    0.21    0.12
  -9  -3  -7    6.31    0.32
  -9   3  -7    6.93    0.32
  -9   3  -7    6.56    0.34
  -9   3  -7    7.02    0.33
 -10  -3  -7   11.28    0.46
 -10   3  -7   11.82    0.45
 -10   3  -7   11.50    0.46
 -10   3  -7   11.42    0.49
 -11  -3  -7    1.43    0.16
 -11   3  -7    1.60    0.15
 -11   3  -7    1.57    0.14
  12   3   7    0.19    0.10
 -12   3  -7    0.03    0.07
 -12   3  -7    0.06    0.10
 -13   4   7    0.18    0.06
  13   4  -7    0.33    0.09
 -12   4   7    6.92    0.30
 -12   4   7    7.26    0.29
  12   4  -7    6.95    0.29
 -11  -4   7    3.77    0.27
 -11   4   7    4.09    0.24
  11   4  -7    3.95    0.22
 -11   4   7    3.99    0.22
 -11   4   7    3.89    0.23
 -10  -4   7    0.45    0.12
 -10   4   7    0.20    0.12
  10   4  -7    0.14    0.09
 -10   4   7    0.33    0.09
  -9  -4   7    0.59    0.16
  -9   4   7    0.73    0.17
  -9   4   7    0.83    0.19
  -9   4   7    0.46    0.13
  -9   4   7    0.27    0.10
   9   4  -7    0.56    0.12
  -8   4   7  103.62    3.39
  -8   4   7  105.25    3.40
  -8   4   7  104.70    3.39
   8   4  -7  102.63    3.40
  -8   4   7  102.83    3.41
  -7  -4   7    1.73    0.18
   7   4  -7    2.06    0.21
  -7   4   7    1.75    0.22
  -7   4   7    1.65    0.20
  -7   4   7    1.65    0.26
   7   4  -7    1.36    0.25
  -7   4   7    1.63    0.22
  -6  -4   7    1.09    0.15
  -6   4   7    1.28    0.19
  -6   4   7    0.98    0.22
   6   4  -7    1.08    0.21
   6   4  -7    0.94    0.22
  -6   4   7    1.11    0.20
  -5  -4   7    1.85    0.16
   5   4  -7    1.61    0.21
   5   4  -7    1.79    0.21
  -5   4   7    1.67    0.21
  -5   4   7    1.33    0.18
  -5   4   7    1.39    0.22
  -4   4   7    8.75    0.37
   4   4  -7    8.20    0.39
  -4   4   7    8.84    0.39
   4   4  -7    8.31    0.38
  -4   4   7    8.76    0.39
   3   4  -7   11.31    0.46
   3   4  -7   11.98    0.48
  -3   4   7   11.51    0.47
  -3   4   7   10.58    0.48
  -3   4   7   11.38    0.45
  -2   4   7   15.48    0.59
  -2   4   7   15.93    0.60
   2   4  -7   17.02    0.60
   2   4  -7   15.70    0.60
   2   4  -7   15.69    0.62
   1   4  -7    0.34    0.09
  -1   4   7    0.18    0.13
  -1   4   7    0.09    0.12
   1   4  -7    0.18    0.11
   0  -4  -7   36.25    1.24
   0   4  -7   35.79    1.26
   0   4   7   36.55    1.27
   0   4  -7   40.17    1.27
  -1  -4  -7   26.03    0.90
   1   4   7   26.27    0.93
  -1   4  -7   25.58    0.92
  -1   4  -7   26.74    0.91
  -2  -4  -7    3.30    0.20
   2   4   7    3.38    0.28
  -2   4  -7    2.83    0.27
  -2   4  -7    3.29    0.20
  -3  -4  -7    8.34    0.34
  -3   4  -7    7.99    0.35
   3   4   7    7.12    0.39
   3   4   7    8.05    0.39
  -3   4  -7    8.05    0.40
  -4  -4  -7    0.00    0.07
   4   4   7   -0.12    0.15
  -4   4  -7    0.17    0.09
   4   4   7    0.29    0.15
  -5  -4  -7    9.54    0.39
  -5   4  -7    8.84    0.45
   5   4   7    9.89    0.42
  -5   4  -7    9.51    0.40
   5   4   7    8.85    0.44
  -6  -4  -7   14.72    0.55
   6   4   7   13.43    0.58
  -6   4  -7   15.58    0.56
   6   4   7   13.41    0.56
  -6   4  -7   13.89    0.57
  -7  -4  -7   23.49    0.90
   7   4   7   26.22    0.90
  -7   4  -7   26.27    0.91
  -7   4  -7   25.79    0.91
  -8  -4  -7    1.95    0.18
  -8   4  -7    1.52    0.24
  -8   4  -7    2.20    0.23
   8   4   7    2.15    0.23
  -8   4  -7    2.29    0.21
  -9  -4  -7    0.48    0.13
  -9   4  -7    0.63    0.13
   9   4   7    0.48    0.12
  -9   4  -7    0.93    0.17
 -10  -4  -7    1.01    0.17
 -10   4  -7    0.92    0.13
 -10   4  -7    1.19    0.15
 -11  -4  -7    0.66    0.14
 -11   4  -7    0.26    0.09
 -12   5   7    0.26    0.08
  12   5  -7    0.17    0.07
 -11   5   7    0.04    0.07
  11   5  -7   -0.03    0.07
 -11   5   7    0.15    0.10
 -10  -5   7    2.99    0.22
  10   5  -7    2.78    0.19
 -10   5   7    2.96    0.21
 -10   5   7    2.98    0.19
  -9  -5   7   -0.03    0.09
  -9   5   7    0.18    0.10
  -9   5   7    0.22    0.09
  -9   5   7    0.92    0.21
   9   5  -7    0.27    0.13
  -8  -5   7   10.93    0.47
  -8   5   7   12.01    0.47
  -8   5   7   11.50    0.47
   8   5  -7   11.43    0.47
  -8   5   7   11.68    0.48
  -7  -5   7    0.08    0.09
  -7   5   7    0.01    0.11
  -7   5   7    0.11    0.11
   7   5  -7   -0.07    0.09
   7   5  -7    0.24    0.13
  -7   5   7    0.36    0.11
  -6   5   7    2.96    0.22
   6   5  -7    3.12    0.24
  -6   5   7    3.21    0.24
   6   5  -7    2.78    0.23
  -6   5   7    3.33    0.25
  -5  -5   7    0.09    0.09
  -5   5   7    0.16    0.11
  -5   5   7    0.18    0.09
   5   5  -7    0.17    0.12
   5   5  -7    0.09    0.11
  -5   5   7    0.00    0.12
  -4   5   7   39.85    1.39
  -4   5   7   41.45    1.38
   4   5  -7   40.33    1.38
  -4   5   7   38.21    1.49
   4   5  -7   42.13    1.39
  -3   5   7   10.45    0.46
   3   5  -7   10.29    0.43
   3   5  -7   11.28    0.45
  -3   5   7   10.17    0.48
  -3   5   7    8.76    0.48
  -2   5   7    1.31    0.20
  -2   5   7    1.42    0.18
  -2   5   7    1.35    0.28
   2   5  -7    1.67    0.19
   2   5  -7    1.65    0.23
  -1   5   7    6.41    0.31
  -1   5   7    5.78    0.29
   1   5  -7    5.22    0.29
   1   5  -7    5.34    0.34
   1   5  -7    6.11    0.30
   0   5   7   24.99    0.88
   0   5  -7   24.56    0.88
   0   5  -7   25.04    0.89
   0   5  -7   24.53    0.90
   0   5   7   24.39    0.87
  -1  -5  -7   37.15    1.25
   1   5   7   35.83    1.25
  -1   5  -7   36.83    1.27
   1   5   7   37.64    1.27
  -1   5  -7   37.81    1.26
  -1   5  -7   35.85    1.28
  -2  -5  -7    1.60    0.18
  -2   5  -7    1.59    0.20
  -2   5  -7    1.65    0.18
   2   5   7    1.42    0.23
   2   5   7    1.69    0.21
  -3  -5  -7    4.30    0.24
  -3   5  -7    4.62    0.26
  -3   5  -7    4.28    0.28
   3   5   7    4.30    0.28
   3   5   7    3.74    0.32
  -4  -5  -7    0.59    0.14
  -4   5  -7    0.59    0.14
   4   5   7    0.43    0.14
  -4   5  -7    0.71    0.13
   5   5   7    1.51    0.24
  -5   5  -7    1.61    0.24
  -6  -5  -7    5.33    0.28
   6   5   7    5.78    0.33
  -6   5  -7    5.30    0.31
  -7  -5  -7    0.77    0.15
  -7   5  -7    0.65    0.16
  -8  -5  -7    0.08    0.08
  -9  -5  -7    0.25    0.09
 -10  -5  -7   27.67    0.95
 -10   6   7    2.02    0.17
  10   6  -7    2.27    0.14
  -9  -6   7    5.29    0.27
  -9   6   7    5.18    0.25
   9   6  -7    4.98    0.24
  -8  -6   7   16.63    0.61
  -8   6   7   15.64    0.59
   8   6  -7   15.62    0.59
  -8   6   7   15.96    0.59
  -8   6   7   16.49    0.59
  -7  -6   7    3.44    0.23
  -7   6   7    3.44    0.25
   7   6  -7    3.66    0.24
  -7   6   7    3.58    0.23
  -7   6   7    3.28    0.21
  -6  -6   7    1.31    0.16
  -6   6   7    1.38    0.18
  -6   6   7    1.40    0.17
   6   6  -7    0.91    0.19
   6   6  -7    1.06    0.18
  -5  -6   7    1.65    0.17
   5   6  -7    2.03    0.20
  -5   6   7    1.99    0.18
   5   6  -7    1.98    0.20
  -5   6   7    1.66    0.27
  -5   6   7    1.89    0.21
  -4  -6   7    4.32    0.26
  -4   6   7    4.63    0.25
   4   6  -7    4.37    0.26
  -4   6   7    4.38    0.28
   4   6  -7    4.87    0.28
  -3  -6   7    6.51    0.33
   3   6  -7    6.33    0.34
   3   6  -7    6.62    0.32
  -3   6   7    6.97    0.32
  -3   6   7    7.06    0.34
   2   6  -7    1.28    0.18
  -2   6   7    1.59    0.18
  -2   6   7    1.22    0.19
   2   6  -7    1.37    0.21
   1   6  -7    6.14    0.34
  -1   6   7    5.92    0.30
  -1   6   7    5.46    0.31
   1   6  -7    6.00    0.31
   0   6  -7  109.59    3.51
   0   6   7  106.68    3.51
   0   6   7  106.90    3.50
   0   6  -7  105.83    3.50
  -1   6  -7   20.07    0.82
  -1   6  -7   22.07    0.80
   1   6   7   21.65    0.77
   1   6   7   21.00    0.78
  -1   6  -7   22.27    0.79
  -2  -6  -7    4.72    0.29
  -2   6  -7    4.82    0.28
   2   6   7    4.60    0.27
   2   6   7    4.66    0.27
  -2   6  -7    4.66    0.35
  -2   6  -7    4.68    0.28
  -3  -6  -7    1.37    0.19
   3   6   7    1.52    0.20
  -3   6  -7    1.45    0.20
  -3   6  -7    1.71    0.20
   3   6   7    1.35    0.23
  -4  -6  -7   10.63    0.44
   4   6   7   11.39    0.46
  -4   6  -7   10.85    0.46
  -4   6  -7   10.95    0.47
  -5  -6  -7    4.13    0.25
  -5   6  -7    4.30    0.29
  -5   6  -7    4.13    0.29
   5   6   7    4.46    0.26
  -6  -6  -7   30.34    1.05
   6   6   7   30.17    1.04
   7   6   7    2.78    0.27
  -8  -6  -7    4.75    0.24
   8   7  -7    8.43    0.32
  -8   7   7    7.70    0.31
  -8   7   7    7.81    0.32
  -7  -7   7    2.78    0.19
  -7   7   7    2.73    0.17
   7   7  -7    2.78    0.17
  -7   7   7    2.64    0.17
  -6  -7   7    3.97    0.25
  -6   7   7    4.12    0.21
   6   7  -7    4.01    0.22
  -6   7   7    3.77    0.22
   6   7  -7    3.67    0.21
  -5  -7   7    0.40    0.11
   5   7  -7    0.37    0.09
  -5   7   7    0.32    0.09
   5   7  -7    0.19    0.09
  -5   7   7    0.28    0.08
  -4  -7   7   16.32    0.61
   4   7  -7   16.06    0.59
  -4   7   7   16.45    0.61
   4   7  -7   16.05    0.61
  -4   7   7   15.77    0.59
  -3  -7   7    0.27    0.10
   3   7  -7    0.40    0.10
  -2  -7   7    3.89    0.24
   2   7  -7    3.88    0.23
  -2   7   7    3.99    0.23
  -2   7   7    3.77    0.24
  -1  -7   7    4.93    0.27
  -1   7   7    5.11    0.27
   1   7  -7    4.46    0.26
  -1   7   7    4.83    0.25
   0   7   7    0.46    0.11
   0   7   7    0.77    0.14
   0   7  -7    0.98    0.24
   0   7  -7    0.62    0.16
  -1   7  -7   17.78    0.69
  -1   7  -7   17.33    0.67
   1   7   7   18.77    0.67
  -2   7  -7    0.12    0.17
   2   7   7    0.10    0.09
  -2   7  -7    0.07    0.09
   2   7   7    0.14    0.10
   3   7   7    6.25    0.30
   3   7   7    6.12    0.31
  -3   7  -7    6.39    0.30
  -4   7  -7    0.63    0.11
   4   7   7    0.71    0.15
  -5  -7  -7    6.79    0.35
   5   7   7    6.34    0.29
   6   7   7    2.73    0.21
  -6   8   7    1.48    0.12
   6   8  -7    1.36    0.12
  -6   8   7    1.33    0.12
  -5   8   7    1.12    0.12
   5   8  -7    1.09    0.12
   5   8  -7    1.02    0.13
  -5   8   7    0.95    0.10
  -4  -8   7   -0.05    0.10
   4   8  -7   -0.06    0.07
  -4   8   7    0.06    0.05
  -4   8   7    0.03    0.06
   4   8  -7   -0.02    0.06
  -3  -8   7    0.89    0.17
  -3   8   7    0.91    0.11
   3   8  -7    1.03    0.11
  -3   8   7    0.95    0.12
   3   8  -7    0.96    0.13
  -2  -8   7    0.47    0.12
  -2   8   7    0.67    0.12
   2   8  -7    0.73    0.14
   2   8  -7    0.68    0.12
  -2   8   7    0.57    0.11
  -1  -8   7    0.50    0.12
  -1   8   7    0.65    0.11
  -1   8   7    0.50    0.12
   1   8  -7    0.50    0.11
   1   8  -7    0.68    0.15
   0  -8   7    2.78    0.23
   0   8  -7    2.63    0.16
   0   8  -7    2.07    0.28
   0   8   7    2.93    0.17
   0   8   7    2.68    0.16
   1   8   7    3.96    0.20
   1   8   7    3.75    0.19
  -1   8  -7    4.13    0.20
   2   8   7    0.43    0.10
   2   8   7    0.21    0.07
  -2   8  -7    0.38    0.08
  -3   8  -7    4.18    0.20
   4   8   7    1.65    0.14
 -14   0   8    1.24    0.15
  14   0  -8    1.33    0.16
 -14   0   8    1.43    0.14
 -13   0   8   -0.02    0.07
  13   0  -8    0.00    0.09
 -13   0   8   -0.03    0.08
 -12   0   8    2.74    0.21
 -11   0   8   -0.13    0.10
 -11   0   8    0.05    0.11
 -10   0   8   36.86    1.28
 -10   0   8   36.79    1.27
  -9   0   8    0.14    0.12
  -9   0   8    0.00    0.12
  -9   0   8    0.06    0.17
  -8   0   8    0.81    0.20
  -8   0   8    1.30    0.22
  -8   0   8    1.20    0.19
  -7   0   8    0.12    0.13
  -7   0   8   -0.01    0.13
   6   0  -8   62.64    2.02
   5   0  -8    0.02    0.03
  -5   0   8    0.01    0.04
   4   0  -8   11.94    0.43
  -4   0   8   12.86    0.44
   3   0  -8   -0.02    0.03
   2   0  -8  106.27    3.59
  -2   0   8  116.91    3.60
   1   0  -8    0.01    0.02
  -1   0   8   -0.01    0.02
   0   0   8 1000.00   31.18
   0   0  -8  942.27   31.14
  -1   0  -8    0.00    0.03
   1   0   8    0.02    0.03
   2   0   8    8.48    0.32
  -2   0  -8    8.42    0.32
   3   0   8    0.06    0.05
  -3   0  -8    0.00    0.04
  -3   0  -8    0.07    0.06
   4   0   8  161.15    5.26
  -4   0  -8  161.57    5.26
  -4   0  -8  167.65    5.26
   5   0   8    0.02    0.09
  -5   0  -8    0.04    0.07
  -5   0  -8    0.06    0.08
  -6   0  -8   12.49    0.50
  -6   0  -8   12.21    0.48
  -6   0  -8   13.26    0.50
  -7   0  -8   -0.10    0.09
  -7   0  -8    0.02    0.08
  -7   0  -8    0.11    0.08
  -8   0  -8    6.85    0.32
  -8   0  -8    7.17    0.34
  -9   0  -8    0.05    0.08
  -9   0  -8   -0.01    0.09
  -9   0  -8    0.04    0.09
 -10   0  -8    4.66    0.25
 -10   0  -8    4.28    0.26
 -10   0  -8    4.89    0.27
 -11   0  -8    0.00    0.10
 -11   0  -8    0.12    0.08
 -11   0  -8    0.02    0.07
 -12   0  -8    0.10    0.13
 -12   0  -8    0.05    0.06
 -12   0  -8    0.00    0.07
 -13   0  -8   -0.04    0.07
  14  -1  -8    2.22    0.20
 -14  -1   8    1.99    0.18
 -14   1   8    1.56    0.20
 -14   1   8    2.36    0.14
  14   1  -8    2.12    0.18
 -13  -1   8    6.81    0.32
 -13  -1   8    7.10    0.31
 -13   1   8    6.75    0.31
 -13   1   8    6.82    0.30
  13   1  -8    7.15    0.30
 -12  -1   8   31.00    1.08
 -12  -1   8   32.08    1.09
  12   1  -8   31.23    1.19
 -11  -1   8    7.21    0.36
 -11  -1   8    6.76    0.34
 -11   1   8    6.84    0.33
 -11   1   8    6.60    0.34
 -10  -1   8   23.82    0.87
 -10  -1   8   23.19    0.86
 -10   1   8   23.52    0.87
 -10   1   8   23.67    0.87
 -10   1   8   24.79    0.86
  -9  -1   8    4.51    0.32
  -9  -1   8    4.73    0.32
  -9   1   8    4.76    0.29
  -9   1   8    4.64    0.28
  -9   1   8    4.87    0.29
  -8  -1   8    1.55    0.29
  -8  -1   8    1.80    0.24
  -8   1   8    1.46    0.22
  -8   1   8    1.73    0.20
  -8   1   8    1.78    0.21
  -7  -1   8   37.79    1.32
  -7   1   8   38.66    1.32
  -7   1   8   38.44    1.30
  -7   1   8   39.00    1.32
   6  -1  -8  130.29    4.25
  -6  -1   8  134.21    4.27
  -5  -1   8    0.17    0.05
   5  -1  -8    0.12    0.05
  -5   1   8    0.12    0.06
   5   1  -8    0.08    0.04
  -4  -1   8    0.42    0.09
   4  -1  -8    0.30    0.08
   4   1  -8    0.23    0.07
  -4   1   8    0.35    0.09
  -3  -1   8  164.69    5.25
   3  -1  -8  161.01    5.25
  -3   1   8  166.68    5.25
   3   1  -8  161.25    5.25
   2  -1  -8    6.11    0.25
  -2  -1   8    6.85    0.26
   2   1  -8    6.97    0.26
  -2   1   8    6.45    0.26
  -1  -1   8    8.11    0.30
   1  -1  -8    7.51    0.29
  -1   1   8    8.29    0.30
   1   1  -8    8.02    0.30
   0  -1   8   24.41    0.80
   0  -1  -8   23.15    0.79
   0   1   8   23.42    0.80
   0   1  -8   23.21    0.79
  -1  -1  -8    3.05    0.15
   1  -1   8    3.12    0.15
   1   1   8    3.41    0.16
  -1   1  -8    3.27    0.15
  -2  -1  -8    2.76    0.15
   2  -1   8    3.09    0.16
  -2   1  -8    2.76    0.15
   2   1   8    3.03    0.15
  -2   1  -8    2.93    0.16
  -3  -1  -8    0.38    0.09
   3  -1   8    0.64    0.12
  -3  -1  -8    0.46    0.10
  -3   1  -8    0.42    0.09
  -3   1  -8    0.49    0.10
   3   1   8    0.53    0.10
  -4  -1  -8   81.62    2.67
  -4  -1  -8   81.51    2.68
   4  -1   8   80.42    2.68
  -4   1  -8   82.22    2.68
   4   1   8   83.04    2.68
  -4   1  -8   84.78    2.68
  -5  -1  -8   21.33    0.76
  -5   1  -8   22.49    0.76
  -5   1  -8   21.52    0.77
  -6  -1  -8    0.85    0.19
  -6  -1  -8    0.97    0.20
  -6  -1  -8    0.75    0.12
  -6   1  -8    0.84    0.13
  -6   1  -8    0.93    0.20
  -6   1  -8    0.96    0.17
  -7  -1  -8    0.48    0.12
  -7  -1  -8    0.43    0.11
  -7  -1  -8    0.62    0.12
  -7   1  -8    0.39    0.10
  -7   1  -8    0.40    0.12
  -7   1  -8    0.36    0.09
  -8  -1  -8   87.87    2.81
  -8  -1  -8   83.95    2.80
  -8  -1  -8   86.24    2.81
  -8   1  -8   82.44    2.80
  -8   1  -8   86.76    2.81
  -8   1  -8   84.04    2.81
  -9  -1  -8    7.05    0.34
  -9  -1  -8    7.22    0.35
  -9  -1  -8    7.69    0.34
  -9   1  -8    7.32    0.35
  -9   1  -8    7.01    0.34
  -9   1  -8    7.69    0.34
 -10  -1  -8    1.87    0.18
 -10  -1  -8    1.71    0.17
 -10  -1  -8    2.07    0.20
 -10   1  -8    1.62    0.19
 -10   1  -8    1.64    0.17
 -10   1  -8    1.74    0.18
 -11  -1  -8    0.61    0.14
 -11  -1  -8    0.67    0.13
 -11  -1  -8    0.47    0.11
 -11   1  -8    0.36    0.09
 -11   1  -8    0.80    0.18
 -11   1  -8    0.63    0.13
 -12  -1  -8    0.30    0.11
 -12  -1  -8    0.27    0.09
 -12   1  -8    0.22    0.07
 -12   1  -8    0.49    0.24
 -12   1  -8    0.35    0.07
 -13   1  -8    0.03    0.06
  14   2  -8    1.72    0.17
 -14   2   8    1.69    0.12
 -14   2   8    1.60    0.12
  13   2  -8    6.56    0.29
 -13   2   8    6.53    0.28
 -13   2   8    6.65    0.29
 -12  -2   8    4.00    0.27
  12   2  -8    4.03    0.23
 -12   2   8    3.70    0.23
 -12   2   8    3.71    0.22
 -11  -2   8    1.69    0.24
 -11   2   8    1.07    0.19
 -11   2   8    1.23    0.16
  11   2  -8    1.22    0.18
 -11   2   8    1.02    0.17
 -10  -2   8    3.67    0.29
 -10   2   8    3.91    0.25
  10   2  -8    3.96    0.26
 -10   2   8    3.90    0.27
 -10   2   8    3.90    0.25
  -9  -2   8   -0.07    0.15
  -9  -2   8   -0.07    0.13
  -9   2   8    0.08    0.10
  -9   2   8    0.21    0.10
   9   2  -8    0.29    0.12
  -9   2   8    0.17    0.12
  -8  -2   8    0.10    0.10
  -8  -2   8    0.29    0.17
  -8   2   8    0.08    0.12
  -8   2   8    0.21    0.12
  -8   2   8   -0.10    0.16
  -8   2   8    0.10    0.10
  -7  -2   8    0.54    0.11
  -7  -2   8    0.35    0.18
  -7   2   8    0.61    0.12
  -7   2   8    0.63    0.14
  -7   2   8    0.71    0.14
  -7   2   8    0.77    0.17
   7   2  -8    0.77    0.18
  -6  -2   8   29.51    0.97
  -6   2   8   28.71    1.00
  -6   2   8   27.26    0.98
  -6   2   8   27.51    1.00
  -5  -2   8   27.98    0.94
  -5  -2   8   26.97    0.94
   5  -2  -8   27.60    0.94
  -5   2   8   27.25    0.95
   4  -2  -8   29.74    0.99
  -4  -2   8   28.97    0.99
  -4   2   8   29.20    1.00
   3  -2  -8    0.36    0.08
  -3  -2   8    0.30    0.07
  -3   2   8    0.39    0.11
   3   2  -8    0.18    0.05
   3   2  -8    0.21    0.07
  -2  -2   8   83.93    2.80
   2  -2  -8   87.46    2.80
   2   2  -8   84.94    2.80
   2   2  -8   86.36    2.79
  -2   2   8   88.01    2.81
  -1  -2   8   32.26    1.05
   1  -2  -8   30.98    1.05
   1   2  -8   29.67    1.04
  -1   2   8   31.68    1.06
   0  -2   8  107.16    3.43
   0  -2  -8  109.87    3.42
   0   2  -8  101.47    3.42
   0   2  -8  104.10    3.41
  -1  -2  -8   27.73    0.90
   1  -2   8   26.84    0.91
  -1   2  -8   25.42    0.89
  -1   2  -8   25.37    0.90
   1   2   8   26.53    0.91
  -2  -2  -8    1.99    0.14
   2  -2   8    1.84    0.16
  -2  -2  -8    1.87    0.14
   2   2   8    1.82    0.16
  -2   2  -8    2.05    0.14
  -2   2  -8    2.13    0.14
  -3  -2  -8    1.98    0.16
   3  -2   8    1.79    0.19
  -3  -2  -8    2.16    0.14
   3   2   8    2.01    0.18
  -3   2  -8    2.26    0.17
  -3   2  -8    2.04    0.15
  -4  -2  -8   36.31    1.19
  -4  -2  -8   35.87    1.21
  -4   2  -8   37.32    1.20
   4   2   8   32.94    1.22
  -5  -2  -8    0.48    0.12
  -5  -2  -8    0.79    0.11
  -5   2  -8    0.47    0.12
  -5   2  -8    0.77    0.14
  -6  -2  -8    2.91    0.32
  -6  -2  -8    2.96    0.23
  -6  -2  -8    3.37    0.19
  -6   2  -8    3.00    0.20
  -6   2  -8    2.72    0.26
  -6   2  -8    3.07    0.22
  -7  -2  -8    1.83    0.28
  -7  -2  -8    1.76    0.16
  -7   2  -8    1.59    0.22
  -7   2  -8    1.99    0.25
  -7   2  -8    1.77    0.18
  -8  -2  -8   22.69    0.81
  -8  -2  -8   21.60    0.82
  -8  -2  -8   22.63    0.81
  -8   2  -8   23.00    0.82
  -8   2  -8   21.72    0.81
  -8   2  -8   22.40    0.80
  -9  -2  -8    7.06    0.35
  -9  -2  -8    6.04    0.31
  -9  -2  -8    6.85    0.33
  -9   2  -8    6.96    0.33
  -9   2  -8    6.26    0.32
  -9   2  -8    6.95    0.32
 -10  -2  -8    2.51    0.19
 -10  -2  -8    2.31    0.26
 -10   2  -8    2.73    0.20
 -10   2  -8    2.72    0.23
 -10   2  -8    2.97    0.20
 -11  -2  -8    2.99    0.20
 -11   2  -8    3.09    0.19
 -11   2  -8    2.76    0.26
 -11   2  -8    3.21    0.19
 -12  -2  -8    1.24    0.16
 -12   2  -8    1.14    0.12
 -12   2  -8    0.94    0.11
  13   3  -8    2.33    0.16
 -13   3   8    2.46    0.15
 -13   3   8    2.38    0.15
 -12   3   8   17.02    0.60
 -12   3   8   15.78    0.59
  12   3  -8   16.12    0.59
 -11   3   8    0.03    0.10
 -11   3   8    0.21    0.12
 -10  -3   8    2.13    0.25
  10   3  -8    2.10    0.21
 -10   3   8    2.59    0.21
 -10   3   8    2.03    0.21
 -10   3   8    2.63    0.22
  -9   3   8    1.35    0.27
   9   3  -8    1.32    0.19
  -9   3   8    1.22    0.18
  -9   3   8    0.99    0.18
  -9   3   8    1.06    0.20
  -8  -3   8   25.64    0.90
  -8   3   8   24.50    0.90
   8   3  -8   25.75    0.91
   8   3  -8   23.36    0.92
  -8   3   8   25.27    0.90
  -8   3   8   24.73    0.90
  -8   3   8   26.44    0.91
  -7  -3   8   27.37    0.93
   7   3  -8   26.63    0.95
  -7   3   8   26.72    0.95
  -7   3   8   26.15    0.94
  -7   3   8   26.38    0.94
  -7   3   8   27.04    0.95
   7   3  -8   25.38    0.94
  -6  -3   8   44.79    1.52
  -6   3   8   45.80    1.53
  -6   3   8   44.01    1.54
   6   3  -8   46.24    1.54
   6   3  -8   44.67    1.53
  -6   3   8   44.54    1.52
  -6   3   8   47.64    1.54
   5  -3  -8    2.98    0.28
   5   3  -8    3.26    0.26
  -5   3   8    3.28    0.24
  -5   3   8    3.57    0.26
  -5   3   8    3.31    0.23
   5   3  -8    3.36    0.27
   4  -3  -8    9.40    0.41
   3  -3  -8   63.14    2.12
   3   3  -8   64.71    2.11
   2  -3  -8    0.70    0.13
   2   3  -8    0.70    0.12
   1  -3  -8   10.84    0.43
   1   3  -8   10.80    0.41
   0  -3  -8    6.47    0.29
   0   3  -8    6.69    0.28
  -1  -3  -8    0.16    0.07
  -1  -3  -8    0.24    0.09
  -1   3  -8    0.13    0.07
  -2  -3  -8   11.24    0.41
  -2  -3  -8   10.31    0.44
  -2   3  -8   11.27    0.42
  -3  -3  -8    0.65    0.12
  -3  -3  -8    0.83    0.12
  -3   3  -8    0.73    0.12
  -4  -3  -8    2.08    0.16
  -4  -3  -8    2.58    0.38
  -4   3  -8    2.09    0.28
  -4   3  -8    2.65    0.17
  -5  -3  -8   11.85    0.46
  -5   3  -8   12.29    0.47
  -5   3  -8   11.36    0.48
  -6  -3  -8    7.42    0.32
  -6   3  -8    7.56    0.34
  -6   3  -8    6.95    0.34
  -6   3  -8    6.63    0.38
  -7  -3  -8   13.28    0.52
  -7   3  -8   13.27    0.52
  -7   3  -8   13.10    0.53
  -7   3  -8   12.68    0.52
  -8  -3  -8    6.09    0.30
  -8   3  -8    6.38    0.32
  -8   3  -8    5.89    0.31
  -8   3  -8    6.13    0.30
  -9  -3  -8   42.45    1.52
  -9   3  -8   47.24    1.52
  -9   3  -8   46.92    1.51
  -9   3  -8   42.41    1.52
 -10  -3  -8    2.16    0.17
 -10   3  -8    2.07    0.18
 -10   3  -8    2.52    0.18
 -11  -3  -8   13.63    0.50
 -11   3  -8   12.63    0.48
 -11   3  -8   12.70    0.47
 -12   3  -8   -0.03    0.06
  13   4  -8    7.93    0.31
 -13   4   8    7.92    0.30
 -12   4   8    0.53    0.10
  12   4  -8    0.34    0.08
 -12   4   8    0.33    0.09
 -11  -4   8    2.75    0.28
 -11   4   8    3.19    0.21
 -11   4   8    3.21    0.19
 -11   4   8    3.24    0.21
  11   4  -8    3.17    0.19
 -10  -4   8    1.19    0.20
 -10   4   8    1.11    0.22
  10   4  -8    1.59    0.17
 -10   4   8    1.37    0.19
  -9  -4   8    7.08    0.36
   9   4  -8    8.43    0.37
  -9   4   8    7.91    0.37
  -9   4   8    7.54    0.39
  -9   4   8    7.97    0.36
  -9   4   8    8.15    0.38
  -8  -4   8    1.80    0.19
   8   4  -8    1.65    0.26
  -8   4   8    1.95    0.22
   8   4  -8    1.73    0.20
  -8   4   8    1.93    0.20
  -8   4   8    2.21    0.22
  -8   4   8    2.12    0.24
  -7  -4   8    0.18    0.10
  -7   4   8   -0.01    0.11
  -7   4   8    0.05    0.15
   7   4  -8    0.15    0.12
  -7   4   8    0.22    0.11
   7   4  -8    0.02    0.13
  -7   4   8    0.07    0.12
  -6  -4   8    8.22    0.35
   6   4  -8    7.04    0.36
   6   4  -8    7.04    0.37
  -6   4   8    7.87    0.43
  -5  -4   8   57.62    1.87
  -5   4   8   55.67    1.85
   5   4  -8   53.15    1.86
  -5   4   8   57.25    1.87
  -5   4   8   56.62    1.86
   5   4  -8   54.22    1.86
  -4   4   8   -0.27    0.11
   4   4  -8   -0.09    0.11
  -4   4   8   -0.11    0.10
  -4   4   8    0.03    0.12
   4   4  -8    0.24    0.14
  -3   4   8    5.70    0.31
   3   4  -8    5.80    0.33
  -3   4   8    5.79    0.32
   3   4  -8    5.61    0.30
  -3   4   8    5.56    0.29
  -2   4   8   28.29    0.97
   2   4  -8   28.75    0.97
  -2   4   8   25.85    0.96
   2   4  -8   26.82    0.98
   2   4  -8   28.41    0.96
  -2   4   8   27.04    0.95
   1   4  -8    0.95    0.18
  -1   4   8    0.92    0.14
  -1   4   8    0.81    0.15
   1   4  -8    0.96    0.13
   0   4  -8   11.03    0.43
   0   4  -8   10.94    0.44
   0   4   8   10.37    0.45
   0   4   8   10.34    0.45
  -1  -4  -8    6.11    0.28
  -1   4  -8    6.50    0.33
   1   4   8    5.86    0.34
  -1   4  -8    6.17    0.29
   1   4   8    6.24    0.34
   1   4   8    6.24    0.34
  -2  -4  -8    4.78    0.24
  -2   4  -8    5.14    0.25
   2   4   8    4.07    0.32
  -2   4  -8    4.79    0.31
   2   4   8    4.26    0.30
  -3  -4  -8    0.14    0.08
  -3   4  -8    0.26    0.17
   3   4   8    0.33    0.17
  -3   4  -8    0.22    0.09
   3   4   8    0.16    0.13
  -4  -4  -8    8.59    0.36
   4   4   8    8.36    0.39
   4   4   8    8.77    0.43
  -4   4  -8    8.73    0.38
  -5  -4  -8    0.19    0.08
   5   4   8    0.31    0.18
  -5   4  -8    0.27    0.17
  -5   4  -8    0.11    0.09
  -6  -4  -8    3.23    0.21
   6   4   8    3.21    0.25
  -6   4  -8    2.69    0.27
  -6   4  -8    3.49    0.23
  -7  -4  -8    4.07    0.24
  -7   4  -8    3.76    0.26
   7   4   8    3.99    0.26
  -7   4  -8    3.99    0.27
  -8  -4  -8    0.45    0.10
   8   4   8    0.36    0.12
  -8   4  -8    0.52    0.14
  -8   4  -8    0.99    0.18
  -9  -4  -8    0.63    0.14
   9   4   8    0.80    0.17
  -9   4  -8    0.56    0.11
 -10  -4  -8    5.50    0.25
 -10   4  -8    5.00    0.25
  10   4   8    4.62    0.25
 -11   4  -8    9.83    0.37
 -12   5   8    0.34    0.08
  12   5  -8    0.54    0.11
 -11   5   8    0.13    0.13
  11   5  -8    0.02    0.06
 -11   5   8    0.07    0.07
 -10  -5   8    0.68    0.19
  10   5  -8    0.78    0.13
 -10   5   8    0.70    0.13
 -10   5   8    0.94    0.15
  -9  -5   8   26.27    0.94
   9   5  -8   26.41    0.93
  -9   5   8   27.13    0.93
  -9   5   8   26.23    0.92
  -9   5   8   26.31    0.93
  -8  -5   8    4.60    0.27
   8   5  -8    4.92    0.27
   8   5  -8    4.39    0.30
  -8   5   8    4.76    0.28
  -8   5   8    4.76    0.27
  -8   5   8    5.26    0.27
  -7  -5   8    0.16    0.09
  -7   5   8    0.27    0.11
   7   5  -8    0.28    0.13
  -7   5   8    0.34    0.11
   7   5  -8    0.15    0.10
  -7   5   8    0.29    0.11
  -6  -5   8    1.17    0.18
   6   5  -8    1.25    0.20
   6   5  -8    1.05    0.18
  -6   5   8    1.10    0.18
  -6   5   8    1.10    0.20
  -6   5   8    1.45    0.20
  -5  -5   8   10.35    0.43
   5   5  -8    9.82    0.42
  -5   5   8    9.33    0.42
   5   5  -8    9.88    0.43
  -5   5   8    9.65    0.43
  -5   5   8   10.05    0.41
  -4   5   8    0.78    0.18
  -4   5   8    0.33    0.10
  -4   5   8    0.41    0.13
   4   5  -8    0.85    0.18
   4   5  -8    0.44    0.12
  -3   5   8   14.80    0.56
  -3   5   8   15.24    0.58
   3   5  -8   14.15    0.57
  -3   5   8   14.96    0.58
   2   5  -8    4.08    0.28
  -2   5   8    3.80    0.26
  -2   5   8    3.53    0.23
   2   5  -8    3.96    0.24
  -2   5   8    3.62    0.29
  -1   5   8   14.37    0.55
  -1   5   8   13.69    0.57
  -1   5   8   14.17    0.54
   1   5  -8   13.67    0.58
   1   5  -8   14.15    0.55
   1   5  -8   14.49    0.56
   0   5  -8    6.83    0.32
   0   5   8    6.29    0.31
   0   5  -8    6.67    0.39
   0   5   8    5.87    0.38
   0   5   8    6.66    0.33
   0   5  -8    6.85    0.32
  -1  -5  -8   40.82    1.37
   1   5   8   39.36    1.37
  -1   5  -8   40.37    1.40
  -1   5  -8   43.09    1.40
   1   5   8   42.00    1.39
   1   5   8   38.55    1.40
  -1   5  -8   40.21    1.39
  -2  -5  -8   28.98    0.98
  -2   5  -8   27.19    0.99
   2   5   8   26.83    0.98
  -2   5  -8   29.34    1.00
  -3  -5  -8    0.06    0.10
  -3   5  -8    0.09    0.11
  -3   5  -8    0.21    0.13
   3   5   8    0.28    0.13
  -4  -5  -8   15.17    0.58
   4   5   8   15.15    0.59
  -4   5  -8   15.77    0.60
  -4   5  -8   14.99    0.60
  -5  -5  -8   18.95    0.71
   5   5   8   20.17    0.72
  -5   5  -8   18.96    0.73
  -6  -5  -8    1.25    0.16
  -6   5  -8    1.08    0.21
   6   5   8    1.79    0.26
  -7  -5  -8   23.34    0.83
  -7   5  -8   22.60    0.84
  -8  -5  -8    1.59    0.16
  -9  -5  -8    0.58    0.14
 -10  -5  -8    0.14    0.11
 -10   6   8    7.32    0.29
  10   6  -8    7.01    0.29
  -9  -6   8   22.80    0.77
  -9   6   8   23.56    0.80
   9   6  -8   21.43    0.75
  -9   6   8   20.86    0.75
  -9   6   8   19.64    0.77
  -8  -6   8    0.73    0.15
  -8   6   8    0.65    0.15
  -8   6   8    0.42    0.11
   8   6  -8    0.46    0.09
  -8   6   8    0.47    0.10
  -7  -6   8    6.27    0.31
  -7   6   8    6.79    0.32
  -7   6   8    6.55    0.30
  -7   6   8    6.34    0.31
   7   6  -8    6.12    0.30
   7   6  -8    6.42    0.31
  -6  -6   8   -0.01    0.14
  -6   6   8   -0.12    0.09
  -6   6   8    0.08    0.17
   6   6  -8   -0.11    0.10
   6   6  -8   -0.11    0.09
  -6   6   8    0.09    0.09
  -5  -6   8   15.57    0.63
  -5   6   8   16.78    0.63
  -5   6   8   16.74    0.62
  -5   6   8   16.40    0.63
   5   6  -8   16.82    0.62
   5   6  -8   16.16    0.63
  -4  -6   8    0.35    0.10
   4   6  -8    0.49    0.11
  -4   6   8    0.55    0.16
  -4   6   8    0.77    0.18
  -4   6   8    0.43    0.11
   4   6  -8    0.43    0.13
   3   6  -8   10.45    0.46
  -3   6   8   11.30    0.45
   3   6  -8   11.03    0.45
  -3   6   8   10.67    0.46
   2   6  -8    5.53    0.29
   2   6  -8    5.58    0.32
  -2   6   8    5.75    0.31
  -2   6   8    5.75    0.29
   1   6  -8    0.12    0.14
   1   6  -8   -0.02    0.09
  -1   6   8   -0.09    0.11
  -1   6   8    0.05    0.09
   0   6   8   33.79    1.15
   0   6  -8   34.08    1.17
   0   6   8   33.81    1.17
   0   6  -8   32.17    1.16
  -1   6  -8  112.93    3.76
   1   6   8  115.76    3.75
   1   6   8  117.06    3.76
  -1   6  -8  112.73    3.78
  -1   6  -8  117.80    3.76
  -2  -6  -8   24.93    0.94
   2   6   8   26.38    0.91
  -2   6  -8   23.76    0.93
  -2   6  -8   27.13    0.92
   2   6   8   26.80    0.92
  -3  -6  -8    2.23    0.22
  -3   6  -8    2.00    0.22
  -3   6  -8    2.62    0.22
   3   6   8    2.86    0.22
   3   6   8    2.71    0.26
  -4  -6  -8    6.17    0.31
   4   6   8    6.51    0.32
  -4   6  -8    5.74    0.32
  -4   6  -8    6.54    0.33
  -5  -6  -8    0.72    0.17
  -5   6  -8    0.94    0.21
   5   6   8    0.77    0.13
  -6  -6  -8    0.90    0.16
   6   6   8    0.60    0.14
  -7  -6  -8    2.20    0.18
  -8  -6  -8    3.04    0.21
  -8   7   8    9.06    0.34
   8   7  -8    9.19    0.35
  -8   7   8    8.98    0.34
  -7  -7   8    0.09    0.09
  -7   7   8   -0.13    0.07
  -7   7   8    0.10    0.07
   7   7  -8    0.00    0.11
   7   7  -8    0.03    0.07
  -6  -7   8    8.05    0.34
  -6   7   8    7.80    0.33
   6   7  -8    7.76    0.33
   6   7  -8    7.82    0.33
  -6   7   8    7.64    0.32
  -5  -7   8    0.13    0.09
  -5   7   8    0.12    0.07
  -5   7   8    0.14    0.08
   5   7  -8    0.09    0.08
   5   7  -8    0.18    0.09
  -4  -7   8    1.75    0.17
   4   7  -8    1.63    0.18
  -4   7   8    1.75    0.15
  -4   7   8    1.80    0.17
   4   7  -8    2.01    0.16
  -3  -7   8    2.84    0.21
  -3   7   8    2.59    0.18
   3   7  -8    2.93    0.19
  -3   7   8    2.83    0.21
   3   7  -8    2.62    0.21
  -2  -7   8    7.23    0.36
  -2   7   8    8.87    0.45
   2   7  -8    8.24    0.43
   2   7  -8    8.05    0.36
   1   7  -8    3.31    0.21
   1   7  -8    3.07    0.24
  -1   7   8    3.36    0.22
  -1   7   8    3.54    0.23
   0   7  -8    0.81    0.20
   0   7  -8    0.89    0.15
   0   7   8    1.31    0.18
  -1   7  -8    2.84    0.24
   1   7   8    3.09    0.20
  -1   7  -8    2.75    0.26
   1   7   8    3.39    0.31
   2   7   8   14.06    0.54
  -2   7  -8   14.46    0.54
   2   7   8   13.87    0.52
   3   7   8    2.28    0.19
  -3   7  -8    2.53    0.19
   4   7   8    0.19    0.10
  -4   7  -8    0.12    0.10
   5   7   8    1.12    0.16
  -5   8   8    0.02    0.05
   5   8  -8    0.04    0.08
   5   8  -8    0.01    0.07
  -5   8   8    0.04    0.06
   4   8  -8    1.85    0.15
   4   8  -8    1.98    0.15
  -4   8   8    2.03    0.14
  -4   8   8    2.17    0.13
  -3  -8   8    7.92    0.33
   3   8  -8    7.93    0.36
  -3   8   8    7.22    0.30
   3   8  -8    7.32    0.30
  -3   8   8    7.26    0.29
  -2  -8   8    3.50    0.23
   2   8  -8    3.66    0.26
   2   8  -8    3.45    0.18
  -2   8   8    3.67    0.18
  -2   8   8    3.40    0.18
  -1  -8   8    3.58    0.23
   1   8  -8    3.31    0.21
  -1   8   8    3.38    0.18
  -1   8   8    3.43    0.19
   1   8  -8    3.60    0.19
   0  -8   8   12.37    0.50
   0   8   8   13.11    0.48
   0   8   8   13.11    0.47
   0   8  -8   13.21    0.47
   1   8   8   12.66    0.47
  -1   8  -8   12.82    0.47
  -2   8  -8    5.00    0.22
   2   8   8    4.42    0.21
  -3   8  -8    4.17    0.20
   3   8   8    4.07    0.20
 -14   0   9    0.13    0.09
  14   0  -9   -0.06    0.09
 -14   0   9   -0.01    0.08
 -13   0   9    6.12    0.29
  13   0  -9    6.59    0.29
 -13   0   9    6.25    0.29
 -12   0   9   -0.04    0.11
 -12   0   9    0.04    0.12
 -11   0   9   36.48    1.25
 -11   0   9   35.72    1.26
 -10   0   9    0.00    0.10
 -10   0   9   -0.02    0.11
  -9   0   9   25.30    1.00
  -9   0   9   25.62    0.92
  -9   0   9   25.66    0.92
  -8   0   9    0.07    0.13
   8   0  -9    0.16    0.18
  -8   0   9    0.16    0.12
  -8   0   9    0.06    0.11
  -7   0   9    4.33    0.29
  -7   0   9    5.22    0.29
   6   0  -9   -0.05    0.06
  -5   0   9  304.40    9.39
   5   0  -9  282.77    9.39
   4   0  -9    0.01    0.03
  -4   0   9   -0.02    0.04
   3   0  -9   16.15    0.57
  -3   0   9   17.03    0.58
  -2   0   9   -0.02    0.03
   2   0  -9    0.01    0.03
  -1   0   9  105.29    3.32
   1   0  -9   99.91    3.31
   0   0   9   -0.01    0.03
   0   0  -9   -0.02    0.03
  -1   0  -9   10.32    0.39
   1   0   9   10.85    0.39
  -2   0  -9    0.04    0.04
   2   0   9   -0.05    0.04
  -2   0  -9   -0.04    0.07
   3   0   9   59.53    1.95
  -3   0  -9   59.10    1.94
  -4   0  -9    0.03    0.07
  -4   0  -9   -0.06    0.06
   4   0   9    0.05    0.08
  -5   0  -9   67.94    2.24
  -5   0  -9   72.49    2.24
  -5   0  -9   63.74    2.24
  -6   0  -9    0.05    0.07
  -6   0  -9   -0.08    0.09
  -6   0  -9   -0.11    0.09
  -7   0  -9    1.54    0.18
  -7   0  -9    1.49    0.16
  -7   0  -9    1.39    0.18
  -8   0  -9   -0.06    0.09
  -8   0  -9    0.02    0.09
  -8   0  -9    0.12    0.08
  -9   0  -9    8.09    0.38
  -9   0  -9    9.24    0.39
  -9   0  -9    8.75    0.38
 -10   0  -9   -0.04    0.08
 -10   0  -9    0.06    0.09
 -10   0  -9    0.03    0.09
 -11   0  -9    0.04    0.07
 -11   0  -9    0.07    0.09
 -11   0  -9    0.07    0.07
 -12   0  -9    0.38    0.13
 -12   0  -9    0.00    0.07
  14  -1  -9    0.05    0.10
 -14  -1   9    0.11    0.11
  14   1  -9    0.11    0.09
 -14   1   9    0.12    0.06
 -14   1   9    0.06    0.07
 -13  -1   9    0.31    0.09
 -13   1   9    0.45    0.12
 -13   1   9    0.29    0.08
  13   1  -9    0.39    0.09
 -12  -1   9    1.42    0.23
 -12  -1   9    1.69    0.18
  12   1  -9    1.27    0.19
 -12   1   9    1.27    0.17
 -11  -1   9    3.26    0.24
 -11  -1   9    2.68    0.26
 -11   1   9    3.29    0.23
 -11   1   9    3.00    0.23
 -10  -1   9    1.99    0.26
 -10  -1   9    1.94    0.21
 -10   1   9    1.80    0.21
 -10   1   9    1.93    0.20
 -10   1   9    2.08    0.22
  -9  -1   9   22.84    0.86
  -9  -1   9   21.29    0.83
  -9   1   9   23.26    0.83
  -9   1   9   22.80    0.83
  -9   1   9   23.18    0.82
  -8  -1   9   13.20    0.52
  -8  -1   9   11.29    0.55
  -8   1   9   12.98    0.50
  -8   1   9   13.27    0.51
  -8   1   9   13.05    0.52
   8   1  -9   11.53    0.54
  -7  -1   9    0.48    0.16
  -7   1   9    0.14    0.12
  -7   1   9    0.55    0.13
  -7   1   9    0.12    0.12
   6  -1  -9    2.53    0.18
  -5  -1   9    7.79    0.31
   5  -1  -9    7.20    0.30
   5   1  -9    7.71    0.30
  -5   1   9    7.75    0.32
  -4  -1   9  125.08    3.84
   4  -1  -9  114.91    3.84
   4   1  -9  117.13    3.84
  -4   1   9  118.62    3.84
  -3  -1   9    4.50    0.20
   3  -1  -9    4.60    0.20
  -3   1   9    4.53    0.20
   3   1  -9    4.18    0.19
  -2  -1   9    0.41    0.09
   2  -1  -9    0.45    0.07
   2   1  -9    0.34    0.07
   1  -1  -9   84.31    2.73
  -1  -1   9   86.39    2.73
   1   1  -9   77.73    2.73
  -1   1   9   88.46    2.74
   0  -1   9   17.19    0.60
   0  -1  -9   17.29    0.59
   0   1   9   17.65    0.60
   0   1  -9   15.98    0.59
   1  -1   9    3.29    0.17
  -1  -1  -9    3.70    0.17
  -1   1  -9    3.50    0.18
   1   1   9    3.43    0.17
  -1   1  -9    3.31    0.17
   2  -1   9   55.68    1.95
  -2  -1  -9   58.88    1.94
   2   1   9   59.70    1.95
  -2   1  -9   61.12    1.94
  -2   1  -9   61.88    1.96
  -3  -1  -9    3.32    0.18
  -3  -1  -9    3.11    0.17
   3  -1   9    3.08    0.20
   3   1   9    3.00    0.19
  -3   1  -9    3.09    0.17
  -3   1  -9    2.89    0.18
  -4  -1  -9   35.13    1.16
   4  -1   9   31.45    1.16
  -4  -1  -9   36.30    1.15
   4   1   9   31.77    1.16
  -4   1  -9   34.28    1.16
  -4   1  -9   35.29    1.15
  -5  -1  -9  211.15    6.76
  -5  -1  -9  207.33    6.76
  -5   1  -9  206.83    6.76
  -5   1  -9  210.86    6.77
  -5   1  -9  214.88    6.77
  -6  -1  -9   19.18    0.73
  -6  -1  -9   19.46    0.71
  -6  -1  -9   20.41    0.72
  -6   1  -9   19.61    0.72
  -6   1  -9   19.91    0.72
  -6   1  -9   20.54    0.72
  -7  -1  -9    1.82    0.19
  -7  -1  -9    1.94    0.17
  -7  -1  -9    2.22    0.22
  -7   1  -9    1.63    0.18
  -7   1  -9    1.99    0.19
  -7   1  -9    2.16    0.17
  -8  -1  -9   19.79    0.70
  -8  -1  -9   18.07    0.69
  -8  -1  -9   18.26    0.70
  -8   1  -9   17.99    0.70
  -8   1  -9   20.02    0.71
  -8   1  -9   18.87    0.69
  -9  -1  -9   13.21    0.52
  -9  -1  -9   12.92    0.52
  -9  -1  -9   13.02    0.51
  -9   1  -9   13.25    0.52
  -9   1  -9   12.16    0.52
  -9   1  -9   13.65    0.51
 -10  -1  -9    2.52    0.20
 -10  -1  -9    2.98    0.21
 -10  -1  -9    2.95    0.22
 -10   1  -9    2.93    0.21
 -10   1  -9    2.65    0.21
 -10   1  -9    2.71    0.19
 -11  -1  -9    2.06    0.18
 -11  -1  -9    1.86    0.18
 -11   1  -9    1.97    0.16
 -11   1  -9    2.00    0.15
 -12  -1  -9    2.13    0.21
 -12  -1  -9    2.23    0.20
 -12   1  -9    2.31    0.15
 -14   2   9    5.15    0.21
  14   2  -9    4.88    0.23
 -13   2   9    1.19    0.13
 -13   2   9    1.08    0.13
  13   2  -9    0.98    0.14
 -12  -2   9    1.01    0.22
  12   2  -9    1.19    0.15
 -12   2   9    1.15    0.15
 -12   2   9    1.15    0.15
 -11  -2   9    5.07    0.31
  11   2  -9    5.08    0.28
 -11   2   9    4.96    0.29
 -11   2   9    5.06    0.27
 -11   2   9    4.65    0.28
 -10  -2   9    2.42    0.26
 -10   2   9    2.41    0.21
 -10   2   9    2.33    0.23
 -10   2   9    2.36    0.21
  10   2  -9    2.34    0.22
  -9  -2   9    1.27    0.26
  -9  -2   9    0.72    0.16
  -9   2   9    0.69    0.18
  -9   2   9    0.81    0.20
  -9   2   9    0.90    0.18
   9   2  -9    0.70    0.13
  -8  -2   9   47.09    1.59
  -8  -2   9   47.01    1.61
   8   2  -9   45.87    1.60
  -8   2   9   46.62    1.60
  -8   2   9   48.77    1.61
  -8   2   9   46.96    1.60
  -8   2   9   49.61    1.61
  -7  -2   9   22.07    0.87
  -7  -2   9   24.38    0.84
  -7   2   9   24.14    0.86
  -7   2   9   23.34    0.84
  -7   2   9   24.91    0.86
   7   2  -9   23.55    0.86
  -7   2   9   23.16    0.85
  -6  -2   9    1.43    0.17
  -6   2   9    1.06    0.23
  -6   2   9    1.39    0.22
  -6   2   9    1.47    0.20
  -6   2   9    1.46    0.22
   5  -2  -9   51.18    1.67
  -5   2   9   48.86    1.68
  -4  -2   9    6.49    0.31
   4  -2  -9    7.31    0.30
   4   2  -9    7.15    0.30
  -4   2   9    6.89    0.32
  -3  -2   9    1.59    0.15
   3  -2  -9    1.98    0.14
   3   2  -9    1.77    0.13
   3   2  -9    1.78    0.15
  -3   2   9    1.78    0.17
   2  -2  -9   62.46    2.04
  -2  -2   9   63.15    2.04
   2   2  -9   60.19    2.03
  -2   2   9   62.05    2.05
   2   2  -9   62.16    2.04
   1  -2  -9    0.93    0.10
  -1  -2   9    0.87    0.12
   1   2  -9    0.99    0.10
  -1   2   9    0.90    0.12
   1   2  -9    0.87    0.12
   0  -2   9    7.49    0.33
   0   2   9    8.23    0.34
   0   2  -9    8.36    0.33
   0   2  -9    8.32    0.32
   1  -2   9    0.51    0.13
  -1  -2  -9    0.60    0.10
   1   2   9    0.52    0.13
  -1   2  -9    0.67    0.10
  -1   2  -9    0.61    0.11
  -2  -2  -9   86.06    2.74
  -2  -2  -9   81.10    2.71
   2  -2   9   81.92    2.74
   2   2   9   82.43    2.75
  -2   2  -9   85.53    2.75
  -2   2  -9   85.33    2.73
  -3  -2  -9   40.06    1.35
  -3  -2  -9   40.63    1.33
  -3   2  -9   41.18    1.36
   3   2   9   37.40    1.36
  -3   2  -9   40.58    1.34
  -4  -2  -9   24.67    0.87
  -4  -2  -9   24.34    0.89
  -4   2  -9   25.82    0.87
  -5  -2  -9    2.02    0.21
  -5  -2  -9    2.10    0.16
  -5   2  -9    2.23    0.16
  -5   2  -9    2.08    0.20
  -5   2  -9    2.16    0.28
  -6  -2  -9   12.60    0.48
  -6  -2  -9   12.84    0.50
  -6  -2  -9   11.34    0.54
  -6   2  -9   13.12    0.49
  -6   2  -9   12.09    0.51
  -6   2  -9   12.48    0.50
  -7  -2  -9    0.75    0.13
  -7  -2  -9    0.52    0.15
  -7  -2  -9    0.61    0.13
  -7   2  -9    0.70    0.17
  -7   2  -9    0.84    0.15
  -7   2  -9    0.97    0.16
  -8  -2  -9   31.02    1.10
  -8   2  -9   31.74    1.09
  -8   2  -9   31.73    1.10
  -9  -2  -9   17.85    0.67
  -9  -2  -9   16.89    0.65
  -9   2  -9   18.07    0.66
  -9   2  -9   16.68    0.66
  -9   2  -9   17.51    0.64
 -10  -2  -9    3.73    0.27
 -10  -2  -9    3.53    0.23
 -10   2  -9    3.90    0.22
 -10   2  -9    3.90    0.25
 -11  -2  -9    5.80    0.28
 -11   2  -9    5.78    0.26
 -11   2  -9    5.80    0.26
 -11   2  -9    5.89    0.32
 -12   2  -9    8.10    0.31
 -13   3   9    0.07    0.06
  13   3  -9    0.15    0.07
 -13   3   9    0.12    0.06
  12   3  -9   16.65    0.62
 -12   3   9   17.61    0.63
 -12   3   9   17.52    0.63
 -11   3   9   24.59    0.89
 -11   3   9   25.43    0.90
 -10  -3   9   10.44    0.49
 -10   3   9   12.01    0.48
 -10   3   9   11.73    0.48
  10   3  -9   11.93    0.48
 -10   3   9   11.87    0.48
  -9  -3   9   13.43    0.65
  -9   3   9   15.40    0.59
   9   3  -9   15.14    0.59
  -9   3   9   14.84    0.58
  -9   3   9   15.62    0.59
  -9   3   9   15.35    0.59
  -8  -3   9   39.73    1.34
  -8   3   9   41.27    1.35
  -8   3   9   40.62    1.35
   8   3  -9   38.02    1.34
  -8   3   9   38.58    1.34
   8   3  -9   36.59    1.37
  -8   3   9   38.08    1.33
  -7  -3   9   16.89    0.62
  -7   3   9   16.46    0.64
  -7   3   9   16.16    0.63
   7   3  -9   15.71    0.63
  -7   3   9   17.28    0.64
  -7   3   9   16.32    0.62
  -6  -3   9    0.15    0.09
  -6   3   9    0.16    0.15
  -6   3   9   -0.03    0.11
  -6   3   9    0.21    0.12
   6   3  -9    0.39    0.14
  -6   3   9    0.30    0.11
   6   3  -9    0.30    0.12
   5  -3  -9    0.18    0.13
  -5   3   9    0.19    0.19
  -5   3   9    0.11    0.11
  -5   3   9    0.07    0.12
   5   3  -9    0.15    0.13
  -5   3   9    0.19    0.11
   5   3  -9    0.05    0.12
   4  -3  -9  112.87    3.72
  -4   3   9  111.77    3.69
  -4   3   9  114.62    3.70
  -4   3   9  112.03    3.69
   4   3  -9  117.32    3.73
   3  -3  -9    3.79    0.24
   3   3  -9    3.55    0.21
   2  -3  -9   93.44    3.04
   2   3  -9   92.25    3.02
   1  -3  -9    0.11    0.07
   1   3  -9    0.23    0.08
   0  -3  -9    3.39    0.21
   0   3  -9    3.36    0.19
  -1  -3  -9    0.65    0.15
  -1  -3  -9    0.63    0.15
  -1   3  -9    0.75    0.11
  -2  -3  -9   56.75    1.90
  -2  -3  -9   56.14    1.86
  -2   3  -9   57.06    1.88
  -3  -3  -9    1.66    0.28
  -3  -3  -9    1.43    0.15
  -3   3  -9    1.88    0.15
  -4  -3  -9    0.23    0.08
  -4   3  -9    0.48    0.16
  -4   3  -9    0.31    0.09
  -5  -3  -9    0.46    0.12
  -5   3  -9    0.41    0.10
  -5   3  -9    0.38    0.13
  -6  -3  -9   -0.09    0.07
  -6   3  -9   -0.01    0.09
  -6   3  -9   -0.05    0.12
  -6   3  -9   -0.17    0.13
  -7  -3  -9    4.33    0.24
  -7   3  -9    3.75    0.27
  -7   3  -9    4.66    0.26
  -7   3  -9    4.09    0.26
  -8  -3  -9   14.22    0.57
  -8   3  -9   15.06    0.56
  -8   3  -9   14.05    0.57
  -8   3  -9   15.06    0.57
  -9  -3  -9    2.08    0.18
  -9   3  -9    1.98    0.21
  -9   3  -9    2.46    0.19
 -10  -3  -9    2.99    0.19
 -10   3  -9    2.92    0.20
 -10   3  -9    2.94    0.18
 -10   3  -9    2.49    0.25
 -11  -3  -9    2.59    0.18
 -11   3  -9    2.48    0.16
  11   3   9    2.60    0.16
 -11   3  -9    2.39    0.17
 -12   3  -9    0.48    0.10
 -12   4   9    0.19    0.06
  12   4  -9    0.13    0.07
 -11   4   9    0.00    0.07
 -11   4   9    0.07    0.09
  11   4  -9    0.06    0.08
 -11   4   9    0.19    0.10
 -10  -4   9    0.65    0.14
 -10   4   9    0.99    0.18
  10   4  -9    0.50    0.16
 -10   4   9    0.60    0.12
  -9  -4   9   16.02    0.65
  -9   4   9   17.31    0.65
  -9   4   9   17.13    0.65
  -9   4   9   17.21    0.65
   9   4  -9   17.69    0.66
  -9   4   9   17.39    0.65
  -8  -4   9  111.31    3.76
  -8   4   9  118.02    3.76
  -8   4   9  114.50    3.75
  -8   4   9  119.06    3.77
   8   4  -9  115.29    3.76
   8   4  -9  113.07    3.74
  -8   4   9  113.27    3.74
  -7  -4   9    0.47    0.11
  -7   4   9    0.25    0.11
   7   4  -9    0.93    0.19
  -7   4   9    0.45    0.16
   7   4  -9    0.37    0.13
  -7   4   9    0.34    0.11
  -7   4   9    0.55    0.13
  -6  -4   9    2.04    0.18
  -6   4   9    1.44    0.19
  -6   4   9    1.88    0.20
  -6   4   9    1.46    0.21
   6   4  -9    1.83    0.21
  -5   4   9    2.45    0.22
   5   4  -9    2.48    0.23
  -5   4   9    2.45    0.20
  -5   4   9    2.18    0.22
   5   4  -9    2.38    0.22
  -4   4   9   63.89    2.08
  -4   4   9   62.87    2.08
  -4   4   9   62.39    2.08
   4   4  -9   62.36    2.08
   4   4  -9   61.75    2.08
  -3   4   9    4.76    0.25
   3   4  -9    4.30    0.31
  -3   4   9    4.38    0.28
  -3   4   9    4.57    0.28
   3   4  -9    4.49    0.26
  -2   4   9   15.32    0.60
  -2   4   9   15.51    0.58
   2   4  -9   16.22    0.59
   2   4  -9   15.64    0.59
   2   4  -9   14.86    0.62
  -2   4   9   15.95    0.60
   1   4  -9    0.58    0.14
  -1   4   9    0.74    0.13
  -1   4   9    1.13    0.23
   1   4  -9    0.67    0.12
  -1   4   9    1.18    0.23
   0   4   9    1.25    0.23
   0   4  -9    1.06    0.14
   0   4   9    0.98    0.23
   0   4  -9    0.83    0.20
   0   4   9    0.99    0.21
  -1  -4  -9   30.26    1.05
  -1   4  -9   30.78    1.07
   1   4   9   29.36    1.06
   1   4   9   30.54    1.07
   1   4   9   31.28    1.08
  -1   4  -9   32.83    1.07
  -2  -4  -9    0.72    0.14
  -2   4  -9    0.58    0.13
   2   4   9    0.48    0.13
   2   4   9    0.34    0.16
  -2   4  -9    0.62    0.16
  -3  -4  -9    3.03    0.20
  -3   4  -9    3.22    0.30
   3   4   9    3.02    0.25
  -3   4  -9    3.00    0.20
   3   4   9    3.08    0.29
  -4  -4  -9   20.00    0.70
  -4   4  -9   19.44    0.71
   4   4   9   18.43    0.74
   4   4   9   18.44    0.69
  -5  -4  -9    0.54    0.14
   5   4   9    0.79    0.13
  -5   4  -9    0.72    0.16
  -5   4  -9    0.77    0.17
  -6  -4  -9    3.29    0.23
   6   4   9    2.50    0.23
  -6   4  -9    2.71    0.26
  -7  -4  -9    3.89    0.24
  -7   4  -9    4.04    0.26
   7   4   9    4.12    0.25
  -7   4  -9    4.30    0.27
  -8  -4  -9   44.47    1.60
  -8   4  -9   51.22    1.66
  -8   4  -9   46.87    1.61
  -9  -4  -9    3.87    0.22
  -9   4  -9    3.71    0.29
   9   4   9    3.89    0.22
  -9   4  -9    3.50    0.22
 -10  -4  -9    1.41    0.15
 -10   4  -9    1.59    0.15
 -11   4  -9    0.97    0.14
 -11   5   9    3.60    0.18
  11   5  -9    3.39    0.18
 -10  -5   9    0.45    0.13
 -10   5   9    0.29    0.09
  10   5  -9    0.19    0.07
 -10   5   9    0.38    0.08
  -9  -5   9    3.83    0.24
   9   5  -9    3.83    0.23
  -9   5   9    3.74    0.22
  -9   5   9    3.75    0.23
  -9   5   9    3.58    0.23
  -8  -5   9   12.18    0.52
   8   5  -9   12.85    0.52
  -8   5   9   12.89    0.50
   8   5  -9   13.11    0.52
  -8   5   9   13.40    0.52
  -8   5   9   13.25    0.51
  -7  -5   9    0.07    0.09
  -7   5   9    0.19    0.10
  -7   5   9    0.04    0.11
  -7   5   9    0.20    0.10
   7   5  -9    0.09    0.12
   7   5  -9    0.08    0.10
  -6  -5   9   16.60    0.67
   6   5  -9   18.06    0.66
  -6   5   9   17.40    0.65
  -6   5   9   17.60    0.66
   6   5  -9   17.69    0.67
  -6   5   9   18.13    0.68
  -5  -5   9    3.04    0.22
  -5   5   9    2.42    0.23
   5   5  -9    2.48    0.22
   5   5  -9    2.78    0.22
  -5   5   9    2.45    0.22
  -5   5   9    2.58    0.20
  -4   5   9   23.32    0.84
   4   5  -9   22.77    0.84
   4   5  -9   23.09    0.83
  -4   5   9   23.78    0.84
  -4   5   9   22.68    0.83
  -3   5   9    0.93    0.16
   3   5  -9    0.56    0.12
   3   5  -9    0.85    0.21
  -3   5   9    1.01    0.19
   2   5  -9    2.75    0.22
  -2   5   9    2.86    0.27
  -2   5   9    2.77    0.28
  -2   5   9    2.41    0.23
   2   5  -9    2.86    0.27
  -1   5   9    8.12    0.41
  -1   5   9    8.57    0.41
   1   5  -9    9.30    0.40
   1   5  -9    9.38    0.44
  -1   5   9    8.64    0.39
   0   5   9    7.19    0.34
   0   5  -9    6.68    0.42
   0   5   9    6.63    0.39
   0   5   9    6.79    0.35
   0   5  -9    8.14    0.35
  -1   5  -9    0.41    0.12
  -1   5  -9    0.38    0.10
   1   5   9    0.53    0.15
   1   5   9    0.26    0.12
  -2  -5  -9   27.19    0.95
  -2   5  -9   27.46    0.97
   2   5   9   26.07    1.10
  -2   5  -9   27.43    0.96
   2   5   9   27.51    0.96
  -3  -5  -9    4.54    0.26
  -3   5  -9    4.14    0.29
   3   5   9    4.59    0.31
  -3   5  -9    4.32    0.26
   3   5   9    4.19    0.29
  -4  -5  -9    1.93    0.19
  -4   5  -9    1.92    0.26
   4   5   9    1.34    0.24
   4   5   9    2.24    0.25
  -5  -5  -9    7.42    0.33
  -5   5  -9    7.01    0.35
   5   5   9    6.63    0.36
   5   5   9    7.65    0.38
  -6  -5  -9   16.06    0.59
  -6   5  -9   15.61    0.61
   6   5   9   14.97    0.67
  -7  -5  -9    5.78    0.28
  -7   5  -9    5.55    0.32
  -8  -5  -9    8.98    0.38
  -9  -5  -9    0.07    0.09
 -10   6   9    0.84    0.18
 -10   6   9    0.67    0.12
  10   6  -9    0.76    0.11
  -9  -6   9    3.43    0.22
  -9   6   9    2.93    0.18
  -9   6   9    3.64    0.26
   9   6  -9    3.12    0.18
   8   6  -9   13.97    0.54
  -8   6   9   14.41    0.53
  -8   6   9   14.54    0.54
  -8   6   9   14.21    0.53
   8   6  -9   14.74    0.56
  -7  -6   9    2.26    0.19
  -7   6   9    2.17    0.18
   7   6  -9    2.17    0.18
  -7   6   9    2.05    0.21
  -7   6   9    2.21    0.18
   7   6  -9    2.31    0.20
  -6  -6   9    4.29    0.26
   6   6  -9    4.59    0.26
  -6   6   9    4.45    0.27
   6   6  -9    4.47    0.26
  -6   6   9    4.91    0.27
  -6   6   9    4.73    0.25
  -5  -6   9    2.53    0.21
  -5   6   9    2.74    0.25
  -5   6   9    2.62    0.22
   5   6  -9    2.57    0.21
   5   6  -9    2.61    0.22
  -5   6   9    2.98    0.20
  -4  -6   9    0.25    0.10
  -4   6   9    0.66    0.15
   4   6  -9    0.34    0.10
  -4   6   9    0.39    0.11
  -4   6   9    0.48    0.15
   4   6  -9    0.49    0.12
   3   6  -9    0.10    0.10
   3   6  -9    0.04    0.12
  -3   6   9   -0.01    0.09
  -3   6   9    0.31    0.10
  -3   6   9    0.12    0.15
  -2   6   9    9.42    0.39
   2   6  -9    8.86    0.42
   2   6  -9    8.92    0.40
  -2   6   9    9.59    0.41
   1   6  -9    0.04    0.09
   1   6  -9    0.24    0.13
  -1   6   9   -0.03    0.09
  -1   6   9    0.09    0.10
   0   6  -9    6.04    0.31
   0   6   9    6.06    0.32
   0   6  -9    6.13    0.35
   0   6   9    5.99    0.30
   1   6   9    0.30    0.12
  -1   6  -9    0.29    0.11
  -1   6  -9    0.20    0.10
   1   6   9    0.20    0.10
   2   6   9    0.04    0.11
  -2   6  -9   -0.05    0.11
  -2   6  -9    0.17    0.10
   2   6   9    0.09    0.12
  -3  -6  -9    5.53    0.32
  -3   6  -9    5.48    0.30
   3   6   9    5.77    0.30
  -3   6  -9    5.30    0.30
  -4  -6  -9    2.24    0.22
  -4   6  -9    2.68    0.22
   4   6   9    2.79    0.23
  -5  -6  -9    7.13    0.33
  -5   6  -9    7.40    0.36
   5   6   9    7.05    0.34
  -6  -6  -9   18.83    0.77
  -6   6  -9   20.14    0.74
  -7  -6  -9    0.01    0.10
  -8   7   9    5.49    0.23
  -8   7   9    5.39    0.23
  -7  -7   9    6.76    0.29
   7   7  -9    5.97    0.27
  -7   7   9    6.16    0.27
  -7   7   9    6.17    0.26
   7   7  -9    6.33    0.28
  -6  -7   9    1.23    0.15
  -6   7   9    1.38    0.13
  -6   7   9    1.56    0.15
   6   7  -9    1.09    0.13
   6   7  -9    1.24    0.15
  -5  -7   9    0.39    0.10
   5   7  -9    0.52    0.13
  -5   7   9    0.61    0.13
   5   7  -9    0.56    0.14
  -5   7   9    0.54    0.12
  -4  -7   9    5.09    0.26
  -4   7   9    4.91    0.24
   4   7  -9    4.90    0.26
  -4   7   9    4.94    0.26
   4   7  -9    4.84    0.25
  -3  -7   9    2.41    0.19
   3   7  -9    2.21    0.18
   3   7  -9    2.65    0.20
  -3   7   9    2.37    0.17
  -3   7   9    2.48    0.19
  -2  -7   9    3.93    0.24
  -2   7   9    3.56    0.23
   2   7  -9    3.97    0.23
  -2   7   9    3.58    0.21
   2   7  -9    3.61    0.24
  -1   7   9    0.30    0.14
  -1   7   9    0.19    0.08
   1   7  -9    0.13    0.12
   1   7  -9    0.08    0.12
   0   7   9    0.02    0.08
   0   7  -9   -0.06    0.13
   0   7   9    0.00    0.09
   0   7  -9    0.08    0.09
   1   7   9    1.47    0.16
   1   7   9    1.41    0.17
  -1   7  -9    1.39    0.16
   2   7   9    0.38    0.10
  -2   7  -9    0.40    0.09
   2   7   9    0.67    0.17
   3   7   9    2.06    0.18
  -3   7  -9    1.87    0.18
  -4   7  -9    1.40    0.19
   4   7   9    1.21    0.17
   5   7   9    8.16    0.35
  -5   8   9    2.44    0.14
   5   8  -9    2.48    0.16
   5   8  -9    2.49    0.15
  -5   8   9    2.42    0.13
  -4   8   9    0.42    0.09
  -4   8   9    0.47    0.10
   4   8  -9    0.60    0.13
  -3  -8   9    0.22    0.11
   3   8  -9    0.40    0.10
  -3   8   9    0.10    0.06
  -3   8   9    0.27    0.07
   3   8  -9    0.26    0.09
  -2  -8   9    0.13    0.11
  -2   8   9    0.16    0.06
   2   8  -9    0.14    0.06
   2   8  -9    0.14    0.10
  -2   8   9    0.19    0.06
  -1  -8   9    0.46    0.12
   1   8  -9    0.47    0.11
  -1   8   9    0.52    0.10
  -1   8   9    0.59    0.11
   0   8  -9    9.44    0.35
   0   8   9    8.88    0.35
   0   8   9    9.41    0.36
   1   8   9   29.73    1.01
  -1   8  -9   31.28    1.02
   1   8   9   29.75    1.01
  -2   8  -9    0.78    0.12
   2   8   9    0.78    0.12
  -3   8  -9   14.71    0.51
   3   8   9   14.56    0.51
 -14   0  10   20.10    0.69
 -14   0  10   17.68    0.65
  14   0 -10   18.55    0.65
  13   0 -10    0.06    0.08
 -13   0  10    0.08    0.09
 -13   0  10    0.02    0.08
 -12   0  10    3.09    0.23
 -11   0  10    0.04    0.10
 -11   0  10   -0.11    0.11
 -10   0  10   31.04    1.11
 -10   0  10   31.94    1.10
  -9   0  10   -0.09    0.12
  -9   0  10    0.09    0.11
   9   0 -10    0.13    0.17
   8   0 -10    3.97    0.33
  -8   0  10    4.65    0.28
  -8   0  10    4.62    0.27
  -8   0  10    4.42    0.29
  -7   0  10    0.15    0.13
  -7   0  10   -0.04    0.14
  -7   0  10    0.03    0.11
   6   0 -10   28.79    0.97
  -5   0  10   -0.02    0.06
   5   0 -10   -0.02    0.05
   4   0 -10    5.21    0.22
  -4   0  10    5.16    0.24
  -3   0  10    0.02    0.05
   3   0 -10    0.01    0.04
   2   0 -10    0.49    0.08
  -2   0  10    0.41    0.08
  -1   0  10   -0.02    0.04
   1   0 -10   -0.03    0.03
   0   0 -10  415.56   13.18
   0   0  10  400.64   13.07
   1   0  10    0.04    0.05
  -1   0 -10    0.01    0.04
  -2   0 -10  121.07    3.87
  -2   0 -10  118.03    3.88
   2   0  10  120.79    3.89
  -3   0 -10    0.14    0.07
  -3   0 -10    0.04    0.06
   3   0  10    0.05    0.07
  -4   0 -10  142.78    4.47
   4   0  10  129.32    4.48
  -4   0 -10  143.11    4.49
  -5   0 -10    0.06    0.12
  -5   0 -10    0.15    0.07
  -5   0 -10   -0.25    0.10
  -6   0 -10  124.70    4.02
  -6   0 -10  122.40    4.02
  -6   0 -10  124.00    4.02
  -7   0 -10    0.04    0.08
  -7   0 -10    0.03    0.11
  -8   0 -10   10.47    0.44
  -8   0 -10   11.34    0.45
  -8   0 -10   10.29    0.45
  -9   0 -10   -0.04    0.08
  -9   0 -10   -0.14    0.09
  -9   0 -10    0.05    0.09
 -10   0 -10   26.49    0.91
 -10   0 -10   24.42    0.92
 -10   0 -10   26.40    0.91
 -11   0 -10   -0.05    0.07
 -12   0 -10    7.73    0.31
  14  -1 -10   20.54    0.71
 -14  -1  10   20.97    0.72
 -14   1  10   20.68    0.76
 -14   1  10   21.05    0.72
  14   1 -10   21.50    0.72
 -13  -1  10    0.14    0.09
 -13   1  10    0.05    0.08
  13   1 -10    0.00    0.08
 -13   1  10    0.08    0.08
 -12  -1  10    6.84    0.33
 -12  -1  10    7.10    0.35
 -12   1  10    7.06    0.32
  12   1 -10    6.61    0.32
 -12   1  10    6.52    0.32
 -11  -1  10    0.50    0.12
 -11  -1  10    0.09    0.14
 -11   1  10    0.61    0.12
 -11   1  10    0.29    0.10
 -10  -1  10   18.75    0.72
 -10  -1  10   18.83    0.72
 -10   1  10   18.69    0.71
 -10   1  10   19.28    0.71
 -10   1  10   18.98    0.72
  -9  -1  10    1.12    0.20
  -9  -1  10    0.51    0.16
  -9   1  10    0.49    0.12
  -9   1  10    0.87    0.15
  -9   1  10    0.70    0.13
  -8  -1  10    1.07    0.20
  -8  -1  10    0.81    0.15
   8   1 -10    1.07    0.18
  -8   1  10    0.86    0.19
  -8   1  10    1.01    0.19
  -8   1  10    1.09    0.19
  -7  -1  10    0.04    0.13
  -7   1  10    0.53    0.13
  -7   1  10    0.27    0.13
  -7   1  10    0.30    0.13
   7   1 -10    0.21    0.15
   6  -1 -10   44.07    1.54
  -6   1  10   47.38    1.55
  -6   1  10   45.48    1.55
   5  -1 -10   29.37    0.99
  -5  -1  10   29.06    0.99
   5   1 -10   28.85    0.98
  -5   1  10   29.11    1.00
  -4  -1  10   73.98    2.34
   4  -1 -10   65.57    2.36
  -4   1  10   73.77    2.34
   4   1 -10   72.68    2.33
  -3  -1  10    9.53    0.36
   3  -1 -10    8.33    0.38
   3   1 -10    9.01    0.35
  -3   1  10    9.27    0.36
  -2  -1  10   13.42    0.48
   2   1 -10   13.00    0.48
  -2   1  10   13.04    0.48
   1  -1 -10    3.43    0.19
  -1  -1  10    4.04    0.19
  -1   1  10    3.95    0.19
   0  -1  10  173.45    5.57
   0  -1 -10  173.85    5.57
   0   1 -10  173.57    5.57
   0   1  10  171.09    5.57
   1  -1  10   20.04    0.68
  -1  -1 -10   18.84    0.68
  -1   1 -10   20.28    0.68
   1   1  10   18.53    0.68
  -1   1 -10   18.96    0.67
   2  -1  10   41.91    1.41
  -2  -1 -10   41.20    1.39
  -2  -1 -10   42.92    1.41
  -2   1 -10   41.86    1.41
   2   1  10   43.34    1.42
  -2   1 -10   41.73    1.40
  -3  -1 -10    0.15    0.07
   3  -1  10    0.04    0.09
  -3   1 -10    0.00    0.06
  -3   1 -10    0.06    0.07
   3   1  10    0.10    0.09
  -4  -1 -10   15.99    0.56
  -4  -1 -10   15.81    0.59
   4   1  10   14.02    0.60
  -4   1 -10   14.57    0.60
  -4   1 -10   15.85    0.60
  -5  -1 -10   19.53    0.68
  -5  -1 -10   18.81    0.71
  -5  -1 -10   19.62    0.70
  -5   1 -10   18.26    0.69
  -5   1 -10   19.19    0.69
  -6  -1 -10   -0.02    0.07
  -6  -1 -10    0.13    0.10
  -6  -1 -10    0.31    0.13
  -6   1 -10    0.10    0.08
  -6   1 -10    0.06    0.10
  -6   1 -10    0.15    0.10
  -7  -1 -10   16.77    0.62
  -7  -1 -10   17.01    0.62
  -7   1 -10   15.82    0.62
  -7   1 -10   16.90    0.63
  -7   1 -10   16.17    0.62
  -8  -1 -10   33.37    1.16
  -8  -1 -10   33.05    1.16
  -8  -1 -10   34.77    1.17
  -8   1 -10   35.51    1.18
  -8   1 -10   31.45    1.16
  -8   1 -10   33.08    1.16
  -9  -1 -10   38.88    1.39
  -9  -1 -10   40.98    1.38
  -9  -1 -10   42.45    1.39
  -9   1 -10   38.45    1.38
  -9   1 -10   41.25    1.39
  -9   1 -10   40.63    1.37
 -10  -1 -10   40.91    1.44
 -10  -1 -10   40.44    1.42
 -10   1 -10   45.13    1.43
 -10   1 -10   40.16    1.42
 -11  -1 -10   11.63    0.44
 -11  -1 -10   11.48    0.50
 -11   1 -10   11.56    0.45
 -11   1 -10   12.04    0.47
 -11   1 -10   11.25    0.44
 -12  -1 -10    1.00    0.15
 -12   1 -10    0.90    0.11
 -14   2  10    6.14    0.25
  14   2 -10    5.90    0.25
 -14   2  10    6.22    0.25
  13   2 -10   14.82    0.54
 -13   2  10   14.69    0.54
 -13   2  10   15.13    0.55
 -12  -2  10    1.67    0.24
 -12   2  10    1.87    0.17
  12   2 -10    2.19    0.17
 -12   2  10    1.75    0.16
 -11  -2  10   12.67    0.52
 -11   2  10   12.35    0.50
 -11   2  10   12.89    0.51
  11   2 -10   12.35    0.51
 -10  -2  10    1.22    0.23
  10   2 -10    1.12    0.18
 -10   2  10    1.25    0.20
 -10   2  10    1.18    0.18
 -10   2  10    1.11    0.19
  -9  -2  10    9.31    0.45
  -9   2  10   10.12    0.42
  -9   2  10    9.48    0.43
  -9   2  10   10.18    0.44
   9   2 -10    9.71    0.43
  -8  -2  10   34.16    1.21
  -8  -2  10   34.71    1.20
   8   2 -10   34.80    1.21
  -8   2  10   35.56    1.20
  -7  -2  10    9.41    0.48
  -7  -2  10    9.88    0.42
  -7   2  10   10.34    0.44
  -7   2  10   10.32    0.43
   7   2 -10    9.88    0.45
  -7   2  10   10.31    0.44
  -7   2  10   10.35    0.44
  -6  -2  10   15.99    0.58
   6   2 -10   14.78    0.60
  -6   2  10   15.66    0.59
  -6   2  10   15.36    0.60
  -6   2  10   16.20    0.59
  -6   2  10   15.31    0.59
   5  -2 -10    0.26    0.10
   4  -2 -10   45.24    1.51
  -4  -2  10   44.62    1.52
   4   2 -10   46.59    1.51
  -4   2  10   43.54    1.52
  -3  -2  10   13.35    0.51
   3  -2 -10   13.71    0.51
  -3   2  10   13.08    0.52
   3   2 -10   14.07    0.51
   3   2 -10   13.09    0.50
   2  -2 -10   36.12    1.16
  -2  -2  10   32.06    1.16
   2   2 -10   33.40    1.15
   2   2 -10   35.24    1.16
   1  -2 -10    1.41    0.12
  -1  -2  10    1.53    0.15
   1   2 -10    1.49    0.14
  -1   2  10    1.39    0.15
   1   2 -10    1.33    0.13
   0  -2 -10   30.22    1.02
   0  -2  10   28.92    1.03
   0   2  10   29.23    1.03
   0   2 -10   29.19    1.01
   0   2 -10   32.11    1.03
  -1  -2 -10   87.81    2.91
  -1  -2 -10   92.28    2.93
  -1   2 -10   88.84    2.92
  -1   2 -10   90.27    2.94
  -2  -2 -10    6.88    0.29
  -2  -2 -10    7.30    0.32
  -2   2 -10    7.43    0.30
  -2   2 -10    7.11    0.33
  -3  -2 -10   26.31    0.92
  -3  -2 -10   26.26    0.89
  -3   2 -10   25.08    0.93
  -4  -2 -10   25.71    0.98
  -4  -2 -10   27.60    0.93
  -4   2 -10   27.56    0.94
  -4   2 -10   27.04    0.95
  -5  -2 -10    1.12    0.30
  -5  -2 -10    1.25    0.14
  -5   2 -10    1.34    0.14
  -5   2 -10    1.13    0.23
  -5   2 -10    1.44    0.20
  -6  -2 -10    3.66    0.21
  -6  -2 -10    3.22    0.31
  -6   2 -10    3.26    0.24
  -6   2 -10    3.30    0.25
  -6   2 -10    3.58    0.22
  -7  -2 -10    6.80    0.37
  -7  -2 -10    7.06    0.32
  -7   2 -10    6.41    0.32
  -7   2 -10    6.73    0.33
  -7   2 -10    6.88    0.33
  -8  -2 -10    8.21    0.36
  -8  -2 -10    8.17    0.40
  -8   2 -10    8.15    0.37
  -8   2 -10    7.65    0.37
  -8   2 -10    8.71    0.37
  -9  -2 -10    0.14    0.08
  -9  -2 -10    0.27    0.14
  -9   2 -10    0.23    0.09
  -9   2 -10    0.16    0.11
  -9   2 -10    0.36    0.10
 -10  -2 -10    0.34    0.13
 -10  -2 -10    0.18    0.09
 -10   2 -10    0.09    0.08
 -10   2 -10    0.07    0.08
 -10   2 -10    0.33    0.11
 -11  -2 -10    1.24    0.14
 -11   2 -10    1.10    0.13
 -11   2 -10    1.00    0.13
 -11   2 -10    1.13    0.23
  12   2  10    7.55    0.28
  13   3 -10    6.82    0.29
 -13   3  10    7.58    0.29
 -13   3  10    7.36    0.29
 -12   3  10    6.23    0.29
  12   3 -10    6.41    0.29
 -12   3  10    6.21    0.28
 -11   3  10    0.11    0.09
 -11   3  10    0.19    0.10
 -11   3  10    0.21    0.09
  11   3 -10    0.18    0.09
 -10   3  10    0.05    0.10
 -10   3  10    0.06    0.09
 -10   3  10    0.26    0.11
  10   3 -10    0.11    0.10
  -9  -3  10    0.35    0.13
  -9   3  10    0.49    0.11
   9   3 -10    0.46    0.12
  -9   3  10    0.75    0.18
  -9   3  10    0.46    0.12
  -8  -3  10    6.04    0.31
   8   3 -10    5.27    0.30
  -8   3  10    5.36    0.31
  -8   3  10    5.52    0.31
  -8   3  10    5.45    0.30
   8   3 -10    5.16    0.32
  -8   3  10    5.44    0.31
  -7  -3  10   22.52    0.78
  -7   3  10   21.44    0.80
   7   3 -10   20.71    0.79
  -7   3  10   21.27    0.77
  -6  -3  10   25.89    0.94
  -6   3  10   26.74    0.94
   6   3 -10   27.16    0.95
  -6   3  10   28.11    0.96
  -6   3  10   27.25    0.97
  -6   3  10   26.21    0.94
  -5   3  10    7.48    0.35
  -5   3  10    6.64    0.40
   5   3 -10    7.49    0.35
  -5   3  10    6.96    0.33
  -5   3  10    7.29    0.33
   5   3 -10    7.32    0.36
   4  -3 -10    1.76    0.24
  -4   3  10    1.84    0.19
  -4   3  10    1.33    0.21
   4   3 -10    1.27    0.21
   4   3 -10    1.62    0.25
  -4   3  10    1.15    0.20
   3  -3 -10   21.03    0.78
   3   3 -10   20.98    0.76
   2  -3 -10   43.64    1.51
   2   3 -10   44.83    1.48
   1  -3 -10   20.63    0.75
   1   3 -10   20.35    0.73
   0  -3 -10    1.71    0.19
   0   3 -10    1.86    0.15
  -1  -3 -10    0.11    0.10
  -1  -3 -10    0.01    0.10
  -1   3 -10    0.05    0.07
  -2  -3 -10    1.79    0.16
   2   3  10    1.80    0.21
  -2   3 -10    1.87    0.15
  -3  -3 -10   17.84    0.62
  -3   3 -10   17.67    0.63
  -3   3 -10   16.37    0.67
  -4  -3 -10   10.56    0.41
  -4   3 -10   10.17    0.46
  -4   3 -10   10.68    0.43
  -5   3 -10    0.82    0.20
  -5   3 -10    0.52    0.14
  -6  -3 -10    2.70    0.19
  -6   3 -10    2.53    0.20
  -6   3 -10    2.48    0.23
  -7   3 -10    0.51    0.14
  -7   3 -10    0.75    0.13
  -7   3 -10    0.52    0.16
  -8  -3 -10   11.44    0.48
  -8   3 -10   12.22    0.48
  -8   3 -10   11.48    0.49
  -8   3 -10   12.12    0.48
  -9  -3 -10   14.22    0.56
  -9   3 -10   14.71    0.57
  -9   3 -10   15.09    0.55
 -10  -3 -10    0.01    0.08
 -10   3 -10    0.11    0.09
 -10   3 -10   -0.05    0.08
 -10   3 -10    0.11    0.14
 -11  -3 -10    6.10    0.27
 -11   3 -10    5.94    0.26
 -12   4  10    0.75    0.15
  12   4 -10    0.75    0.11
 -12   4  10    0.82    0.11
 -11   4  10    1.83    0.16
  11   4 -10    1.60    0.15
 -11   4  10    1.78    0.16
 -11   4  10    1.43    0.17
 -10  -4  10    1.07    0.22
 -10   4  10    0.93    0.18
 -10   4  10    0.96    0.15
  10   4 -10    0.72    0.14
 -10   4  10    1.23    0.16
  -9  -4  10    7.95    0.38
  -9   4  10    8.53    0.38
  -9   4  10    8.83    0.40
   9   4 -10    8.54    0.39
  -9   4  10    8.61    0.38
  -9   4  10    8.66    0.38
  -8  -4  10   10.67    0.47
  -8   4  10   11.28    0.47
  -8   4  10   11.94    0.49
   8   4 -10   10.99    0.48
  -8   4  10   11.57    0.48
  -8   4  10   11.37    0.46
   8   4 -10   11.36    0.48
  -7  -4  10    8.49    0.37
   7   4 -10    7.41    0.37
  -7   4  10    7.79    0.37
   7   4 -10    7.39    0.37
  -7   4  10    7.85    0.40
  -7   4  10    8.40    0.37
  -7   4  10    7.80    0.36
  -6  -4  10    0.97    0.16
  -6   4  10    1.17    0.17
   6   4 -10    0.87    0.20
  -6   4  10    0.81    0.19
   6   4 -10    0.78    0.18
  -6   4  10    0.81    0.18
  -6   4  10    1.00    0.20
  -5   4  10   19.77    0.73
   5   4 -10   19.28    0.73
  -5   4  10   19.48    0.71
   5   4 -10   19.78    0.72
  -5   4  10   19.84    0.72
  -4   4  10    3.51    0.25
  -4   4  10    3.89    0.26
   4   4 -10    3.19    0.24
   4   4 -10    3.69    0.27
  -4   4  10    3.70    0.23
  -3   4  10    4.70    0.28
   3   4 -10    4.90    0.28
   3   4 -10    5.07    0.32
  -3   4  10    4.82    0.27
   3   4 -10    5.08    0.27
  -3   4  10    5.31    0.29
   2   4 -10    0.48    0.10
   2   4 -10    0.91    0.19
  -2   4  10    0.49    0.13
  -2   4  10    0.60    0.12
   2   4 -10    0.52    0.12
  -2   4  10    0.63    0.14
   1   4 -10    6.04    0.30
  -1   4  10    5.53    0.33
  -1   4  10    5.78    0.32
  -1   4  10    5.62    0.30
   1   4 -10    5.81    0.28
   0   4 -10    6.95    0.31
   0   4 -10    7.25    0.34
   0   4  10    6.48    0.36
   0   4  10    6.55    0.34
   0   4  10    6.62    0.34
  -1  -4 -10   42.93    1.52
  -1   4 -10   47.90    1.55
   1   4  10   45.05    1.53
   1   4  10   45.09    1.54
   1   4  10   45.63    1.54
  -1   4 -10   47.42    1.54
  -2  -4 -10    0.91    0.16
   2   4  10    1.13    0.26
  -2   4 -10    1.10    0.14
  -2   4 -10    0.93    0.16
   2   4  10    1.18    0.21
  -3  -4 -10   36.98    1.23
  -3   4 -10   38.22    1.26
   3   4  10   35.18    1.23
   3   4  10   35.65    1.26
  -3   4 -10   35.20    1.26
  -4  -4 -10    8.70    0.37
  -4   4 -10    8.43    0.50
  -4   4 -10    9.06    0.39
   4   4  10    8.26    0.44
  -5  -4 -10    0.75    0.15
   5   4  10    0.64    0.12
  -5   4 -10    0.76    0.16
  -5   4 -10    0.59    0.16
  -6  -4 -10    9.04    0.38
   6   4  10    8.93    0.38
  -6   4 -10    9.14    0.41
  -6   4 -10    7.81    0.38
  -7  -4 -10   17.57    0.65
  -7   4 -10   17.10    0.66
   7   4  10   18.15    0.64
  -7   4 -10   16.67    0.66
  -8  -4 -10    3.98    0.23
  -8   4 -10    4.15    0.27
   8   4  10    3.99    0.23
  -8   4 -10    4.28    0.25
  -9  -4 -10    7.14    0.31
  -9   4 -10    6.67    0.36
   9   4  10    6.94    0.30
  -9   4 -10    6.86    0.31
 -10  -4 -10    0.58    0.14
  10   4  10    0.94    0.15
 -10   4 -10    0.66    0.13
 -11   5  10    6.83    0.28
  11   5 -10    6.95    0.28
 -10  -5  10    1.91    0.23
 -10   5  10    1.89    0.16
  10   5 -10    1.69    0.15
 -10   5  10    1.76    0.16
  -9  -5  10   12.49    0.51
  -9   5  10   12.41    0.48
  -9   5  10   12.88    0.49
   9   5 -10   12.94    0.50
  -9   5  10   12.72    0.49
  -8  -5  10    0.11    0.10
  -8   5  10    0.10    0.09
   8   5 -10    0.06    0.09
  -8   5  10   -0.12    0.09
  -8   5  10    0.08    0.10
  -7  -5  10    7.72    0.36
  -7   5  10    7.52    0.37
  -7   5  10    8.26    0.36
  -7   5  10    7.71    0.35
   7   5 -10    8.12    0.36
   7   5 -10    7.34    0.36
  -6  -5  10    0.19    0.09
  -6   5  10    0.13    0.09
   6   5 -10    0.09    0.10
  -6   5  10    0.03    0.11
   6   5 -10    0.12    0.10
  -6   5  10    0.16    0.11
  -5  -5  10    5.95    0.31
  -5   5  10    5.48    0.31
   5   5 -10    5.79    0.30
  -5   5  10    6.09    0.29
   5   5 -10    5.58    0.31
  -5   5  10    5.91    0.31
  -4   5  10    0.25    0.10
  -4   5  10    0.24    0.12
   4   5 -10    0.30    0.11
  -4   5  10    0.30    0.12
  -3   5  10   13.77    0.54
   3   5 -10   13.40    0.53
  -3   5  10   13.29    0.54
   3   5 -10   12.92    0.55
  -3   5  10   13.56    0.52
  -2   5  10    1.45    0.21
  -2   5  10    1.31    0.18
   2   5 -10    1.46    0.19
  -2   5  10    1.35    0.33
  -1   5  10   17.15    0.63
  -1   5  10   16.91    0.65
   1   5 -10   16.93    0.67
   1   5 -10   17.26    0.64
  -1   5  10   15.96    0.70
   1   5 -10   17.53    0.66
   0   5  10    8.08    0.38
   0   5  10    7.70    0.39
   0   5 -10    8.21    0.38
   0   5 -10    8.55    0.38
   1   5  10   12.45    0.53
   1   5  10   13.34    0.53
  -1   5 -10   13.82    0.53
   1   5  10   12.74    0.53
  -1   5 -10   13.09    0.53
  -2  -5 -10    1.70    0.22
   2   5  10    1.37    0.22
   2   5  10    1.42    0.25
   2   5  10    1.83    0.24
  -2   5 -10    1.53    0.18
  -2   5 -10    1.30    0.21
  -3  -5 -10   26.40    0.92
  -3   5 -10   24.92    0.92
  -3   5 -10   27.13    0.94
   3   5  10   25.36    0.92
   3   5  10   25.98    0.93
  -4  -5 -10    2.72    0.21
   4   5  10    2.42    0.24
  -4   5 -10    2.17    0.22
   4   5  10    2.72    0.27
  -5  -5 -10    0.22    0.11
  -5   5 -10    0.09    0.11
   5   5  10    0.40    0.13
  -6  -5 -10    3.45    0.21
  -6   5 -10    3.11    0.24
  -7  -5 -10    3.79    0.22
  -7   5 -10    3.91    0.27
  -8  -5 -10    0.33    0.10
  -8   5 -10    0.70    0.24
  -9  -5 -10    1.21    0.16
 -10   6  10    1.87    0.14
 -10   6  10    1.85    0.18
  10   6 -10    1.65    0.15
  -9  -6  10    0.00    0.11
   9   6 -10    0.13    0.07
  -9   6  10    0.10    0.07
  -8  -6  10    3.57    0.23
   8   6 -10    3.82    0.24
  -8   6  10    3.43    0.22
  -8   6  10    3.36    0.21
   8   6 -10    3.91    0.21
  -8   6  10    3.69    0.20
  -7  -6  10    3.06    0.21
  -7   6  10    2.89    0.20
   7   6 -10    3.13    0.20
   7   6 -10    3.35    0.22
  -7   6  10    2.97    0.22
  -7   6  10    3.40    0.20
  -6  -6  10    0.29    0.10
   6   6 -10    0.31    0.14
  -6   6  10    0.46    0.11
  -6   6  10    0.33    0.11
  -6   6  10    0.95    0.16
  -5  -6  10    0.45    0.11
   5   6 -10    0.63    0.12
  -5   6  10    0.69    0.16
   5   6 -10    0.73    0.16
  -5   6  10    0.65    0.13
  -5   6  10    1.10    0.16
  -4  -6  10   16.14    0.65
   4   6 -10   17.30    0.64
   4   6 -10   17.66    0.65
  -4   6  10   16.88    0.63
  -4   6  10   17.01    0.65
  -4   6  10   17.37    0.65
   3   6 -10    3.18    0.23
  -3   6  10    3.10    0.28
   3   6 -10    3.26    0.26
  -3   6  10    3.48    0.23
  -3   6  10    3.16    0.21
  -2   6  10    0.11    0.08
  -2   6  10    0.34    0.14
   2   6 -10    0.25    0.14
  -2   6  10    0.14    0.11
   2   6 -10   -0.08    0.09
   1   6 -10   34.16    1.16
   1   6 -10   32.41    1.15
  -1   6  10   33.02    1.14
  -1   6  10   33.24    1.16
   0   6  10   25.55    0.89
   0   6  10   24.81    0.90
   0   6 -10   25.27    0.90
   0   6 -10   24.71    0.91
   1   6  10    0.77    0.18
  -1   6 -10    0.62    0.12
   1   6  10    0.66    0.13
  -1   6 -10    0.63    0.17
  -2   6 -10   10.80    0.43
  -2   6 -10    9.24    0.44
   2   6  10    9.72    0.43
   2   6  10   10.53    0.44
  -3   6 -10    8.55    0.38
  -3   6 -10    8.08    0.39
   3   6  10    8.87    0.39
  -4  -6 -10    0.34    0.14
  -4   6 -10    0.40    0.14
   4   6  10    0.18    0.14
  -4   6 -10    0.28    0.11
  -5  -6 -10    2.61    0.22
   5   6  10    2.61    0.26
  -5   6 -10    2.36    0.22
  -6  -6 -10    1.02    0.19
  -6   6 -10    0.79    0.17
  -7  -6 -10    3.35    0.24
  -8   7  10    0.58    0.12
   8   7 -10    0.42    0.10
  -7  -7  10    3.24    0.20
   7   7 -10    3.15    0.18
  -7   7  10    3.19    0.17
  -7   7  10    3.28    0.17
   7   7 -10    3.23    0.20
  -6  -7  10    4.36    0.23
  -6   7  10    3.89    0.20
   6   7 -10    4.23    0.22
  -6   7  10    3.93    0.21
   6   7 -10    4.72    0.22
   5   7 -10    0.19    0.08
   5   7 -10    0.15    0.09
  -5   7  10    0.15    0.08
  -5   7  10    0.11    0.07
  -4  -7  10    3.72    0.23
   4   7 -10    3.85    0.21
  -4   7  10    3.71    0.22
   4   7 -10    3.53    0.23
  -4   7  10    3.76    0.20
  -3  -7  10    9.11    0.40
  -3   7  10    9.23    0.38
   3   7 -10    8.98    0.39
   3   7 -10    9.06    0.38
  -3   7  10    9.18    0.37
  -2  -7  10    0.46    0.12
   2   7 -10    0.62    0.14
  -2   7  10    0.52    0.13
  -2   7  10    0.71    0.15
   2   7 -10    0.70    0.17
  -1   7  10    6.70    0.29
   1   7 -10    5.85    0.31
  -1   7  10    6.24    0.30
   1   7 -10    6.72    0.30
   0   7 -10   15.31    0.57
   0   7  10   15.14    0.57
   0   7  10   15.37    0.56
   1   7  10    0.70    0.15
   1   7  10    0.79    0.15
  -1   7 -10    1.00    0.15
  -2   7 -10    2.11    0.18
   2   7  10    2.33    0.22
   2   7  10    2.20    0.18
   3   7  10    0.22    0.10
  -3   7 -10    0.19    0.10
   4   7  10    2.46    0.20
  -5   8  10   -0.01    0.05
   5   8 -10    0.15    0.07
  -5   8  10    0.15    0.05
   5   8 -10    0.06    0.09
   4   8 -10    1.66    0.12
  -4   8  10    1.37    0.15
   4   8 -10    1.77    0.16
  -4   8  10    1.49    0.12
  -3  -8  10    2.85    0.24
  -3   8  10    2.86    0.16
  -3   8  10    3.00    0.15
   3   8 -10    2.85    0.15
   3   8 -10    2.61    0.20
  -2  -8  10    0.08    0.11
  -2   8  10   -0.09    0.06
   2   8 -10    0.02    0.06
  -2   8  10   -0.02    0.06
  -1  -8  10    0.15    0.11
  -1   8  10   -0.01    0.06
   1   8 -10    0.02    0.06
  -1   8  10   -0.04    0.06
   0   8  10    6.34    0.27
   0   8 -10    6.84    0.27
   0   8  10    6.66    0.27
   1   8  10   15.27    0.59
  -2   8 -10    3.17    0.17
   2   8  10    3.03    0.17
 -14   0  11   -0.08    0.07
  14   0 -11    0.06    0.07
  13   0 -11   16.32    0.60
 -13   0  11   16.23    0.59
 -13   0  11   16.45    0.60
 -12   0  11   -0.02    0.08
 -12   0  11   -0.05    0.10
 -11   0  11    7.45    0.36
 -11   0  11    7.64    0.36
 -10   0  11   -0.04    0.10
 -10   0  11    0.13    0.12
  -9   0  11    0.28    0.13
   9   0 -11    0.31    0.17
  -9   0  11    0.41    0.12
  -9   0  11    0.43    0.12
  -8   0  11   -0.04    0.13
  -8   0  11   -0.03    0.11
   8   0 -11   -0.12    0.15
  -8   0  11    0.04    0.10
  -7   0  11   93.93    3.05
  -7   0  11   95.30    3.06
  -7   0  11   90.03    3.04
  -6   0  11    0.13    0.12
  -6   0  11    0.20    0.14
   5   0 -11   53.10    1.77
  -5   0  11   53.97    1.77
  -4   0  11    0.10    0.07
   3   0 -11   19.95    0.70
  -3   0  11   20.03    0.70
   2   0 -11   -0.04    0.04
  -2   0  11    0.04    0.05
  -1   0  11   19.08    0.71
   1   0 -11   21.54    0.71
   0   0 -11    0.00    0.04
   0   0  11    0.02    0.05
   1   0  11   55.44    1.84
  -1   0 -11   56.18    1.84
  -1   0 -11   55.51    1.82
  -2   0 -11    0.11    0.06
  -2   0 -11   -0.07    0.06
   2   0  11   -0.01    0.07
  -3   0 -11   16.25    0.61
  -3   0 -11   16.80    0.59
   3   0  11   16.57    0.66
  -4   0 -11   -0.04    0.11
  -4   0 -11    0.24    0.14
  -4   0 -11    0.10    0.07
  -5   0 -11    2.85    0.23
  -5   0 -11    2.86    0.23
  -5   0 -11    3.19    0.19
  -6   0 -11   -0.09    0.10
  -6   0 -11    0.03    0.07
  -6   0 -11    0.21    0.11
  -7   0 -11    7.57    0.35
  -7   0 -11    7.25    0.34
  -7   0 -11    7.86    0.34
  -8   0 -11    0.22    0.10
  -8   0 -11    0.11    0.09
  -9   0 -11   18.42    0.66
  -9   0 -11   18.28    0.67
  -9   0 -11   16.72    0.66
 -10   0 -11    0.04    0.09
 -10   0 -11   -0.10    0.08
 -10   0 -11    0.03    0.07
 -11   0 -11    8.09    0.34
 -11   0 -11    7.81    0.33
 -12   0 -11    0.11    0.06
  14  -1 -11    0.21    0.08
 -14  -1  11    0.35    0.12
  14   1 -11    0.25    0.08
 -14   1  11    0.39    0.08
 -14   1  11    0.06    0.07
 -13  -1  11    0.36    0.10
 -13   1  11    0.60    0.13
  13   1 -11    0.34    0.09
 -13   1  11    0.30    0.08
 -12  -1  11    0.12    0.10
 -12   1  11    0.11    0.09
 -12   1  11    0.06    0.09
  12   1 -11    0.15    0.09
 -11  -1  11    4.50    0.27
 -11  -1  11    4.34    0.32
 -11   1  11    4.70    0.27
 -11   1  11    4.38    0.26
 -10  -1  11    4.29    0.33
 -10  -1  11    4.65    0.29
 -10   1  11    4.48    0.28
 -10   1  11    4.18    0.28
 -10   1  11    4.50    0.28
  -9  -1  11   36.19    1.24
  -9   1  11   36.28    1.24
  -9   1  11   35.99    1.23
  -9   1  11   36.58    1.24
   9   1 -11   32.01    1.30
  -8  -1  11   -0.01    0.13
  -8   1  11    0.03    0.10
   8   1 -11    0.32    0.14
  -8   1  11    0.00    0.10
  -8   1  11    0.01    0.12
  -7  -1  11    1.89    0.24
  -7   1  11    1.45    0.20
  -7   1  11    1.37    0.22
   7   1 -11    1.57    0.25
  -7   1  11    1.77    0.21
  -6   1  11    0.18    0.13
  -6   1  11    0.12    0.12
  -6   1  11    0.02    0.13
  -6   1  11    0.46    0.13
   6   1 -11   -0.04    0.13
  -5  -1  11    9.53    0.40
   5  -1 -11    9.63    0.39
   5   1 -11    9.55    0.39
  -5   1  11    9.59    0.42
  -4  -1  11    1.05    0.16
   4  -1 -11    1.14    0.13
  -4   1  11    1.10    0.17
   4   1 -11    1.43    0.14
  -3  -1  11   20.86    0.72
   3  -1 -11   20.49    0.71
  -3   1  11   19.08    0.71
   3   1 -11   20.21    0.71
  -2  -1  11  119.52    3.96
   2  -1 -11  124.94    3.96
  -2   1  11  124.78    3.97
   2   1 -11  120.17    3.96
  -1  -1  11    2.01    0.15
   1  -1 -11    1.94    0.13
  -1   1  11    1.84    0.15
   1   1 -11    2.00    0.13
   0  -1  11   18.05    0.64
   0  -1 -11   17.82    0.64
   0   1 -11   18.23    0.64
   0   1  11   17.50    0.65
   0   1 -11   18.28    0.63
  -1  -1 -11   52.52    1.75
  -1  -1 -11   55.06    1.77
   1  -1  11   51.05    1.77
  -1   1 -11   53.05    1.77
   1   1  11   52.61    1.77
  -1   1 -11   55.81    1.75
  -2  -1 -11    0.08    0.08
  -2  -1 -11    0.03    0.06
   2   1  11   -0.03    0.08
  -2   1 -11    0.03    0.06
  -2   1 -11    0.01    0.07
  -3  -1 -11    3.64    0.19
  -3  -1 -11    3.90    0.25
  -3   1 -11    3.55    0.19
  -3   1 -11    3.59    0.25
  -4  -1 -11    1.89    0.25
  -4  -1 -11    1.84    0.14
  -4  -1 -11    1.97    0.21
  -4   1 -11    1.96    0.28
  -4   1 -11    1.92    0.15
  -4   1 -11    1.58    0.21
  -5  -1 -11   77.33    2.46
  -5  -1 -11   76.45    2.47
  -5  -1 -11   72.90    2.47
  -5   1 -11   73.22    2.46
  -5   1 -11   74.21    2.46
  -5   1 -11   75.30    2.47
  -6  -1 -11    0.01    0.10
  -6  -1 -11    0.14    0.12
  -6  -1 -11    0.18    0.08
  -6   1 -11    0.19    0.11
  -6   1 -11    0.09    0.10
  -6   1 -11    0.01    0.09
  -7  -1 -11   -0.04    0.12
  -7  -1 -11    0.12    0.10
  -7  -1 -11    0.21    0.08
  -7   1 -11    0.17    0.09
  -7   1 -11    0.14    0.08
  -7   1 -11    0.21    0.10
  -8  -1 -11   21.39    0.75
  -8  -1 -11   21.04    0.75
  -8  -1 -11   19.22    0.75
  -8   1 -11   20.15    0.74
  -8   1 -11   20.16    0.75
  -8   1 -11   19.99    0.75
  -9  -1 -11    6.76    0.33
  -9  -1 -11    7.77    0.35
  -9   1 -11    7.24    0.33
  -9   1 -11    6.62    0.33
  -9   1 -11    7.09    0.33
 -10  -1 -11    1.23    0.17
 -10  -1 -11    1.40    0.16
 -10   1 -11    1.26    0.16
 -10   1 -11    1.12    0.15
 -10   1 -11    1.28    0.15
 -11  -1 -11   11.79    0.45
 -11  -1 -11   11.43    0.44
 -11   1 -11   11.09    0.44
 -11   1 -11   11.81    0.46
 -12  -1 -11    0.60    0.11
  14   2 -11    0.28    0.08
 -14   2  11    0.14    0.06
 -14   2  11    0.09    0.06
  13   2 -11    1.60    0.14
 -13   2  11    1.51    0.14
 -13   2  11    1.34    0.13
 -12  -2  11    2.68    0.25
 -12   2  11    2.25    0.18
 -12   2  11    2.43    0.18
  12   2 -11    2.73    0.19
  11   2 -11    7.74    0.36
 -11   2  11    8.04    0.36
 -11   2  11    8.32    0.37
 -11   2  11    7.68    0.36
 -10  -2  11    4.09    0.29
 -10   2  11    4.00    0.27
 -10   2  11    4.22    0.26
 -10   2  11    4.25    0.26
  10   2 -11    3.77    0.26
  -9  -2  11    1.39    0.26
   9   2 -11    1.40    0.26
  -9   2  11    1.48    0.20
  -9   2  11    1.01    0.20
   9   2 -11    1.34    0.19
  -9   2  11    1.18    0.19
  -8  -2  11   33.70    1.23
  -8   2  11   34.68    1.23
  -8   2  11   36.58    1.22
  -8   2  11   35.79    1.23
   8   2 -11   35.86    1.22
  -7  -2  11   -0.11    0.12
  -7  -2  11    0.20    0.18
  -7   2  11    0.20    0.12
   7   2 -11    0.03    0.13
  -7   2  11    0.27    0.12
  -7   2  11    0.02    0.10
  -7   2  11    0.02    0.10
  -6  -2  11    0.56    0.19
   6   2 -11    0.52    0.13
  -6   2  11    0.26    0.13
  -6   2  11    0.23    0.12
  -6   2  11    0.19    0.11
  -6   2  11    0.38    0.14
   5  -2 -11  118.86    3.84
  -5   2  11  120.03    3.83
  -5   2  11  116.16    3.82
   5   2 -11  115.24    3.82
  -5   2  11  118.29    3.82
   4  -2 -11    9.91    0.42
   4   2 -11   10.35    0.42
   3  -2 -11    8.60    0.36
   3   2 -11    8.40    0.34
   3   2 -11    8.03    0.36
   2  -2 -11    0.78    0.13
   2   2 -11    0.64    0.13
   2   2 -11    0.83    0.14
   1  -2 -11   84.47    2.75
   1   2 -11   81.60    2.73
   1   2 -11   85.93    2.76
   0  -2 -11   14.23    0.52
   0   2 -11   13.42    0.50
   0   2 -11   13.52    0.52
  -1  -2 -11  119.79    4.03
  -1  -2 -11  127.27    4.07
  -1   2 -11  124.20    4.04
  -1   2 -11  129.32    4.08
  -2  -2 -11   17.61    0.61
  -2  -2 -11   16.57    0.65
  -2   2 -11   17.27    0.62
  -2   2 -11   17.54    0.66
  -3  -2 -11    4.89    0.23
  -3  -2 -11    4.31    0.30
  -3   2 -11    4.85    0.23
  -3   2 -11    4.70    0.33
  -4  -2 -11    6.39    0.29
  -4   2 -11    5.94    0.32
  -4   2 -11    6.88    0.29
  -5  -2 -11   16.61    0.58
  -5  -2 -11   14.67    0.62
  -5   2 -11   15.20    0.59
  -5   2 -11   14.40    0.60
  -5   2 -11   15.36    0.57
  -6  -2 -11    8.65    0.36
  -6  -2 -11    8.06    0.41
  -6   2 -11    8.55    0.37
  -6   2 -11    8.19    0.38
  -6   2 -11    8.10    0.39
  -7  -2 -11    1.11    0.26
  -7  -2 -11    1.42    0.16
  -7   2 -11    1.47    0.20
  -7   2 -11    1.78    0.17
  -7   2 -11    1.57    0.19
  -8  -2 -11   31.36    1.05
  -8  -2 -11   27.69    1.04
  -8   2 -11   29.44    1.05
  -8   2 -11   30.23    1.03
  -8   2 -11   30.13    1.05
  -9  -2 -11    5.53    0.29
  -9   2 -11    6.34    0.30
  -9   2 -11    5.67    0.29
  -9   2 -11    5.91    0.30
 -10  -2 -11    1.19    0.22
 -10  -2 -11    1.10    0.14
 -10   2 -11    1.07    0.15
 -10   2 -11    1.18    0.17
 -10   2 -11    1.08    0.14
 -11  -2 -11    2.19    0.17
 -11   2 -11    2.14    0.24
 -11   2 -11    2.08    0.15
  12   2  11    6.20    0.24
 -12   2 -11    6.20    0.24
  13   3 -11    4.20    0.21
 -13   3  11    4.06    0.19
  12   3 -11   19.44    0.70
 -12   3  11   20.00    0.70
 -12   3  11   19.75    0.70
 -11   3  11    2.85    0.20
 -11   3  11    2.58    0.20
  11   3 -11    2.62    0.19
 -11   3  11    2.80    0.20
  10   3 -11    3.66    0.25
 -10   3  11    4.07    0.25
 -10   3  11    3.92    0.24
 -10   3  11    4.04    0.26
  -9  -3  11   24.83    0.95
   9   3 -11   27.41    0.97
  -9   3  11   27.49    0.97
   9   3 -11   26.39    0.95
  -9   3  11   27.73    0.97
  -9   3  11   27.68    0.96
  -8  -3  11   67.63    2.19
   8   3 -11   63.92    2.20
  -8   3  11   66.03    2.19
  -8   3  11   66.79    2.20
   8   3 -11   65.90    2.19
  -8   3  11   66.34    2.20
  -8   3  11   64.41    2.18
  -7  -3  11    1.72    0.19
   7   3 -11    1.32    0.20
  -7   3  11    1.31    0.20
  -7   3  11    1.53    0.19
  -7   3  11    1.64    0.20
   7   3 -11    1.45    0.23
  -6  -3  11   25.48    0.91
  -6   3  11   26.05    0.93
   6   3 -11   25.73    0.92
  -6   3  11   25.39    0.92
  -6   3  11   26.12    0.91
  -6   3  11   26.42    0.93
   6   3 -11   26.16    0.93
   5   3 -11   12.13    0.50
  -5   3  11   12.31    0.48
  -5   3  11   11.81    0.49
   5   3 -11   12.11    0.49
  -5   3  11   12.49    0.52
  -5   3  11   11.50    0.48
  -4   3  11   11.64    0.47
  -4   3  11   12.03    0.48
  -4   3  11   11.64    0.46
   4   3 -11   11.36    0.47
   4   3 -11   11.25    0.49
  -3   3  11   29.69    1.06
   3   3 -11   32.42    1.05
   3   3 -11   29.04    1.05
  -3   3  11   30.22    1.05
  -3   3  11   30.65    1.05
  -2   3  11    6.12    0.39
   2   3 -11    6.31    0.32
   2   3 -11    5.55    0.28
   1   3 -11    0.51    0.14
   0   3 -11   34.15    1.16
  -1  -3 -11    3.52    0.22
   1   3  11    3.36    0.24
  -1   3 -11    3.85    0.21
  -2  -3 -11   60.42    2.00
  -2   3 -11   63.81    2.03
   2   3  11   58.77    2.01
  -3  -3 -11   -0.05    0.08
   3   3  11   -0.07    0.10
  -3   3 -11    0.10    0.08
  -3   3 -11    0.39    0.15
  -4  -3 -11    4.24    0.23
  -4   3 -11    3.95    0.29
  -4   3 -11    3.81    0.23
  -5  -3 -11   33.55    1.16
  -5   3 -11   33.78    1.17
  -6  -3 -11    6.52    0.31
  -6   3 -11    7.24    0.33
  -6   3 -11    6.26    0.33
  -7  -3 -11    1.13    0.16
  -7   3 -11    1.45    0.24
  -7   3 -11    1.23    0.19
  -7   3 -11    1.48    0.18
  -8  -3 -11   63.46    2.18
  -8   3 -11   68.02    2.16
  -8   3 -11   67.23    2.18
  -8   3 -11   62.96    2.18
  -9  -3 -11    7.04    0.32
  -9   3 -11    6.94    0.33
  -9   3 -11    6.88    0.32
  -9   3 -11    6.64    0.31
 -10  -3 -11    1.18    0.15
  10   3  11    1.44    0.13
 -10   3 -11    1.16    0.21
 -10   3 -11    1.18    0.14
 -11  -3 -11    0.03    0.09
  11   3  11   -0.01    0.06
 -11   3 -11    0.14    0.09
 -12   4  11    2.73    0.16
 -12   4  11    2.89    0.18
  12   4 -11    2.86    0.16
  11   4 -11    0.59    0.12
 -11   4  11    0.63    0.12
 -11   4  11    0.54    0.11
 -11   4  11    0.73    0.14
 -10  -4  11    1.52    0.27
  10   4 -11    1.54    0.17
 -10   4  11    1.89    0.17
 -10   4  11    2.05    0.20
 -10   4  11    1.71    0.17
  -9  -4  11    7.59    0.37
   9   4 -11    7.95    0.37
  -9   4  11    8.17    0.37
  -9   4  11    8.32    0.38
  -9   4  11    8.32    0.37
  -9   4  11    8.51    0.37
   9   4 -11    7.72    0.38
  -8  -4  11   11.27    0.48
  -8   4  11   11.59    0.47
   8   4 -11   11.72    0.48
  -8   4  11   11.84    0.48
   8   4 -11   11.17    0.48
  -8   4  11   12.00    0.48
  -8   4  11   11.26    0.49
  -7  -4  11    5.02    0.29
   7   4 -11    5.42    0.30
  -7   4  11    5.73    0.35
  -7   4  11    5.47    0.30
  -7   4  11    5.48    0.29
   7   4 -11    5.23    0.30
  -7   4  11    5.52    0.30
  -6  -4  11    1.04    0.17
  -6   4  11    0.83    0.20
   6   4 -11    1.13    0.20
  -6   4  11    0.89    0.17
   6   4 -11    0.96    0.19
  -6   4  11    1.20    0.19
  -6   4  11    1.40    0.19
  -5   4  11    5.22    0.33
  -5   4  11    4.84    0.28
   4   4 -11    0.22    0.14
  -4   4  11    0.33    0.11
  -4   4  11    0.33    0.11
   4   4 -11    0.20    0.11
  -4   4  11    0.40    0.11
  -3   4  11   20.02    0.71
   3   4 -11   19.38    0.72
  -3   4  11   19.16    0.72
   3   4 -11   19.74    0.73
  -3   4  11   19.60    0.72
   3   4 -11   19.31    0.74
   2   4 -11   41.94    1.48
   2   4 -11   43.89    1.47
  -2   4  11   43.69    1.46
  -2   4  11   43.08    1.47
   2   4 -11   44.48    1.48
  -2   4  11   42.81    1.46
   1   4 -11   12.80    0.49
  -1   4  11   12.04    0.49
   1   4 -11   12.06    0.49
  -1   4  11   12.83    0.51
  -1   4  11   11.95    0.49
   0   4  11    5.04    0.28
   0   4 -11    5.12    0.30
   0   4 -11    5.28    0.26
   0   4  11    4.81    0.32
   0   4  11    4.57    0.29
  -1   4 -11    8.72    0.40
  -1   4 -11    8.50    0.37
   1   4  11    8.70    0.38
   1   4  11    8.80    0.41
   1   4  11    9.11    0.43
  -2  -4 -11    4.32    0.25
   2   4  11    4.74    0.35
  -2   4 -11    4.43    0.32
  -2   4 -11    4.56    0.25
   2   4  11    4.38    0.27
  -3  -4 -11    6.26    0.29
  -3   4 -11    5.73    0.30
   3   4  11    5.83    0.30
  -4  -4 -11   11.66    0.45
   4   4  11   11.04    0.45
  -4   4 -11   11.00    0.46
  -4   4 -11   10.45    0.49
  -5  -4 -11    0.70    0.15
   5   4  11    0.93    0.18
  -5   4 -11    0.52    0.15
  -5   4 -11    0.79    0.16
  -6  -4 -11   22.20    0.83
  -6   4 -11   21.94    0.84
   6   4  11   24.38    0.82
  -6   4 -11   23.75    0.84
  -7  -4 -11    2.58    0.19
  -7   4 -11    2.97    0.24
   7   4  11    2.91    0.20
  -7   4 -11    2.67    0.22
  -8  -4 -11   37.39    1.28
  -8   4 -11   37.35    1.27
   8   4  11   37.98    1.26
  -8   4 -11   36.76    1.28
  -9  -4 -11   -0.02    0.08
  -9   4 -11   -0.03    0.14
   9   4  11    0.15    0.08
  -9   4 -11    0.05    0.09
 -10  -4 -11    2.53    0.18
 -10   4 -11    2.48    0.16
  10   4  11    2.00    0.17
 -11   5  11    4.88    0.23
  11   5 -11    4.55    0.21
 -10  -5  11    0.18    0.16
  10   5 -11    0.30    0.08
 -10   5  11    0.22    0.08
 -10   5  11    0.27    0.08
  -9  -5  11    4.21    0.26
  -9   5  11    4.42    0.24
  -9   5  11    4.34    0.24
   9   5 -11    4.66    0.24
  -9   5  11    4.22    0.24
  -8  -5  11    4.72    0.28
   8   5 -11    5.02    0.27
   8   5 -11    4.57    0.31
  -8   5  11    5.32    0.27
  -8   5  11    5.12    0.34
  -7  -5  11    3.76    0.25
   7   5 -11    4.09    0.25
  -7   5  11    4.14    0.25
  -7   5  11    4.42    0.25
  -7   5  11    4.12    0.26
   7   5 -11    4.36    0.26
  -6  -5  11   34.59    1.25
  -6   5  11   36.16    1.23
   6   5 -11   35.38    1.24
  -6   5  11   35.91    1.25
   6   5 -11   37.33    1.24
  -6   5  11   36.41    1.24
  -5  -5  11   10.18    0.47
  -5   5  11   10.80    0.44
  -5   5  11    9.83    0.43
   5   5 -11    9.53    0.42
   5   5 -11    9.80    0.44
  -5   5  11   10.19    0.42
   4   5 -11   12.66    0.51
  -4   5  11   12.85    0.51
  -4   5  11   12.51    0.51
  -4   5  11   12.66    0.50
   4   5 -11   12.49    0.52
  -3   5  11    4.44    0.27
   3   5 -11    4.84    0.27
  -3   5  11    4.59    0.25
  -3   5  11    4.14    0.28
   3   5 -11    4.42    0.30
  -2   5  11    0.20    0.11
  -2   5  11    0.32    0.12
   2   5 -11    0.27    0.11
   2   5 -11    0.06    0.10
   2   5 -11   -0.05    0.16
  -2   5  11    0.22    0.12
  -1   5  11    0.49    0.13
  -1   5  11    0.65    0.14
   1   5 -11    0.38    0.11
  -1   5  11    0.36    0.11
   1   5 -11    0.28    0.10
   0   5  11   -0.02    0.12
   0   5  11    0.35    0.13
   0   5 -11    0.46    0.12
   0   5 -11    0.00    0.09
   0   5  11    0.10    0.11
  -1   5 -11    0.16    0.12
   1   5  11    0.12    0.12
   1   5  11    0.22    0.13
   1   5  11    0.33    0.14
  -1   5 -11    0.15    0.09
  -2   5 -11   20.92    0.75
  -2   5 -11   20.30    0.74
   2   5  11   19.83    0.73
   2   5  11   18.91    0.74
   2   5  11   19.45    0.74
  -3  -5 -11    3.33    0.24
  -3   5 -11    2.75    0.29
   3   5  11    3.22    0.28
  -3   5 -11    2.35    0.26
   3   5  11    2.96    0.25
  -4  -5 -11    4.09    0.25
  -4   5 -11    4.32    0.26
   4   5  11    4.10    0.26
  -5  -5 -11    0.37    0.11
  -5   5 -11    0.21    0.11
   5   5  11    0.20    0.12
  -6  -5 -11    2.48    0.19
  -6   5 -11    2.36    0.22
   6   5  11    2.41    0.22
  -7  -5 -11    7.43    0.33
  -7   5 -11    7.39    0.36
   7   5  11    6.99    0.32
  -8  -5 -11    8.82    0.37
  -8   5 -11    8.77    0.43
  -9  -5 -11    3.95    0.30
 -10   6  11    1.40    0.12
  10   6 -11    1.32    0.11
  -9  -6  11    0.73    0.19
  -9   6  11    0.92    0.12
  -9   6  11    0.67    0.17
   9   6 -11    0.83    0.11
  -8  -6  11    1.30    0.17
   8   6 -11    1.11    0.14
  -8   6  11    1.10    0.16
   8   6 -11    1.50    0.18
  -8   6  11    1.40    0.14
  -8   6  11    1.30    0.14
  -7  -6  11   16.55    0.63
   7   6 -11   16.74    0.61
  -7   6  11   17.07    0.61
  -7   6  11   16.87    0.62
   7   6 -11   16.54    0.62
  -7   6  11   16.66    0.61
  -6  -6  11   10.10    0.43
  -6   6  11   10.32    0.42
  -6   6  11    9.86    0.48
   6   6 -11    9.90    0.42
   6   6 -11   10.44    0.42
  -5  -6  11    3.64    0.24
   5   6 -11    3.34    0.24
  -5   6  11    3.95    0.23
  -5   6  11    3.94    0.24
   5   6 -11    3.74    0.24
  -4  -6  11    3.23    0.23
  -4   6  11    3.36    0.26
   4   6 -11    3.11    0.24
   4   6 -11    2.96    0.22
  -4   6  11    3.51    0.22
  -4   6  11    2.88    0.23
   3   6 -11   11.94    0.50
  -3   6  11   11.66    0.50
   3   6 -11   12.12    0.49
  -3   6  11   12.14    0.48
  -3   6  11   12.18    0.49
  -2   6  11   20.52    0.74
  -2   6  11   20.07    0.73
  -2   6  11   19.28    0.74
   2   6 -11   21.01    0.75
   2   6 -11   19.28    0.73
  -1   6  11    6.18    0.31
  -1   6  11    6.04    0.29
   1   6 -11    5.63    0.35
   1   6 -11    5.47    0.30
  -1   6  11    5.70    0.34
   0   6 -11   32.08    1.08
   0   6 -11   29.57    1.10
   0   6  11   31.21    1.07
   0   6  11   29.52    1.08
   0   6  11   31.85    1.08
   1   6  11    2.78    0.23
  -1   6 -11    2.41    0.22
  -1   6 -11    2.71    0.22
   1   6  11    2.73    0.22
   2   6  11    0.18    0.14
  -2   6 -11    0.36    0.12
  -2   6 -11    0.42    0.12
   2   6  11    0.28    0.13
   3   6  11    5.96    0.31
  -3   6 -11    4.79    0.29
  -4   6 -11   43.36    1.52
   4   6  11   45.73    1.50
  -5  -6 -11    1.67    0.24
  -5   6 -11    2.11    0.21
  -6  -6 -11    1.56    0.24
  -6   6 -11    1.72    0.25
  -8   7  11    8.31    0.31
   8   7 -11    8.49    0.32
  -7  -7  11    0.65    0.15
  -7   7  11    0.55    0.11
   7   7 -11    0.65    0.14
  -7   7  11    0.75    0.10
   7   7 -11    0.58    0.11
  -6  -7  11   16.60    0.58
  -6   7  11   15.02    0.56
  -6   7  11   15.20    0.55
   6   7 -11   15.61    0.56
   6   7 -11   15.58    0.56
  -5  -7  11    7.96    0.35
   5   7 -11    7.96    0.33
  -5   7  11    7.80    0.33
  -5   7  11    7.73    0.32
   5   7 -11    7.89    0.32
  -4  -7  11    0.05    0.08
  -4   7  11   -0.02    0.06
  -4   7  11    0.16    0.07
   4   7 -11    0.06    0.08
   4   7 -11    0.07    0.09
  -3  -7  11    1.41    0.16
  -3   7  11    1.38    0.14
   3   7 -11    1.52    0.18
   3   7 -11    1.14    0.15
  -3   7  11    1.30    0.15
  -2  -7  11    0.01    0.09
  -2   7  11    0.03    0.07
  -2   7  11    0.02    0.08
   2   7 -11    0.15    0.11
   2   7 -11   -0.03    0.08
  -1   7  11    0.87    0.15
  -1   7  11    0.97    0.15
   1   7 -11    0.99    0.14
   0   7  11    0.10    0.08
   0   7 -11    0.07    0.08
   0   7  11    0.02    0.08
  -1   7 -11    1.79    0.17
   1   7  11    1.89    0.17
   1   7  11    1.70    0.18
   2   7  11    0.60    0.15
  -2   7 -11    0.41    0.10
  -3   7 -11    8.60    0.36
   3   7  11    8.87    0.36
  -4   8  11    2.05    0.13
   4   8 -11    2.17    0.13
  -4   8  11    2.43    0.13
  -3   8  11   -0.05    0.08
   2   8 -11    6.83    0.27
  -2   8  11    7.02    0.28
   1   8 -11    2.71    0.15
  -1   8  11    2.51    0.19
  -1   8  11    2.42    0.15
   0   8  11    0.93    0.11
   0   8  11    0.86    0.13
   1   8  11    0.27    0.08
  -1   8 -11    0.62    0.11
   2   8  11   17.81    0.60
  -2   8 -11   13.64    0.54
 -14   0  12    8.61    0.34
  14   0 -12    8.96    0.33
  13   0 -12    0.01    0.07
 -13   0  12    0.04    0.07
 -13   0  12    0.00    0.10
 -12   0  12    0.23    0.11
 -12   0  12    0.06    0.09
 -11   0  12   -0.11    0.09
 -11   0  12    0.18    0.12
  10   0 -12   17.36    0.70
 -10   0  12   18.63    0.70
 -10   0  12   18.96    0.70
  -9   0  12   -0.03    0.11
   9   0 -12   -0.11    0.14
  -9   0  12    0.08    0.13
  -9   0  12    0.12    0.11
  -8   0  12  104.33    3.44
  -8   0  12  105.21    3.44
   8   0 -12  102.44    3.44
  -8   0  12  109.38    3.46
  -7   0  12    0.03    0.11
  -7   0  12   -0.02    0.15
  -7   0  12   -0.06    0.11
  -6   0  12   40.01    1.37
  -6   0  12   39.97    1.36
  -5   0  12   -0.07    0.10
   5   0 -12   -0.01    0.08
  -4   0  12  195.64    6.20
   4   0 -12  188.81    6.19
   3   0 -12   -0.01    0.05
  -3   0  12   -0.05    0.07
   2   0 -12   16.81    0.61
  -2   0  12   17.47    0.62
  -1   0  12   -0.03    0.06
   1   0 -12    0.02    0.05
   0   0  12   88.42    2.89
   0   0 -12   88.25    2.88
  -1   0 -12   -0.05    0.08
  -1   0 -12    0.03    0.05
   1   0  12    0.07    0.08
  -2   0 -12   13.62    0.49
  -2   0 -12   13.43    0.52
  -3   0 -12   -0.04    0.10
  -3   0 -12    0.06    0.07
  -4   0 -12    1.10    0.20
  -4   0 -12    1.47    0.29
  -4   0 -12    1.35    0.13
  -4   0 -12    1.11    0.21
  -5   0 -12   -0.10    0.10
  -5   0 -12   -0.06    0.11
  -5   0 -12    0.13    0.07
  -6   0 -12   63.81    2.10
  -6   0 -12   64.39    2.11
  -6   0 -12   61.96    2.11
  -7   0 -12    0.03    0.08
  -7   0 -12   -0.01    0.09
  -7   0 -12    0.12    0.10
  -8   0 -12    2.96    0.21
  -8   0 -12    2.65    0.20
  -8   0 -12    2.57    0.20
  -9   0 -12    0.04    0.08
  -9   0 -12    0.05    0.09
  -9   0 -12    0.05    0.09
 -10   0 -12    6.86    0.31
 -10   0 -12    6.08    0.29
 -11   0 -12    0.19    0.10
 -11   0 -12   -0.01    0.07
 -12   0 -12   19.05    0.65
  14  -1 -12   19.30    0.66
 -14   1  12   19.14    0.66
 -14   1  12   18.93    0.66
  14   1 -12   19.47    0.66
 -13  -1  12    0.41    0.10
  13   1 -12    0.23    0.08
 -13   1  12    0.12    0.08
 -13   1  12    0.20    0.08
 -12  -1  12    0.08    0.09
  12   1 -12    0.06    0.08
 -12   1  12   -0.04    0.08
 -12   1  12    0.15    0.09
 -11  -1  12    3.12    0.24
 -11   1  12    3.52    0.23
 -11   1  12    3.15    0.23
 -10  -1  12    0.34    0.12
  10  -1 -12    0.17    0.15
 -10  -1  12    0.27    0.18
 -10   1  12    0.31    0.11
 -10   1  12    0.19    0.11
 -10   1  12    0.25    0.12
  -9  -1  12    0.50    0.13
  -9   1  12    0.50    0.13
  -9   1  12    0.47    0.12
  -9   1  12    0.46    0.12
   9   1 -12    0.25    0.15
  -8  -1  12   12.13    0.50
  -8   1  12   10.94    0.51
  -8   1  12   12.84    0.51
   8   1 -12   11.36    0.49
  -8   1  12   11.68    0.48
  -7  -1  12   12.92    0.54
  -7   1  12   13.19    0.53
  -7   1  12   13.15    0.53
  -7   1  12   13.23    0.52
   7   1 -12   12.85    0.53
  -6  -1  12    3.32    0.28
  -6   1  12    3.60    0.27
  -6   1  12    3.83    0.26
  -6   1  12    3.94    0.26
   6   1 -12    3.91    0.26
  -6   1  12    3.58    0.24
   5  -1 -12   12.88    0.51
   5   1 -12   12.35    0.50
  -5   1  12   13.12    0.55
  -4  -1  12   59.19    1.97
   4  -1 -12   58.76    1.96
   4   1 -12   60.47    1.96
  -4   1  12   57.67    1.97
   3  -1 -12    3.87    0.21
  -3  -1  12    3.71    0.23
  -3   1  12    3.38    0.22
   3   1 -12    3.76    0.21
   2  -1 -12    3.31    0.18
  -2  -1  12    3.18    0.21
  -2   1  12    2.71    0.20
   2   1 -12    3.12    0.20
   2   1 -12    3.26    0.19
   1  -1 -12   35.91    1.17
  -1  -1  12   33.67    1.18
   1   1 -12   36.71    1.18
   1   1 -12   35.10    1.16
  -1   1  12   30.96    1.18
   0  -1 -12   38.72    1.29
   0   1 -12   38.74    1.29
   0   1 -12   37.01    1.27
  -1  -1 -12    3.80    0.21
  -1  -1 -12    3.58    0.20
  -1   1 -12    3.52    0.19
  -1   1 -12    3.65    0.21
  -2  -1 -12   10.63    0.40
  -2  -1 -12   10.66    0.44
  -2   1 -12   10.26    0.44
  -2   1 -12   10.50    0.40
  -3  -1 -12   10.46    0.39
  -3  -1 -12    9.57    0.44
  -3   1 -12   10.01    0.39
  -3   1 -12   10.48    0.45
  -3   1 -12    9.12    0.45
  -4  -1 -12   13.10    0.60
  -4  -1 -12   13.05    0.54
  -4  -1 -12   13.59    0.50
  -4   1 -12   12.74    0.62
  -4   1 -12   13.27    0.53
  -4   1 -12   13.84    0.51
  -4   1 -12   13.73    0.52
  -5  -1 -12    1.58    0.15
  -5  -1 -12    1.38    0.23
  -5   1 -12    1.65    0.19
  -5   1 -12    1.75    0.15
  -5   1 -12    1.23    0.22
  -6  -1 -12    8.05    0.47
  -6  -1 -12    7.51    0.37
  -6  -1 -12    7.90    0.35
  -6   1 -12    8.43    0.35
  -6   1 -12    7.94    0.36
  -6   1 -12    6.99    0.46
  -7  -1 -12   14.41    0.52
  -7  -1 -12   12.97    0.53
  -7  -1 -12   12.84    0.51
  -7   1 -12   12.38    0.51
  -7   1 -12   11.85    0.50
  -7   1 -12   13.02    0.52
  -8  -1 -12    9.64    0.41
  -8  -1 -12    8.63    0.39
  -8   1 -12    8.63    0.38
  -8   1 -12    9.30    0.39
  -8   1 -12    8.74    0.39
  -9  -1 -12   -0.10    0.10
  -9  -1 -12    0.04    0.08
  -9   1 -12   -0.06    0.08
  -9   1 -12    0.06    0.09
  -9   1 -12    0.04    0.09
 -10  -1 -12   26.85    0.93
 -10  -1 -12   27.29    0.92
 -10   1 -12   25.99    0.92
 -10   1 -12   25.66    0.93
 -11  -1 -12   -0.07    0.08
 -11  -1 -12   -0.03    0.09
 -11   1 -12    0.05    0.06
 -11   1 -12    0.13    0.11
 -13   2  12    5.78    0.26
  13   2 -12    5.60    0.25
 -13   2  12    5.80    0.25
 -12  -2  12   -0.05    0.14
 -12   2  12    0.01    0.07
  12   2 -12    0.10    0.08
 -12   2  12    0.17    0.07
 -11  -2  12    4.85    0.32
  11   2 -12    5.80    0.29
 -11   2  12    5.72    0.29
 -11   2  12    5.53    0.29
 -11   2  12    5.93    0.29
 -10  -2  12    0.56    0.15
 -10   2  12    0.70    0.18
 -10   2  12    0.73    0.18
 -10   2  12    0.37    0.11
  10   2 -12    0.61    0.13
  -9  -2  12   31.88    1.14
   9   2 -12   31.42    1.12
  -9   2  12   32.67    1.13
  -9   2  12   32.06    1.13
  -9   2  12   32.50    1.14
  -8  -2  12   89.28    3.20
  -8   2  12   95.63    3.09
   8   2 -12   90.28    3.19
  -8   2  12   95.95    3.08
  -8   2  12   97.50    3.09
  -7  -2  12    4.11    0.33
  -7   2  12    4.77    0.28
   7   2 -12    4.52    0.29
  -7   2  12    4.41    0.27
  -7   2  12    4.74    0.28
  -7   2  12    4.65    0.29
  -6  -2  12    1.25    0.19
  -6  -2  12    1.08    0.28
  -6   2  12    0.94    0.20
  -6   2  12    0.88    0.21
  -6   2  12    1.12    0.15
   6   2 -12    1.08    0.21
  -6   2  12    1.08    0.19
   5  -2 -12    3.81    0.33
  -5   2  12    4.55    0.28
   5   2 -12    4.04    0.27
   5   2 -12    4.38    0.35
  -5   2  12    4.18    0.25
  -5   2  12    4.49    0.27
  -5   2  12    4.40    0.30
   4  -2 -12   54.96    1.93
   4   2 -12   57.27    1.94
  -4   2  12   60.58    2.03
   4   2 -12   62.20    1.99
  -4   2  12   53.69    1.93
   4   2 -12   58.33    1.91
   3  -2 -12   10.33    0.43
   3   2 -12   10.28    0.44
   3   2 -12   10.24    0.41
   2  -2 -12    0.25    0.08
   2   2 -12    0.27    0.09
   2   2 -12    0.29    0.09
   1  -2 -12   21.76    0.78
   1   2 -12   21.58    0.78
   1   2 -12   21.47    0.75
   0  -2 -12   50.15    1.72
   0   2 -12   52.15    1.70
   0   2 -12   51.17    1.73
  -1  -2 -12    4.48    0.27
  -1  -2 -12    4.47    0.24
  -1   2 -12    4.04    0.27
  -1   2 -12    4.81    0.22
  -2  -2 -12    1.57    0.15
  -2  -2 -12    1.20    0.23
  -2   2 -12    1.51    0.14
  -2   2 -12    1.35    0.23
  -3  -2 -12   10.05    0.40
  -3   2 -12   10.91    0.41
  -3   2 -12    9.34    0.44
  -4  -2 -12   37.96    1.26
  -4  -2 -12   35.72    1.28
  -4   2 -12   39.33    1.27
  -4   2 -12   35.22    1.27
  -5  -2 -12   18.34    0.71
  -5  -2 -12   19.55    0.68
  -5   2 -12   18.19    0.69
  -5   2 -12   18.26    0.68
  -5   2 -12   18.15    0.69
  -6  -2 -12   20.50    0.72
  -6  -2 -12   17.76    0.80
  -6   2 -12   20.59    0.72
  -6   2 -12   18.39    0.71
  -7  -2 -12    2.68    0.27
  -7   2 -12    3.08    0.22
  -7   2 -12    3.03    0.23
  -8  -2 -12   32.50    1.10
  -8  -2 -12   28.90    1.09
  -8   2 -12   31.99    1.08
  -8   2 -12   31.41    1.10
  -8   2 -12   31.96    1.10
  -9  -2 -12    0.02    0.08
  -9  -2 -12    0.27    0.13
  -9   2 -12    0.13    0.10
  -9   2 -12    0.10    0.08
  -9   2 -12    0.16    0.09
 -10  -2 -12    0.20    0.09
 -10   2 -12    0.32    0.11
 -10   2 -12    0.15    0.08
 -11  -2 -12    1.07    0.14
  11   2  12    1.27    0.11
 -11   2 -12    1.07    0.12
 -13   3  12    7.02    0.27
 -13   3  12    6.06    0.30
 -12   3  12    4.97    0.24
 -12   3  12    5.25    0.25
  12   3 -12    4.86    0.24
  11   3 -12    8.95    0.38
 -11   3  12    8.77    0.38
 -11   3  12    9.16    0.38
 -11   3  12    9.45    0.39
 -10   3  12    5.70    0.30
  10   3 -12    5.74    0.30
 -10   3  12    5.85    0.30
 -10   3  12    5.76    0.30
  -9   3  12   11.03    0.46
  -9   3  12   10.69    0.46
   9   3 -12   10.55    0.46
   9   3 -12   10.38    0.45
  -9   3  12   10.25    0.44
  -8  -3  12   44.58    1.53
  -8   3  12   46.18    1.54
  -8   3  12   45.81    1.54
  -8   3  12   45.12    1.52
   8   3 -12   44.29    1.54
   8   3 -12   44.51    1.53
  -8   3  12   45.50    1.55
  -7  -3  12   11.41    0.46
  -7   3  12   10.67    0.46
   7   3 -12   10.79    0.46
  -7   3  12   10.42    0.46
   7   3 -12   10.72    0.46
  -7   3  12   11.22    0.45
  -7   3  12   11.00    0.48
  -6  -3  12    4.34    0.26
  -6   3  12    4.20    0.31
  -6   3  12    4.04    0.26
   6   3 -12    4.43    0.27
  -6   3  12    4.16    0.25
  -6   3  12    4.08    0.27
   6   3 -12    4.29    0.28
   5   3 -12   11.72    0.48
  -5   3  12   12.24    0.51
   5   3 -12   11.75    0.49
  -5   3  12   12.17    0.47
  -5   3  12   11.30    0.48
  -5   3  12   11.71    0.47
  -4   3  12   12.86    0.50
   4   3 -12   12.47    0.50
   4   3 -12   12.63    0.52
  -4   3  12   11.41    0.54
  -4   3  12   12.35    0.50
  -4   3  12   12.85    0.49
  -3   3  12    3.35    0.23
  -3   3  12    3.33    0.26
   3   3 -12    3.60    0.22
   3   3 -12    3.59    0.24
  -3   3  12    3.02    0.24
   2   3 -12   -0.02    0.07
  -2   3  12    0.11    0.11
  -2   3  12   -0.01    0.10
   2   3 -12    0.14    0.13
  -1   3  12   37.63    1.30
   1   3 -12   39.58    1.30
   1   3 -12   38.13    1.31
   0   3 -12   12.51    0.53
   0   3  12   12.32    0.49
   0   3 -12   13.05    0.49
  -1  -3 -12    2.35    0.21
  -1   3 -12    2.29    0.16
  -1   3 -12    2.34    0.30
   1   3  12    2.11    0.20
  -2  -3 -12   30.42    1.03
  -2   3 -12   30.74    1.04
   2   3  12   30.46    1.03
  -2   3 -12   28.27    1.06
  -3  -3 -12    4.61    0.24
  -3   3 -12    4.67    0.24
  -3   3 -12    3.94    0.30
   3   3  12    4.62    0.25
  -4  -3 -12   14.17    0.54
  -4   3 -12   13.83    0.56
  -4   3 -12   14.70    0.55
  -5  -3 -12    9.76    0.41
  -5   3 -12   10.11    0.44
  -5   3 -12   10.20    0.42
  -6  -3 -12    8.79    0.38
  -6   3 -12    8.48    0.39
  -6   3 -12    8.20    0.40
  -7  -3 -12    0.11    0.09
  -7   3 -12    0.25    0.11
  -7   3 -12    0.09    0.09
  -7   3 -12   -0.01    0.13
  -8  -3 -12   19.55    0.74
  -8   3 -12   19.70    0.73
  -8   3 -12   20.50    0.75
  -8   3 -12   21.97    0.75
  -9  -3 -12    0.07    0.08
   9   3  12    0.03    0.07
  -9   3 -12    0.25    0.09
  -9   3 -12   -0.06    0.10
 -10  -3 -12    0.77    0.13
  10   3  12    0.74    0.11
 -10   3 -12    0.50    0.12
 -10   3 -12    0.89    0.21
  11   3  12    1.79    0.13
 -11   3 -12    1.85    0.12
  12   4 -12    0.25    0.07
 -12   4  12    0.44    0.10
 -12   4  12    0.32    0.09
 -11   4  12   13.83    0.50
 -11   4  12   13.43    0.50
  11   4 -12   12.83    0.50
 -11   4  12   13.35    0.50
 -10   4  12    0.47    0.10
  10   4 -12    0.54    0.14
 -10   4  12    0.66    0.14
 -10   4  12    0.64    0.17
  -9  -4  12    2.41    0.23
  -9   4  12    2.96    0.25
  -9   4  12    2.86    0.21
  -9   4  12    3.12    0.22
   9   4 -12    2.82    0.22
  -9   4  12    3.03    0.21
   9   4 -12    2.53    0.25
  -8  -4  12    1.49    0.20
  -8   4  12    1.83    0.24
   8   4 -12    1.66    0.20
   8   4 -12    1.76    0.21
  -8   4  12    2.17    0.20
  -8   4  12    1.75    0.20
  -8   4  12    1.53    0.19
  -7  -4  12   11.96    0.60
   7   4 -12   12.99    0.52
  -7   4  12   12.33    0.54
  -7   4  12   12.72    0.51
  -7   4  12   13.05    0.51
  -7   4  12   12.64    0.50
   7   4 -12   12.70    0.51
  -6  -4  12    1.14    0.19
  -6   4  12    1.66    0.20
  -6   4  12    1.34    0.18
  -6   4  12    1.11    0.29
   6   4 -12    1.35    0.20
   6   4 -12    1.64    0.20
  -6   4  12    1.40    0.20
  -5   4  12   22.33    0.79
  -5   4  12   21.75    0.79
  -5   4  12   21.73    0.78
   5   4 -12   21.52    0.79
   5   4 -12   21.23    0.80
  -4   4  12    2.86    0.24
  -4   4  12    3.68    0.24
   4   4 -12    3.36    0.23
   4   4 -12    2.81    0.27
  -4   4  12    3.32    0.23
  -3   4  12    1.91    0.21
  -3   4  12    1.84    0.19
   3   4 -12    2.16    0.21
  -3   4  12    1.99    0.22
   3   4 -12    2.29    0.28
   3   4 -12    2.21    0.19
   2   4 -12    0.23    0.19
   2   4 -12    0.18    0.11
   2   4 -12    0.09    0.08
  -2   4  12    0.03    0.13
  -2   4  12    0.09    0.11
  -2   4  12   -0.06    0.11
  -1   4  12   26.43    0.83
  -1   4  12   22.10    0.83
  -1   4  12   22.10    0.81
   1   4 -12   21.97    0.83
   1   4 -12   21.99    0.82
   0   4  12    0.13    0.11
   0   4 -12   -0.01    0.09
   0   4  12   -0.07    0.13
   0   4 -12   -0.01    0.12
   0   4  12   -0.08    0.15
   1   4  12    1.97    0.30
   1   4  12    1.67    0.19
  -1   4 -12    1.51    0.17
  -1   4 -12    1.93    0.24
   1   4  12    1.28    0.26
  -2  -4 -12   13.24    0.53
  -2   4 -12   13.67    0.56
   2   4  12   13.88    0.53
  -2   4 -12   14.15    0.54
  -3  -4 -12   31.41    1.08
   3   4  12   31.07    1.08
  -3   4 -12   31.11    1.10
  -4  -4 -12    0.09    0.10
  -4   4 -12    0.19    0.09
   4   4  12    0.11    0.09
  -4   4 -12    0.10    0.16
  -5  -4 -12   19.34    0.79
  -5   4 -12   19.65    0.72
   5   4  12   19.42    0.70
  -5   4 -12   18.48    0.72
  -6  -4 -12    4.60    0.26
  -6   4 -12    5.34    0.30
   6   4  12    5.04    0.26
  -6   4 -12    4.64    0.27
  -7  -4 -12    7.59    0.34
   7   4  12    8.00    0.34
  -7   4 -12    7.30    0.36
  -8  -4 -12    3.22    0.21
  -8   4 -12    3.28    0.24
   8   4  12    3.22    0.19
  -8   4 -12    3.19    0.21
  -9  -4 -12    4.55    0.24
   9   4  12    4.49    0.22
  -9   4 -12    4.36    0.22
  -9   4 -12    4.62    0.29
 -10   4 -12    0.00    0.08
  10   4  12    0.04    0.09
 -11   5  12    9.51    0.40
  11   5 -12   10.89    0.39
 -11   5  12   10.56    0.39
 -10   5  12    0.01    0.07
  10   5 -12    0.03    0.06
 -10   5  12    0.13    0.07
  -9  -5  12    2.34    0.22
  -9   5  12    2.43    0.18
   9   5 -12    2.51    0.18
  -9   5  12    2.37    0.18
   9   5 -12    2.53    0.23
  -9   5  12    2.56    0.18
  -8  -5  12    0.59    0.12
   8   5 -12    0.42    0.11
  -8   5  12    0.34    0.10
  -8   5  12    0.15    0.09
  -7  -5  12   15.18    0.63
   7   5 -12   16.84    0.62
  -7   5  12   16.44    0.63
  -7   5  12   16.71    0.62
   7   5 -12   16.22    0.62
  -7   5  12   17.04    0.61
  -6  -5  12    0.65    0.17
  -6   5  12    0.97    0.17
  -6   5  12    1.31    0.18
   6   5 -12    1.38    0.18
   6   5 -12    0.92    0.19
  -6   5  12    1.07    0.19
  -5  -5  12    0.42    0.11
  -5   5  12    0.72    0.16
  -5   5  12    0.38    0.12
   5   5 -12    0.37    0.13
   5   5 -12    0.45    0.11
  -5   5  12    0.42    0.11
   4   5 -12   -0.03    0.10
   4   5 -12    0.01    0.12
  -4   5  12    0.00    0.09
  -4   5  12    0.13    0.11
  -4   5  12   -0.06    0.10
  -3   5  12   15.33    0.59
  -3   5  12   15.09    0.59
  -3   5  12   16.43    0.60
   3   5 -12   14.64    0.61
   3   5 -12   15.35    0.59
  -2   5  12   20.30    0.74
   2   5 -12   19.49    0.76
  -2   5  12   20.04    0.73
   2   5 -12   20.44    0.76
  -2   5  12   20.13    0.74
   2   5 -12   19.60    0.74
  -1   5  12   14.78    0.58
  -1   5  12   14.87    0.57
  -1   5  12   15.20    0.59
   1   5 -12   15.03    0.60
   1   5 -12   15.52    0.59
   0   5  12    0.68    0.14
   0   5 -12    0.62    0.13
   0   5  12    0.81    0.18
   0   5  12    0.85    0.14
   0   5 -12    0.63    0.16
   1   5  12    0.31    0.15
  -1   5 -12    0.71    0.16
   1   5  12    0.40    0.14
   1   5  12    0.46    0.13
  -1   5 -12    0.63    0.14
   2   5  12    0.13    0.11
   2   5  12    0.11    0.15
  -2   5 -12   -0.11    0.13
  -3  -5 -12    0.36    0.14
  -3   5 -12    0.15    0.10
  -3   5 -12   -0.01    0.14
   3   5  12    0.14    0.11
   3   5  12    0.09    0.17
  -4  -5 -12    0.91    0.18
  -4   5 -12    0.49    0.12
   4   5  12    0.60    0.12
  -5  -5 -12   11.69    0.48
   5   5  12   12.73    0.48
  -5   5 -12   11.95    0.50
  -6  -5 -12    0.84    0.17
   6   5  12    0.83    0.17
  -6   5 -12    0.65    0.18
   7   5  12    3.40    0.22
  -7   5 -12    3.39    0.25
  -8  -5 -12    1.88    0.18
  -8   5 -12    2.23    0.32
 -10   6  12    3.01    0.16
  10   6 -12    2.98    0.16
  -9   6  12    1.53    0.15
   9   6 -12    1.82    0.13
  -9   6  12    1.40    0.13
  -8  -6  12    2.03    0.19
   8   6 -12    1.84    0.16
  -8   6  12    1.91    0.15
  -8   6  12    1.59    0.16
  -8   6  12    1.80    0.16
   8   6 -12    2.03    0.18
  -7  -6  12    0.85    0.15
   7   6 -12    0.78    0.15
  -7   6  12    0.88    0.13
  -7   6  12    0.65    0.16
  -7   6  12    0.55    0.14
   7   6 -12    0.67    0.14
  -6  -6  12    0.04    0.10
  -6   6  12    0.10    0.07
  -6   6  12    0.06    0.09
   6   6 -12    0.06    0.09
   6   6 -12    0.18    0.10
  -6   6  12   -0.01    0.10
  -5  -6  12    0.64    0.16
   5   6 -12    0.49    0.10
  -5   6  12    0.99    0.20
  -5   6  12    0.77    0.16
  -5   6  12    0.80    0.14
  -4  -6  12    2.48    0.21
  -4   6  12    2.56    0.23
   4   6 -12    2.23    0.21
  -4   6  12    2.63    0.21
  -4   6  12    2.58    0.19
   4   6 -12    2.69    0.23
   3   6 -12    2.97    0.22
  -3   6  12    2.57    0.25
  -3   6  12    2.88    0.22
   3   6 -12    2.81    0.25
  -3   6  12    3.10    0.21
   2   6 -12    1.50    0.19
  -2   6  12    1.25    0.23
  -2   6  12    1.08    0.17
   2   6 -12    1.24    0.25
  -2   6  12    1.27    0.18
  -1   6  12    1.28    0.17
  -1   6  12    1.20    0.19
   1   6 -12    1.37    0.18
  -1   6  12    1.35    0.24
   0   6  12    0.07    0.10
   0   6  12   -0.01    0.13
   0   6 -12    0.08    0.10
   0   6  12    0.11    0.11
   0   6 -12    0.00    0.10
   1   6  12   26.12    0.92
   1   6  12   25.97    0.92
  -1   6 -12   27.28    0.93
   1   6  12   26.11    0.92
  -1   6 -12   24.98    0.95
   2   6  12    4.25    0.27
  -2   6 -12    4.56    0.26
  -2   6 -12    3.89    0.26
   3   6  12   31.61    1.07
  -3   6 -12   31.57    1.07
  -3   6 -12   29.59    1.09
  -4   6 -12    0.61    0.17
  -5   6 -12    0.23    0.11
  -6   6 -12    6.12    0.34
   8   7 -12    0.49    0.10
  -8   7  12    0.41    0.09
   7   7 -12   -0.11    0.07
  -7   7  12    0.08    0.06
   7   7 -12   -0.08    0.08
  -6  -7  12    0.50    0.10
   6   7 -12    0.68    0.11
  -6   7  12    0.66    0.11
   6   7 -12    0.60    0.13
  -6   7  12    0.58    0.11
  -5  -7  12    1.84    0.17
  -5   7  12    2.03    0.15
   5   7 -12    2.13    0.17
  -5   7  12    2.04    0.14
   5   7 -12    1.86    0.15
  -4  -7  12    7.91    0.39
  -4   7  12    8.39    0.34
   4   7 -12    8.53    0.35
  -4   7  12    8.14    0.33
   4   7 -12    8.42    0.34
  -3  -7  12   -0.02    0.08
   3   7 -12    0.05    0.07
   3   7 -12   -0.11    0.10
  -3   7  12    0.03    0.07
  -3   7  12    0.03    0.07
  -2  -7  12    0.62    0.15
  -2   7  12    0.83    0.13
  -2   7  12    0.90    0.14
   2   7 -12    1.00    0.19
   2   7 -12    0.75    0.14
  -1   7  12   24.11    0.82
  -1   7  12   23.22    0.83
   1   7 -12   23.71    0.83
   0   7  12   31.34    1.06
   0   7 -12   32.36    1.08
   0   7  12   30.78    1.07
   1   7  12    1.23    0.16
  -1   7 -12    1.36    0.16
   1   7  12    1.37    0.18
  -2   7 -12    8.80    0.35
   2   7  12    8.47    0.36
   4   8 -12    1.89    0.12
  -4   8  12    2.00    0.12
  -4   8  12    1.85    0.11
   3   8 -12    1.56    0.11
  -3   8  12    1.60    0.12
  -3   8  12    1.70    0.11
  -2   8  12    3.22    0.17
   2   8 -12    3.41    0.17
  -2   8  12    3.34    0.16
   1   8 -12    3.46    0.17
  -1   8  12    3.44    0.17
  -1   8  12    3.34    0.17
   0   8  12    1.86    0.14
   0   8 -12    1.97    0.13
  -1   8 -12    6.90    0.27
   1   8  12    6.44    0.28
  14   0 -13    0.03    0.07
 -14   0  13    0.09    0.07
  13   0 -13   29.49    1.00
 -13   0  13   29.12    1.00
 -13   0  13   28.86    1.04
 -12   0  13    0.13    0.09
 -12   0  13   -0.01    0.10
 -11   0  13    1.80    0.20
 -11   0  13    1.91    0.23
  10   0 -13    0.23    0.14
 -10   0  13   -0.11    0.13
 -10   0  13   -0.06    0.10
  -9   0  13   27.92    1.01
   9   0 -13   27.22    1.00
  -9   0  13   29.62    1.02
  -8   0  13    0.22    0.18
   8   0 -13    0.12    0.12
  -8   0  13   -0.01    0.14
  -7   0  13   33.84    1.17
  -7   0  13   31.85    1.16
  -7   0  13   34.11    1.15
  -6   0  13    0.02    0.13
  -6   0  13   -0.08    0.11
  -5   0  13  173.30    5.54
   5   0 -13  169.05    5.53
   4   0 -13   -0.04    0.07
   3   0 -13   18.26    0.66
   2   0 -13    0.07    0.06
   1   0 -13   33.30    1.14
   0   0 -13    0.04    0.06
   0   0 -13   -0.09    0.09
  -1   0 -13  100.62    3.27
  -1   0 -13  101.39    3.30
  -2   0 -13    0.04    0.08
  -2   0 -13    0.06    0.07
  -3   0 -13    0.18    0.13
  -3   0 -13    0.18    0.08
  -3   0 -13    0.36    0.13
  -4   0 -13    0.07    0.07
  -4   0 -13    0.26    0.12
  -5   0 -13    1.99    0.21
  -5   0 -13    2.21    0.17
  -5   0 -13    1.89    0.21
  -6   0 -13    0.14    0.09
  -6   0 -13    0.23    0.11
  -6   0 -13    0.03    0.10
  -7   0 -13    0.70    0.17
  -7   0 -13    0.40    0.12
  -7   0 -13    0.63    0.14
  -8   0 -13    0.10    0.10
  -8   0 -13    0.09    0.09
  -9   0 -13    8.64    0.37
  -9   0 -13    7.92    0.36
 -10   0 -13   -0.01    0.08
 -10   0 -13   -0.05    0.08
 -11   0 -13    3.72    0.23
 -11   0 -13    4.33    0.20
  14  -1 -13    0.61    0.11
  14   1 -13    0.48    0.11
 -13  -1  13    4.50    0.24
  13   1 -13    4.39    0.22
 -13   1  13    4.27    0.22
 -13   1  13    4.51    0.23
 -12  -1  13   16.95    0.62
 -12   1  13   16.51    0.61
 -12   1  13   16.66    0.62
  12   1 -13   15.80    0.61
 -11  -1  13    0.10    0.10
 -11   1  13    0.26    0.11
 -11   1  13    0.13    0.10
 -10  -1  13    4.59    0.29
  10  -1 -13    4.49    0.30
  10   1 -13    3.95    0.32
 -10   1  13    4.85    0.27
 -10   1  13    4.53    0.28
 -10   1  13    4.60    0.28
  -9  -1  13   64.57    2.11
   9   1 -13   61.19    2.09
  -9   1  13   62.61    2.09
  -9   1  13   63.38    2.11
  -9   1  13   61.64    2.10
  -8   1  13   80.18    2.66
   8   1 -13   79.72    2.66
  -8   1  13   82.01    2.67
  -7  -1  13    0.26    0.14
  -7   1  13    0.33    0.13
  -7   1  13    0.28    0.12
  -7   1  13    0.18    0.12
   7   1 -13    0.30    0.12
  -6  -1  13   20.75    0.77
   6   1 -13   19.70    0.74
  -6   1  13   21.86    0.77
  -6   1  13   20.26    0.75
  -6   1  13   20.38    0.75
   5  -1 -13    2.94    0.28
  -5  -1  13    3.22    0.29
  -5   1  13    2.92    0.22
   5   1 -13    2.48    0.22
  -5   1  13    2.93    0.24
   5   1 -13    3.04    0.28
  -5   1  13    2.68    0.32
  -5   1  13    3.32    0.30
   4  -1 -13   34.96    1.21
   4   1 -13   35.08    1.21
   3  -1 -13  114.56    3.65
   3   1 -13  105.52    3.61
   3   1 -13  115.28    3.65
   2  -1 -13   24.12    0.82
   2   1 -13   22.84    0.82
   2   1 -13   22.01    0.80
   1  -1 -13  173.86    5.48
   1   1 -13  169.11    5.48
   1   1 -13  165.15    5.45
   0  -1 -13   51.66    1.70
   0   1 -13   49.75    1.67
   0   1 -13   50.73    1.71
  -1  -1 -13   16.65    0.62
  -1  -1 -13   16.55    0.59
  -1   1 -13   16.61    0.63
  -1   1 -13   16.33    0.59
  -2  -1 -13    0.87    0.22
  -2  -1 -13    0.51    0.13
  -2   1 -13    0.70    0.12
  -2   1 -13    1.18    0.22
  -3  -1 -13   26.86    0.98
  -3  -1 -13   26.72    1.09
  -3  -1 -13   29.11    0.96
  -3   1 -13   27.42    0.98
  -3   1 -13   29.09    0.96
  -4  -1 -13    0.98    0.22
  -4  -1 -13    0.82    0.13
  -4   1 -13    0.98    0.13
  -4   1 -13    0.68    0.18
  -4   1 -13    0.80    0.15
  -5  -1 -13    0.59    0.13
  -5  -1 -13    0.58    0.13
  -5   1 -13    0.50    0.13
  -5   1 -13    0.50    0.13
  -5   1 -13    0.72    0.17
  -6  -1 -13    2.10    0.18
  -6  -1 -13    1.96    0.22
  -6   1 -13    1.73    0.19
  -6   1 -13    1.62    0.19
  -6   1 -13    1.98    0.17
  -7  -1 -13    0.36    0.14
  -7  -1 -13    0.42    0.12
  -7   1 -13    0.18    0.10
  -7   1 -13    0.16    0.09
  -8  -1 -13    8.19    0.36
  -8  -1 -13    6.89    0.34
  -8   1 -13    7.46    0.35
  -8   1 -13    7.76    0.34
  -8   1 -13    7.49    0.35
  -9  -1 -13    2.09    0.18
  -9   1 -13    2.19    0.19
  -9   1 -13    2.46    0.19
 -10  -1 -13    1.71    0.16
 -10  -1 -13    1.89    0.16
 -10   1 -13    1.60    0.19
 -10   1 -13    1.72    0.15
 -11  -1 -13   15.90    0.57
 -11  -1 -13   15.45    0.55
 -11   1 -13   15.31    0.57
 -11   1 -13   15.23    0.55
 -13   2  13   34.89    1.16
  13   2 -13   34.72    1.17
 -13   2  13   34.99    1.17
 -12  -2  13    1.76    0.23
 -12   2  13    1.97    0.16
 -12   2  13    1.68    0.16
  12   2 -13    1.96    0.16
 -11  -2  13    4.50    0.30
  11   2 -13    5.03    0.33
 -11   2  13    5.43    0.36
 -10  -2  13   12.13    0.51
  10   2 -13   12.00    0.49
  10   2 -13   11.17    0.51
 -10   2  13   11.47    0.49
 -10   2  13   12.03    0.50
 -10   2  13   12.28    0.49
  -9  -2  13    0.90    0.17
   9   2 -13    0.85    0.15
  -9   2  13    1.10    0.18
   9   2 -13    0.88    0.18
  -9   2  13    1.14    0.18
  -9   2  13    1.06    0.20
  -8  -2  13    0.88    0.17
  -8   2  13    1.06    0.20
   8   2 -13    0.85    0.21
  -8   2  13    0.79    0.20
  -8   2  13    1.13    0.19
  -7  -2  13    8.44    0.42
  -7   2  13    8.52    0.38
  -7   2  13    8.54    0.39
  -7   2  13    8.47    0.40
  -7   2  13    8.57    0.38
   7   2 -13    8.47    0.39
  -6  -2  13    1.84    0.22
  -6  -2  13    2.21    0.29
  -6   2  13    2.12    0.22
  -6   2  13    2.06    0.20
   6   2 -13    1.90    0.22
  -6   2  13    1.94    0.24
  -6   2  13    1.85    0.21
  -5  -2  13   42.35    1.49
   5  -2 -13   49.79    1.64
   5   2 -13   38.76    1.56
   5   2 -13   43.00    1.47
  -5   2  13   44.04    1.48
  -5   2  13   42.58    1.46
  -5   2  13   44.06    1.47
  -5   2  13   42.78    1.47
   4  -2 -13   16.41    0.67
  -4   2  13   16.64    0.62
   4   2 -13   16.26    0.62
  -4   2  13   16.38    0.60
  -4   2  13   15.84    0.64
   4   2 -13   15.58    0.65
   4   2 -13   16.82    0.61
  -4   2  13   17.91    0.73
   3  -2 -13    0.13    0.11
   3   2 -13    0.25    0.10
   3   2 -13    0.29    0.16
   3   2 -13    0.15    0.11
   2  -2 -13   16.45    0.63
   2   2 -13   16.23    0.64
   2   2 -13   16.39    0.60
   1  -2 -13   -0.06    0.08
   1   2 -13   -0.01    0.07
   1   2 -13   -0.07    0.10
   0  -2 -13   17.76    0.66
   0   2 -13   16.97    0.61
   0   2 -13   16.20    0.66
  -1  -2 -13   50.56    1.70
   1   2  13   49.65    1.71
  -1   2 -13   54.57    1.72
  -2  -2 -13    2.99    0.19
  -2   2 -13    2.28    0.24
  -2   2 -13    2.74    0.18
   2   2  13    2.77    0.20
  -3  -2 -13    0.36    0.09
  -3  -2 -13    0.26    0.17
  -3   2 -13    0.41    0.10
  -3   2 -13    0.33    0.13
  -4  -2 -13   48.29    1.68
  -4  -2 -13   51.16    1.67
  -4   2 -13   49.38    1.68
  -4   2 -13   50.56    1.68
  -5  -2 -13    8.14    0.34
  -5  -2 -13    7.36    0.38
  -5   2 -13    6.53    0.37
  -5   2 -13    7.43    0.36
  -5   2 -13    7.61    0.34
  -6  -2 -13    1.79    0.17
  -6  -2 -13    1.29    0.27
  -6   2 -13    1.33    0.16
  -6   2 -13    1.05    0.21
  -6   2 -13    1.63    0.19
  -7  -2 -13   33.56    1.12
  -7  -2 -13   30.31    1.11
  -7   2 -13   31.25    1.11
  -7   2 -13   31.45    1.10
  -7   2 -13   32.09    1.12
  -8  -2 -13    0.06    0.09
  -8  -2 -13    0.24    0.13
  -8   2 -13    0.22    0.10
  -8   2 -13   -0.05    0.09
  -8   2 -13    0.12    0.10
  -9  -2 -13    0.12    0.12
  -9  -2 -13    0.08    0.09
  -9   2 -13    0.03    0.09
  -9   2 -13    0.11    0.08
 -10  -2 -13   19.19    0.69
 -10   2 -13   18.78    0.68
 -10   2 -13   19.27    0.69
 -11  -2 -13    0.20    0.09
 -11   2 -13    0.25    0.06
  11   2  13    0.51    0.10
  13   3 -13    1.41    0.12
 -13   3  13    1.30    0.12
 -13   3  13    1.39    0.11
  12   3 -13   15.27    0.56
 -12   3  13   15.08    0.56
 -12   3  13   15.77    0.56
 -11   3  13    1.37    0.17
  11   3 -13    1.27    0.15
 -11   3  13    1.35    0.15
 -11   3  13    1.27    0.15
  10   3 -13    1.71    0.19
 -10   3  13    1.96    0.19
 -10   3  13    1.65    0.19
 -10   3  13    1.90    0.20
  10   3 -13    1.90    0.27
   9   3 -13   20.17    0.79
  -9   3  13   22.27    0.79
  -9   3  13   21.43    0.79
   9   3 -13   21.94    0.79
  -9   3  13   22.27    0.81
  -8  -3  13   26.61    1.04
  -8   3  13   27.61    0.97
  -8   3  13   27.80    0.99
  -8   3  13   27.31    0.98
  -8   3  13   28.28    1.00
   8   3 -13   28.92    0.98
   8   3 -13   27.33    0.99
  -7  -3  13   19.86    0.75
  -7   3  13   21.04    0.76
  -7   3  13   20.40    0.75
  -7   3  13   20.13    0.76
   7   3 -13   20.55    0.76
   7   3 -13   21.02    0.75
  -7   3  13   19.72    0.74
  -6  -3  13   23.25    0.83
  -6   3  13   23.63    0.85
   6   3 -13   21.81    0.84
   6   3 -13   23.18    0.84
  -5   3  13    0.37    0.16
  -5   3  13    0.32    0.12
  -5   3  13    0.30    0.11
   5   3 -13    0.22    0.11
  -5   3  13    0.26    0.10
   5   3 -13   -0.01    0.13
  -4   3  13    2.65    0.22
  -4   3  13    2.67    0.29
   4   3 -13    2.50    0.29
  -4   3  13    2.79    0.24
   4   3 -13    2.69    0.22
  -4   3  13    2.83    0.20
   3   3 -13    9.34    0.49
  -3   3  13    9.25    0.49
   3   3 -13    9.90    0.42
   3   3 -13    9.83    0.40
  -3   3  13   10.15    0.43
  -3   3  13    9.34    0.40
  -3   3  13   10.03    0.42
  -2   3  13    1.24    0.20
  -2   3  13    0.97    0.18
   2   3 -13    1.19    0.15
  -2   3  13    1.30    0.26
   2   3 -13    0.84    0.20
  -1   3  13   17.46    0.66
  -1   3  13   17.74    0.65
   1   3 -13   17.79    0.67
   1   3 -13   17.79    0.65
   0   3 -13   18.63    0.70
   0   3  13   17.97    0.67
   0   3 -13   19.27    0.68
   0   3  13   17.94    0.69
  -1   3 -13    0.59    0.13
  -1   3 -13    0.50    0.18
  -1   3 -13    0.59    0.16
   1   3  13    0.56    0.10
  -2  -3 -13    2.49    0.20
   2   3  13    2.29    0.19
  -2   3 -13    2.31    0.27
  -2   3 -13    2.74    0.18
  -3  -3 -13    5.20    0.26
  -3   3 -13    4.79    0.30
  -3   3 -13    4.92    0.26
   3   3  13    4.69    0.26
  -4  -3 -13    0.08    0.09
   4   3  13    0.05    0.09
  -4   3 -13   -0.06    0.08
  -5  -3 -13    9.24    0.39
  -5   3 -13    8.96    0.41
  -5   3 -13    8.95    0.39
  -6  -3 -13   11.22    0.46
  -6   3 -13   10.86    0.46
  -6   3 -13   11.73    0.47
  -7  -3 -13    0.21    0.10
  -7   3 -13   -0.04    0.09
  -7   3 -13   -0.07    0.10
  -8  -3 -13   41.72    1.40
  -8   3 -13   39.95    1.48
  -8   3 -13   40.99    1.40
  -9  -3 -13    1.26    0.15
  -9   3 -13    1.55    0.15
  -9   3 -13    1.33    0.18
   9   3  13    1.51    0.14
 -10  -3 -13    0.09    0.09
 -10   3 -13    0.01    0.06
 -10   3 -13    0.13    0.16
  10   3  13    0.02    0.05
 -11   3 -13    8.86    0.32
  11   3  13    8.22    0.31
  12   4 -13    2.86    0.16
 -12   4  13    2.94    0.18
 -12   4  13    2.45    0.15
 -11   4  13    0.04    0.06
  11   4 -13    0.03    0.07
 -11   4  13    0.10    0.09
 -11   4  13    0.14    0.07
 -10   4  13    4.65    0.24
  10   4 -13    4.71    0.24
 -10   4  13    4.62    0.25
 -10   4  13    4.76    0.26
  -9  -4  13    1.65    0.23
  -9   4  13    1.39    0.17
  -9   4  13    1.52    0.17
   9   4 -13    1.78    0.19
  -9   4  13    1.50    0.23
  -8  -4  13   10.74    0.48
   8   4 -13   11.97    0.48
  -8   4  13   12.05    0.48
  -8   4  13   11.95    0.50
  -8   4  13   12.57    0.49
   8   4 -13   11.96    0.48
  -8   4  13   11.68    0.49
  -7  -4  13    2.34    0.22
   7   4 -13    1.95    0.21
  -7   4  13    2.38    0.19
  -7   4  13    2.37    0.21
  -7   4  13    2.21    0.27
  -7   4  13    2.46    0.21
   7   4 -13    2.30    0.22
  -6  -4  13    2.14    0.21
  -6   4  13    1.99    0.21
   6   4 -13    2.51    0.21
  -6   4  13    2.31    0.20
  -6   4  13    1.80    0.21
   6   4 -13    2.12    0.23
  -6   4  13    2.12    0.31
  -5   4  13    7.70    0.37
  -5   4  13    7.87    0.35
   5   4 -13    8.08    0.39
  -5   4  13    7.99    0.37
   5   4 -13    7.66    0.37
  -4   4  13   12.18    0.49
   4   4 -13   12.49    0.50
   4   4 -13   12.46    0.54
  -4   4  13   12.79    0.50
  -4   4  13   11.71    0.51
  -3   4  13   10.73    0.45
  -3   4  13   10.83    0.46
   3   4 -13   11.05    0.47
   3   4 -13   10.61    0.49
   3   4 -13   11.48    0.46
  -3   4  13   11.08    0.45
  -2   4  13   40.96    1.42
   2   4 -13   41.59    1.43
   2   4 -13   43.05    1.44
  -2   4  13   41.49    1.43
  -2   4  13   43.21    1.43
  -1   4  13    0.37    0.12
   1   4 -13   -0.02    0.11
   1   4 -13    0.18    0.09
  -1   4  13   -0.03    0.11
  -1   4  13   -0.08    0.14
   0   4  13    2.33    0.29
   0   4 -13    2.36    0.19
   0   4  13    1.70    0.20
   0   4  13    2.38    0.24
   0   4 -13    2.21    0.24
  -1   4 -13    4.92    0.31
   1   4  13    5.01    0.34
   1   4  13    4.87    0.27
   1   4  13    4.67    0.36
  -1   4 -13    5.30    0.27
  -2   4 -13    0.09    0.09
   2   4  13    0.36    0.11
  -2   4 -13    0.34    0.17
  -3  -4 -13    8.28    0.37
   3   4  13    8.24    0.36
  -3   4 -13    8.71    0.38
  -3   4 -13    7.90    0.46
  -4  -4 -13   82.02    2.55
   4   4  13   73.93    2.53
  -4   4 -13   75.31    2.54
  -4   4 -13   77.22    2.63
  -5  -4 -13    0.86    0.16
  -5   4 -13    0.68    0.15
  -5   4 -13    0.66    0.14
   5   4  13    0.83    0.16
  -6  -4 -13    0.25    0.10
   6   4  13    0.27    0.10
  -6   4 -13    0.33    0.11
  -6   4 -13    0.27    0.12
  -7  -4 -13    4.53    0.25
  -7   4 -13    4.35    0.25
   7   4  13    4.22    0.23
  -7   4 -13    4.13    0.26
  -8  -4 -13    1.55    0.17
  -8   4 -13    1.36    0.21
  -8   4 -13    1.17    0.16
   8   4  13    1.72    0.15
  -9  -4 -13    5.05    0.25
  -9   4 -13    5.10    0.30
  -9   4 -13    4.83    0.23
   9   4  13    4.98    0.22
 -11   5  13    1.20    0.11
  11   5 -13    0.86    0.13
 -11   5  13    1.24    0.11
 -10   5  13    1.13    0.13
  10   5 -13    1.16    0.13
 -10   5  13    0.86    0.12
  -9  -5  13    2.33    0.24
  -9   5  13    2.72    0.19
   9   5 -13    2.49    0.18
  -9   5  13    2.59    0.18
   9   5 -13    2.21    0.22
  -8  -5  13    3.69    0.25
   8   5 -13    3.39    0.22
   8   5 -13    3.62    0.22
  -8   5  13    3.61    0.22
  -8   5  13    3.53    0.21
  -8   5  13    3.59    0.22
  -7  -5  13    0.35    0.12
  -7   5  13    0.29    0.10
   7   5 -13    0.48    0.12
  -7   5  13    0.31    0.10
  -7   5  13    0.39    0.10
   7   5 -13    0.67    0.17
  -6  -5  13   85.27    2.95
   6   5 -13   93.06    2.95
  -6   5  13   87.82    2.93
  -6   5  13   93.74    2.94
   6   5 -13   88.06    2.94
  -6   5  13   88.77    2.94
  -5  -5  13    1.73    0.19
  -5   5  13    2.03    0.18
   5   5 -13    1.89    0.22
  -5   5  13    1.61    0.19
   5   5 -13    1.71    0.20
  -5   5  13    1.50    0.20
   4   5 -13    0.91    0.18
  -4   5  13    1.51    0.19
  -4   5  13    1.19    0.19
   4   5 -13    1.68    0.23
  -4   5  13    1.28    0.17
   3   5 -13   18.67    0.68
  -3   5  13   18.19    0.67
   3   5 -13   17.68    0.69
  -3   5  13   18.38    0.68
  -3   5  13   17.90    0.68
  -2   5  13    0.11    0.10
  -2   5  13    0.39    0.12
  -2   5  13    0.14    0.11
   2   5 -13    0.00    0.11
   2   5 -13    0.28    0.11
   1   5 -13    3.19    0.23
  -1   5  13    3.26    0.23
  -1   5  13    2.78    0.24
   1   5 -13    2.99    0.23
  -1   5  13    3.18    0.25
   0   5 -13   39.30    1.36
   0   5 -13   38.61    1.34
   0   5  13   39.73    1.34
   0   5  13   38.88    1.34
   0   5  13   39.25    1.33
   1   5  13    3.96    0.28
   1   5  13    3.55    0.29
  -1   5 -13    4.15    0.27
   1   5  13    3.20    0.25
   2   5  13   -0.02    0.16
  -2   5 -13   -0.03    0.08
   2   5  13    0.16    0.11
  -2   5 -13    0.29    0.13
  -3   5 -13   12.82    0.53
  -3   5 -13   12.20    0.52
   3   5  13   13.00    0.50
  -4  -5 -13    6.82    0.35
  -4   5 -13    6.68    0.34
   4   5  13    7.09    0.32
  -5  -5 -13    3.21    0.23
  -5   5 -13    2.98    0.23
   5   5  13    2.87    0.23
  -6  -5 -13    0.70    0.18
  -6   5 -13    0.56    0.13
   6   5  13    0.40    0.10
  -7  -5 -13    6.06    0.29
  -7   5 -13    5.99    0.30
   7   5  13    5.34    0.26
  -8  -5 -13   24.20    0.85
  -9   6  13    0.20    0.08
   9   6 -13    0.18    0.07
  -9   6  13    0.15    0.06
  -8  -6  13    1.30    0.18
  -8   6  13    1.30    0.12
  -8   6  13    1.43    0.15
   8   6 -13    1.09    0.14
   8   6 -13    1.44    0.16
  -8   6  13    1.32    0.13
  -7  -6  13    9.18    0.40
  -7   6  13    9.49    0.38
  -7   6  13    9.57    0.39
   7   6 -13    9.84    0.38
  -7   6  13    9.91    0.38
   7   6 -13    9.76    0.39
  -6  -6  13    3.91    0.23
  -6   6  13    3.75    0.20
   6   6 -13    3.68    0.22
   6   6 -13    3.54    0.23
  -6   6  13    3.56    0.22
  -6   6  13    3.64    0.23
  -5  -6  13    5.24    0.29
   5   6 -13    5.45    0.28
  -5   6  13    5.83    0.29
  -4  -6  13    3.90    0.26
   4   6 -13    4.61    0.25
  -4   6  13    4.53    0.24
  -4   6  13    4.65    0.25
   3   6 -13    0.45    0.15
  -3   6  13    0.24    0.10
  -3   6  13    0.09    0.08
   3   6 -13    0.08    0.10
  -3   6  13    0.21    0.12
  -2   6  13    2.57    0.24
  -2   6  13    2.42    0.19
  -2   6  13    2.38    0.21
   2   6 -13    2.62    0.21
  -1   6  13   12.99    0.54
  -1   6  13   13.74    0.53
   1   6 -13   13.93    0.54
  -1   6  13   14.24    0.54
   0   6  13   21.30    0.75
   0   6 -13   19.00    0.77
   0   6 -13   20.83    0.75
   0   6  13   19.89    0.75
   0   6  13   21.75    0.74
  -1   6 -13    4.78    0.27
   1   6  13    4.87    0.28
   1   6  13    4.52    0.28
  -1   6 -13    4.50    0.28
  -2   6 -13    1.31    0.20
   2   6  13    1.19    0.22
  -2   6 -13    1.07    0.17
   2   6  13    1.11    0.22
   3   6  13    0.41    0.17
  -3   6 -13    0.36    0.12
  -3   6 -13    0.23    0.13
  -4   6 -13   13.90    0.54
  -5   6 -13    1.06    0.18
  -6   6 -13    1.93    0.25
   7   7 -13    1.15    0.14
   7   7 -13    1.17    0.13
  -7   7  13    1.06    0.10
  -6  -7  13    2.26    0.18
   6   7 -13    2.37    0.14
  -6   7  13    2.01    0.13
   6   7 -13    1.42    0.18
  -6   7  13    1.92    0.14
  -5  -7  13    0.79    0.15
  -5   7  13    0.84    0.10
   5   7 -13    0.74    0.13
  -5   7  13    1.06    0.12
   5   7 -13    0.92    0.16
  -4  -7  13    2.55    0.19
  -4   7  13    2.06    0.16
   4   7 -13    2.03    0.19
   4   7 -13    2.15    0.16
  -4   7  13    2.33    0.15
  -3  -7  13    3.27    0.25
   3   7 -13    2.97    0.26
  -3   7  13    3.27    0.18
  -3   7  13    2.80    0.19
   3   7 -13    2.75    0.18
  -2  -7  13    0.71    0.15
  -2   7  13    1.16    0.14
  -2   7  13    0.91    0.13
   2   7 -13    1.00    0.14
  -1   7  13    1.89    0.16
  -1   7  13    1.70    0.15
   1   7 -13    1.77    0.15
   0   7  13   14.36    0.53
   0   7  13   14.53    0.54
   0   7 -13   14.93    0.54
   1   7  13    0.26    0.09
  -1   7 -13    0.04    0.08
   1   7  13    0.01    0.13
  -2   7 -13    0.77    0.15
   2   7  13    0.71    0.18
  -3   8  13    2.46    0.13
   3   8 -13    2.55    0.13
  -2   8  13    0.49    0.10
   2   8 -13    0.22    0.06
  -1   8  13    0.95    0.16
  -1   8  13    0.86    0.12
   1   8 -13    0.92    0.11
   0   8 -13    0.08    0.06
 -14   0  14    1.38    0.13
  14   0 -14    1.31    0.11
  13   0 -14    0.07    0.07
 -13   0  14   -0.01    0.07
 -12   0  14    0.20    0.11
 -12   0  14    0.15    0.09
 -11   0  14    0.28    0.10
 -11   0  14   -0.07    0.18
  10   0 -14    2.46    0.25
 -10   0  14    2.20    0.22
 -10   0  14    2.23    0.26
   9   0 -14    0.27    0.13
  -9   0  14   -0.06    0.14
  -9   0  14   -0.02    0.10
  -8   0  14  145.25    4.58
  -8   0  14  149.08    4.56
  -8   0  14  142.85    4.56
   8   0 -14  123.95    4.60
  -7   0  14   -0.11    0.15
  -7   0  14    0.04    0.11
  -7   0  14   -0.01    0.12
  -6   0  14   19.22    0.68
  -6   0  14   16.38    0.69
  -6   0  14   17.66    0.66
  -5   0  14    0.10    0.13
  -5   0  14   -0.19    0.17
   5   0 -14    0.07    0.13
   4   0 -14   37.96    1.31
   3   0 -14   -0.13    0.08
   2   0 -14   35.87    1.23
   1   0 -14    0.09    0.07
   1   0 -14    0.07    0.12
   0   0 -14   44.37    1.51
   0   0 -14   46.66    1.55
  -1   0 -14    0.02    0.08
  -1   0 -14   -0.08    0.09
  -2   0 -14   39.84    1.37
  -2   0 -14   33.57    1.18
  -2   0 -14   31.68    1.19
  -3   0 -14    0.33    0.13
  -3   0 -14    0.01    0.08
  -4   0 -14   18.57    0.70
  -4   0 -14   19.16    0.68
  -5   0 -14    0.10    0.08
  -5   0 -14    0.22    0.12
  -6   0 -14   22.67    0.83
  -6   0 -14   22.70    0.82
  -7   0 -14    0.07    0.08
  -7   0 -14    0.15    0.10
  -8   0 -14    7.36    0.35
  -8   0 -14    7.74    0.35
  -9   0 -14    0.03    0.09
  -9   0 -14    0.00    0.08
 -10   0 -14    0.25    0.10
 -10   0 -14    0.29    0.08
 -11   0 -14   -0.09    0.07
 -11   0 -14   -0.10    0.10
  14  -1 -14    7.17    0.28
  14   1 -14    7.06    0.28
 -14   1  14    6.96    0.28
 -13  -1  14    2.24    0.18
 -13   1  14    2.17    0.16
  13   1 -14    2.07    0.15
 -13   1  14    2.26    0.17
 -12  -1  14   20.60    0.72
 -12   1  14   19.62    0.71
 -12   1  14   19.69    0.73
  12   1 -14   19.47    0.72
 -11  -1  14    3.16    0.23
 -11   1  14    2.45    0.21
 -11   1  14    2.93    0.23
  10  -1 -14    1.99    0.24
 -10  -1  14    1.93    0.23
 -10   1  14    2.05    0.21
 -10   1  14    2.32    0.22
  10   1 -14    2.02    0.26
 -10   1  14    2.07    0.22
  -9  -1  14    0.61    0.13
  -9   1  14    0.53    0.12
  -9   1  14    0.47    0.13
  -9   1  14    0.50    0.12
   9   1 -14    0.27    0.13
  -8  -1  14  109.06    3.50
  -8   1  14  106.58    3.50
  -8   1  14  109.00    3.49
   8   1 -14  103.17    3.48
  -8   1  14  104.79    3.48
  -7  -1  14    0.32    0.14
   7   1 -14    0.21    0.11
  -7   1  14    0.26    0.12
  -7   1  14    0.40    0.12
  -7   1  14    0.08    0.12
  -6  -1  14    1.92    0.23
  -6   1  14    2.33    0.22
   6   1 -14    1.89    0.20
  -6   1  14    1.74    0.22
  -6   1  14    1.39    0.23
   5  -1 -14    1.81    0.30
  -5  -1  14    2.20    0.24
  -5   1  14    2.09    0.23
   5   1 -14    1.78    0.30
   5   1 -14    2.28    0.20
  -5   1  14    1.89    0.24
  -5   1  14    1.85    0.22
   4  -1 -14   22.50    0.83
  -4   1  14   22.45    0.78
   4   1 -14   21.43    0.82
   4   1 -14   21.86    0.79
  -4   1  14   22.34    0.81
   3  -1 -14    3.64    0.24
   3   1 -14    3.00    0.24
   3   1 -14    2.78    0.24
   2  -1 -14    0.56    0.16
   2   1 -14    0.88    0.13
   2   1 -14    0.67    0.17
   1  -1 -14   31.87    1.09
   1   1 -14   30.55    1.08
   1   1 -14   30.14    1.04
   0  -1 -14   15.07    0.57
   0  -1 -14   16.36    0.61
   0   1 -14   15.06    0.61
   0   1 -14   15.68    0.56
  -1  -1 -14   22.48    0.77
  -1  -1 -14   22.13    0.83
  -1   1 -14   22.93    0.78
  -1   1 -14   21.29    0.83
  -2  -1 -14   48.49    1.66
  -2  -1 -14   50.16    1.64
  -2   1 -14   48.38    1.65
  -2   1 -14   50.63    1.64
  -3  -1 -14    6.96    0.36
  -3  -1 -14    7.41    0.31
  -3   1 -14    7.44    0.32
  -3   1 -14    7.28    0.35
  -4  -1 -14    2.30    0.17
  -4  -1 -14    2.13    0.23
  -4   1 -14    2.24    0.17
  -4   1 -14    2.03    0.20
  -5  -1 -14    1.15    0.15
  -5  -1 -14    1.32    0.21
  -5   1 -14    1.23    0.15
  -5   1 -14    0.99    0.24
  -5   1 -14    1.11    0.20
  -6  -1 -14   41.45    1.35
  -6  -1 -14   38.29    1.35
  -6   1 -14   41.11    1.36
  -6   1 -14   37.72    1.33
  -6   1 -14   37.97    1.35
  -7  -1 -14    4.82    0.27
  -7  -1 -14    4.31    0.25
  -7   1 -14    4.75    0.26
  -7   1 -14    3.89    0.25
  -8  -1 -14   14.98    0.62
  -8  -1 -14   17.87    0.63
  -8   1 -14   17.18    0.63
  -8   1 -14   15.49    0.62
  -9  -1 -14    1.41    0.16
  -9  -1 -14    1.29    0.16
  -9   1 -14    1.31    0.16
  -9   1 -14    1.52    0.16
 -10  -1 -14    9.63    0.38
 -10  -1 -14    9.68    0.39
 -10   1 -14    9.27    0.38
 -10   1 -14    9.91    0.40
 -11  -1 -14    1.15    0.15
 -11  -1 -14    1.30    0.21
  11   1  14    1.46    0.10
 -11   1 -14    1.25    0.11
 -13   2  14    0.93    0.12
  13   2 -14    0.93    0.12
 -13   2  14    0.93    0.11
 -12  -2  14    1.82    0.24
 -12   2  14    1.69    0.15
  12   2 -14    1.85    0.15
 -12   2  14    1.47    0.15
  11  -2 -14    0.88    0.15
 -11  -2  14    0.83    0.21
 -11   2  14    0.85    0.16
 -11   2  14    0.92    0.16
 -11   2  14    0.71    0.12
  11   2 -14    0.99    0.17
 -10  -2  14    0.55    0.14
 -10   2  14    0.23    0.10
  10   2 -14    0.37    0.12
  10   2 -14    0.31    0.14
 -10   2  14    0.42    0.12
 -10   2  14    0.26    0.11
  -9  -2  14    6.05    0.36
   9   2 -14    6.59    0.32
  -9   2  14    5.91    0.32
   9   2 -14    6.12    0.33
  -9   2  14    6.65    0.34
  -9   2  14    6.54    0.33
  -8  -2  14   24.05    0.91
  -8   2  14   25.34    0.90
  -8   2  14   25.36    0.90
   8   2 -14   24.60    0.89
  -8   2  14   24.42    0.90
   8   2 -14   24.77    0.89
  -7  -2  14    5.54    0.36
  -7   2  14    5.91    0.32
  -7   2  14    5.99    0.31
  -7   2  14    6.26    0.30
  -7   2  14    6.20    0.33
  -6  -2  14    1.30    0.27
  -6   2  14    1.85    0.23
   6   2 -14    1.45    0.21
  -6   2  14    1.52    0.19
  -6   2  14    1.36    0.21
  -6   2  14    1.94    0.20
  -5  -2  14   19.79    0.78
  -5   2  14   20.91    0.74
  -5   2  14   20.83    0.75
  -5   2  14   20.74    0.77
  -5   2  14   20.94    0.76
  -4  -2  14    4.82    0.35
  -4   2  14    4.90    0.27
   4   2 -14    4.98    0.28
  -4   2  14    4.72    0.31
  -4   2  14    5.07    0.27
  -4   2  14    4.34    0.31
   4   2 -14    5.06    0.28
  -3   2  14   11.65    0.46
   3   2 -14   11.18    0.45
  -3   2  14   11.48    0.47
  -3   2  14   11.69    0.50
   3   2 -14   12.23    0.48
   2   2 -14   29.58    1.04
  -2   2  14   28.99    1.03
   2   2 -14   30.67    1.03
  -1   2  14   38.26    1.33
   1   2 -14   40.83    1.33
   0   2  14    9.45    0.39
   0   2 -14    9.55    0.38
  -1  -2 -14   31.74    1.09
  -1   2 -14   32.78    1.10
   1   2  14   31.41    1.09
  -1   2 -14   32.42    1.11
  -2  -2 -14   39.63    1.30
  -2   2 -14   38.66    1.32
  -2   2 -14   38.49    1.31
   2   2  14   37.51    1.30
  -3  -2 -14   43.89    1.47
  -3  -2 -14   42.25    1.49
  -3   2 -14   45.35    1.49
  -3   2 -14   44.32    1.49
  -4  -2 -14   15.83    0.58
  -4  -2 -14   14.43    0.60
  -4   2 -14   14.54    0.58
  -4   2 -14   15.36    0.58
  -5  -2 -14    1.27    0.24
  -5  -2 -14    1.23    0.16
  -5   2 -14    0.89    0.18
  -5   2 -14    0.95    0.15
  -6  -2 -14   20.29    0.76
  -6  -2 -14   21.84    0.76
  -6   2 -14   19.23    0.82
  -6   2 -14   21.02    0.76
  -7  -2 -14   11.00    0.46
  -7  -2 -14   11.48    0.48
  -7   2 -14   11.28    0.47
  -7   2 -14   11.12    0.46
  -8  -2 -14    2.83    0.20
  -8   2 -14    2.56    0.21
  -8   2 -14    3.08    0.21
  -9  -2 -14    2.31    0.22
  -9  -2 -14    2.44    0.18
  -9   2 -14    2.59    0.19
  -9   2 -14    2.21    0.17
 -10  -2 -14   -0.06    0.08
 -10   2 -14   -0.03    0.06
  10   2  14   -0.05    0.05
 -10   2 -14   -0.03    0.10
  11   2  14    0.11    0.05
 -11   2 -14    0.09    0.05
 -13   3  14    0.05    0.06
 -13   3  14    0.09    0.07
  13   3 -14   -0.01    0.06
  12   3 -14    5.83    0.26
 -12   3  14    5.76    0.26
 -12   3  14    6.11    0.27
  11  -3 -14    5.07    0.29
 -11   3  14    5.61    0.27
 -11   3  14    5.44    0.26
  11   3 -14    5.67    0.27
 -11   3  14    5.39    0.26
 -10   3  14    4.28    0.25
 -10   3  14    4.55    0.25
  10   3 -14    3.94    0.29
  10   3 -14    4.69    0.25
  -9   3  14    0.23    0.12
  -9   3  14    0.23    0.11
   9   3 -14   -0.07    0.10
   9   3 -14    0.22    0.12
  -9   3  14    0.17    0.09
  -8   3  14    3.64    0.26
  -8   3  14    4.23    0.26
  -8   3  14    3.78    0.27
  -8   3  14    3.84    0.24
   8   3 -14    3.88    0.25
   8   3 -14    4.00    0.26
  -7  -3  14   38.87    1.35
  -7   3  14   40.57    1.36
  -7   3  14   38.53    1.34
  -7   3  14   40.09    1.36
   7   3 -14   38.37    1.35
   7   3 -14   40.01    1.36
  -7   3  14   39.36    1.36
  -6  -3  14   18.20    0.67
   6   3 -14   16.60    0.66
   6   3 -14   17.55    0.67
  -6   3  14   17.76    0.65
  -6   3  14   18.04    0.67
  -6   3  14   16.72    0.69
  -6   3  14   18.07    0.67
  -5   3  14    5.47    0.29
  -5   3  14    5.01    0.33
   5   3 -14    5.02    0.29
  -5   3  14    5.16    0.29
  -5   3  14    5.08    0.27
   5   3 -14    5.11    0.32
   4   3 -14    5.87    0.31
   4   3 -14    5.83    0.37
  -4   3  14    6.10    0.29
  -4   3  14    6.21    0.31
  -4   3  14    5.57    0.36
  -4   3  14    5.97    0.32
  -3   3  14   19.73    0.70
   3   3 -14   19.91    0.71
  -3   3  14   19.62    0.71
  -3   3  14   18.85    0.72
  -3   3  14   18.40    0.75
   3   3 -14   19.35    0.71
   2   3 -14    3.19    0.21
  -2   3  14    3.08    0.24
  -2   3  14    2.70    0.22
  -2   3  14    2.15    0.53
   2   3 -14    3.02    0.24
  -2   3  14    3.24    0.29
  -1   3  14   35.07    1.19
  -1   3  14   33.04    1.22
   1   3 -14   35.97    1.20
   1   3 -14   35.48    1.21
  -1   3  14   35.08    1.20
   0   3 -14    1.20    0.15
   0   3  14    1.20    0.18
   0   3  14    1.39    0.26
   0   3 -14    1.42    0.25
  -1   3 -14    6.08    0.37
  -1   3 -14    6.18    0.29
   1   3  14    6.05    0.29
  -1   3 -14    6.07    0.34
  -2  -3 -14   14.01    0.54
  -2   3 -14   14.48    0.55
   2   3  14   14.07    0.53
  -2   3 -14   13.81    0.56
  -3  -3 -14    0.25    0.10
  -3   3 -14    0.08    0.08
  -3   3 -14    0.01    0.13
  -4  -3 -14    0.48    0.11
   4   3  14    0.34    0.09
  -4   3 -14    0.56    0.11
  -4   3 -14    0.90    0.19
  -5  -3 -14   23.96    0.84
  -5   3 -14   23.76    0.88
   5   3  14   23.16    0.83
  -5   3 -14   22.90    0.85
  -6  -3 -14    4.55    0.26
   6   3  14    4.92    0.25
  -6   3 -14    4.72    0.27
  -6   3 -14    4.61    0.26
  -7  -3 -14    0.12    0.09
  -7   3 -14    0.06    0.09
  -7   3 -14    0.15    0.10
   7   3  14    0.13    0.07
  -8  -3 -14    8.09    0.36
  -8   3 -14    8.05    0.35
   8   3  14    8.08    0.33
  -8   3 -14    8.26    0.36
  -9  -3 -14    0.61    0.14
  -9   3 -14    0.38    0.08
   9   3  14    0.53    0.11
  -9   3 -14    0.54    0.11
 -10  -3 -14    1.81    0.17
  10   3  14    2.06    0.19
 -10   3 -14    1.57    0.13
  12   4 -14    0.00    0.07
 -12   4  14    0.07    0.06
 -12   4  14   -0.03    0.10
  11   4 -14    6.54    0.27
 -11   4  14    6.18    0.27
 -11   4  14    6.29    0.27
 -11   4  14    5.78    0.28
 -10   4  14    1.44    0.15
  10   4 -14    1.10    0.15
 -10   4  14    1.20    0.15
 -10   4  14    1.48    0.17
  -9   4  14    7.42    0.36
   9   4 -14    7.62    0.35
  -8  -4  14    1.64    0.21
  -8   4  14    2.22    0.25
   8   4 -14    2.09    0.21
   8   4 -14    2.35    0.21
  -8   4  14    2.08    0.19
  -8   4  14    1.76    0.20
  -8   4  14    2.08    0.19
  -7  -4  14    0.01    0.12
   7   4 -14    0.07    0.11
  -7   4  14    0.23    0.10
  -7   4  14    0.16    0.10
   7   4 -14    0.17    0.12
  -7   4  14    0.24    0.15
  -7   4  14    0.18    0.10
  -6   4  14    2.23    0.30
   6   4 -14    1.93    0.22
   6   4 -14    1.91    0.20
  -6   4  14    2.23    0.19
  -6   4  14    2.34    0.21
  -6   4  14    2.20    0.22
   5   4 -14   48.07    1.65
  -5   4  14   48.29    1.65
   5   4 -14   48.27    1.65
  -5   4  14   49.02    1.65
  -5   4  14   49.90    1.64
  -4   4  14   16.03    0.62
  -4   4  14   16.08    0.61
   4   4 -14   16.00    0.62
  -4   4  14   16.44    0.62
   4   4 -14   15.63    0.63
   3   4 -14    0.91    0.17
   3   4 -14    1.20    0.29
  -3   4  14    0.83    0.17
   3   4 -14    0.80    0.14
  -3   4  14    0.83    0.18
   2   4 -14    2.03    0.23
   2   4 -14    1.82    0.19
  -2   4  14    2.23    0.26
  -2   4  14    2.31    0.24
  -1   4  14    1.90    0.27
   1   4 -14    2.14    0.19
  -1   4  14    1.77    0.21
   0   4  14    5.16    0.36
   0   4  14    5.52    0.32
   0   4  14    5.76    0.30
   0   4 -14    6.12    0.30
  -1   4 -14   14.53    0.58
   1   4  14   13.12    0.52
  -1   4 -14   13.30    0.54
   1   4  14   13.10    0.56
  -2   4 -14   -0.21    0.15
  -2   4 -14    0.12    0.10
   2   4  14   -0.09    0.09
  -3  -4 -14   42.95    1.46
  -3   4 -14   45.43    1.48
   3   4  14   42.62    1.45
  -3   4 -14   40.87    1.46
  -4  -4 -14    0.39    0.12
   4   4  14    0.33    0.09
  -4   4 -14    0.37    0.10
  -4   4 -14    0.37    0.14
  -5  -4 -14   24.45    0.89
  -5   4 -14   26.47    0.90
  -5   4 -14   23.14    0.90
   5   4  14   26.40    0.88
  -6  -4 -14   -0.10    0.09
  -6   4 -14   -0.04    0.09
   6   4  14    0.29    0.08
  -6   4 -14    0.10    0.14
  -7  -4 -14    0.01    0.10
  -7   4 -14    0.01    0.09
  -7   4 -14   -0.04    0.10
   7   4  14   -0.01    0.07
  -8  -4 -14    5.79    0.28
  -8   4 -14    5.46    0.26
   8   4  14    5.83    0.25
  -8   4 -14    5.72    0.29
  -9  -4 -14    6.20    0.30
  -9   4 -14    6.62    0.27
   9   4  14    6.85    0.26
 -11   5  14   11.30    0.40
 -11   5  14   10.61    0.39
 -10   5  14    0.11    0.07
  10   5 -14    0.17    0.07
 -10   5  14    0.14    0.07
  -9  -5  14    5.13    0.32
  -9   5  14    4.59    0.24
   9   5 -14    4.98    0.25
   9   5 -14    4.84    0.26
  -9   5  14    5.42    0.25
  -8  -5  14   10.38    0.45
  -8   5  14   10.84    0.42
  -8   5  14   10.55    0.43
   8   5 -14   10.67    0.43
  -8   5  14   10.82    0.41
   8   5 -14   10.17    0.42
  -7  -5  14    1.78    0.20
  -7   5  14    2.05    0.20
   7   5 -14    1.82    0.19
  -7   5  14    1.93    0.18
   7   5 -14    1.83    0.21
  -7   5  14    2.18    0.19
  -6  -5  14   -0.19    0.11
  -6   5  14    0.02    0.09
  -6   5  14    0.13    0.08
   6   5 -14    0.15    0.10
   6   5 -14    0.00    0.11
  -6   5  14    0.00    0.10
  -5  -5  14   21.56    0.83
   5   5 -14   22.71    0.82
  -5   5  14   22.69    0.81
  -5   5  14   22.80    0.82
   5   5 -14   22.16    0.82
  -5   5  14   23.08    0.82
  -4   5  14   11.62    0.46
   4   5 -14   10.69    0.46
   4   5 -14   11.28    0.47
  -4   5  14   10.40    0.44
  -4   5  14   10.35    0.46
  -3   5  14    0.08    0.09
  -3   5  14    0.26    0.10
   3   5 -14    0.17    0.10
   3   5 -14    0.52    0.17
  -3   5  14    0.41    0.13
  -2   5  14    2.41    0.20
  -2   5  14    2.19    0.22
  -2   5  14    2.14    0.22
   2   5 -14    2.05    0.26
   2   5 -14    2.45    0.21
  -1   5  14    6.95    0.35
  -1   5  14    7.38    0.33
  -1   5  14    6.13    0.33
   1   5 -14    6.63    0.34
   0   5  14   35.97    1.24
   0   5  14   35.98    1.25
   0   5  14   36.48    1.24
   0   5 -14   36.52    1.25
   1   5  14    2.11    0.26
   1   5  14    1.90    0.27
  -1   5 -14    2.51    0.23
  -1   5 -14    2.00    0.19
   1   5  14    1.83    0.21
   2   5  14    8.00    0.35
  -2   5 -14    7.53    0.37
  -2   5 -14    6.75    0.34
  -3   5 -14    2.43    0.21
   3   5  14    2.57    0.21
   4   5  14    1.64    0.18
  -4   5 -14    1.55    0.18
  -5  -5 -14   14.81    0.58
  -5   5 -14   14.71    0.58
   5   5  14   15.12    0.55
  -6  -5 -14    0.43    0.14
   6   5  14    0.25    0.09
  -6   5 -14    0.25    0.11
  -7  -5 -14    0.99    0.21
   7   5  14    1.11    0.15
  -7   5 -14    1.08    0.18
  -9   6  14    0.09    0.07
  -9   6  14    0.14    0.06
   9   6 -14    0.15    0.07
  -8  -6  14   -0.06    0.12
   8   6 -14    0.11    0.09
   8   6 -14    0.04    0.08
  -8   6  14    0.08    0.07
  -8   6  14    0.15    0.08
  -8   6  14    0.08    0.06
  -7  -6  14    0.15    0.10
   7   6 -14    0.19    0.08
  -7   6  14    0.04    0.06
   7   6 -14    0.01    0.08
  -7   6  14    0.04    0.07
  -7   6  14   -0.09    0.08
  -6  -6  14    2.86    0.21
   6   6 -14    3.19    0.20
  -6   6  14    3.12    0.19
  -6   6  14    2.76    0.20
   6   6 -14    2.86    0.20
  -6   6  14    2.77    0.18
  -5  -6  14   24.24    0.87
  -5   6  14   23.66    0.84
   5   6 -14   24.17    0.85
  -5   6  14   23.32    0.85
  -5   6  14   24.77    0.85
   5   6 -14   23.80    0.85
  -4  -6  14    1.25    0.18
   4   6 -14    1.06    0.21
   4   6 -14    1.16    0.17
  -4   6  14    1.22    0.19
  -4   6  14    1.13    0.19
   3   6 -14    0.04    0.09
  -3   6  14    0.07    0.09
   3   6 -14   -0.03    0.14
  -3   6  14    0.05    0.08
   2   6 -14    0.30    0.10
  -2   6  14    0.18    0.10
  -2   6  14    0.16    0.09
  -2   6  14    0.03    0.13
  -1   6  14    6.22    0.42
  -1   6  14    5.56    0.30
  -1   6  14    5.81    0.29
   1   6 -14    6.09    0.29
   0   6 -14    1.21    0.18
   0   6 -14    0.98    0.18
   0   6  14    1.12    0.20
   0   6  14    1.33    0.21
   1   6  14    3.59    0.25
   1   6  14    3.25    0.26
  -1   6 -14    3.46    0.24
  -1   6 -14    3.75    0.32
   1   6  14    3.69    0.25
  -2   6 -14    3.04    0.22
   2   6  14    3.22    0.27
   2   6  14    2.95    0.24
  -2   6 -14    3.23    0.24
   3   6  14   -0.11    0.11
  -3   6 -14    0.12    0.10
  -5   6 -14    3.81    0.25
  -7   7  14    1.12    0.10
   7   7 -14    1.01    0.14
   7   7 -14    0.95    0.14
  -7   7  14    1.13    0.10
   6   7 -14   15.77    0.59
  -6   7  14   16.24    0.58
   6   7 -14   17.41    0.58
  -6   7  14   17.28    0.58
  -5  -7  14    0.83    0.15
   5   7 -14    0.94    0.12
  -5   7  14    0.77    0.10
   5   7 -14    0.70    0.11
  -5   7  14    0.83    0.11
  -4  -7  14    1.26    0.15
  -4   7  14    1.24    0.13
   4   7 -14    1.21    0.13
  -4   7  14    1.41    0.12
  -3  -7  14    0.01    0.09
  -3   7  14   -0.03    0.06
   3   7 -14   -0.06    0.06
  -3   7  14    0.03    0.07
  -2  -7  14    4.45    0.25
   2   7 -14    4.66    0.23
  -2   7  14    4.68    0.23
  -2   7  14    4.82    0.22
  -1   7  14    9.86    0.38
   1   7 -14   10.02    0.39
  -1   7  14   10.13    0.39
   0   7  14   10.30    0.40
   0   7 -14   10.81    0.41
   0   7  14   10.65    0.41
  -1   7 -14    0.94    0.14
   1   7  14    1.09    0.17
  -2   7 -14    0.91    0.20
 -13   0  15   34.11    1.13
  13   0 -15   32.54    1.12
 -12   0  15    0.01    0.12
 -12   0  15   -0.01    0.08
 -11   0  15    3.80    0.25
  11   0 -15    3.80    0.30
 -11   0  15    3.77    0.26
 -10   0  15   -0.26    0.13
  10   0 -15    0.10    0.13
 -10   0  15    0.07    0.11
   9   0 -15   43.42    1.49
  -9   0  15   44.98    1.51
  -9   0  15   42.55    1.49
  -8   0  15    0.07    0.12
  -8   0  15   -0.19    0.14
  -8   0  15   -0.18    0.10
   8   0 -15    0.16    0.11
  -7   0  15   66.00    2.19
  -7   0  15   67.01    2.20
  -7   0  15   64.20    2.18
  -6   0  15    0.07    0.11
  -6   0  15    0.04    0.17
  -6   0  15    0.12    0.12
  -5   0  15   45.70    1.53
  -5   0  15   46.98    1.54
   5   0 -15   43.39    1.57
   4   0 -15    0.16    0.13
  -4   0  15    0.16    0.13
   3   0 -15    3.85    0.28
  -3   0  15    4.15    0.28
   2   0 -15    0.01    0.09
   1   0 -15   48.79    1.62
   0   0 -15    0.10    0.10
  -1   0 -15  262.63    8.23
  -1   0 -15  250.41    8.24
  -2   0 -15    0.13    0.08
  -2   0 -15    0.09    0.11
  -3   0 -15   88.90    2.92
  -3   0 -15   90.04    2.94
  -4   0 -15    0.10    0.11
  -4   0 -15   -0.09    0.08
  -5   0 -15   49.86    1.71
  -5   0 -15   51.31    1.70
  -6   0 -15   -0.07    0.09
  -6   0 -15    0.23    0.10
  -7   0 -15   70.40    2.39
  -7   0 -15   73.20    2.38
  -8   0 -15    0.01    0.08
  -8   0 -15    0.00    0.09
  -9   0 -15   42.06    1.38
  -9   0 -15   39.44    1.38
 -10   0 -15    0.05    0.07
 -10   0 -15    0.10    0.08
 -11   0 -15    5.54    0.23
  11   0  15    5.48    0.22
 -13  -1  15    3.11    0.27
 -13   1  15    3.06    0.19
  13   1 -15    2.82    0.17
 -13   1  15    3.24    0.18
 -12  -1  15    0.86    0.16
  12   1 -15    0.90    0.14
 -12   1  15    0.80    0.14
 -12   1  15    1.07    0.15
  11  -1 -15    5.46    0.33
 -11  -1  15    6.45    0.34
 -11   1  15    6.63    0.39
  11   1 -15    5.71    0.37
 -11   1  15    5.27    0.30
 -10  -1  15    9.49    0.41
  10  -1 -15    8.31    0.40
 -10   1  15    8.57    0.40
 -10   1  15    9.04    0.40
 -10   1  15    9.39    0.41
  10   1 -15    8.17    0.40
  -9  -1  15   28.58    1.06
   9   1 -15   29.34    1.04
  -9   1  15   30.08    1.06
  -9   1  15   29.70    1.05
  -9   1  15   30.00    1.05
  -8  -1  15   34.91    1.22
   8   1 -15   34.90    1.21
  -8   1  15   34.52    1.21
  -8   1  15   34.70    1.22
  -8   1  15   34.89    1.21
  -7  -1  15    3.90    0.28
  -7   1  15    3.88    0.25
  -7   1  15    3.40    0.27
   7   1 -15    3.27    0.24
  -6  -1  15   10.91    0.48
  -6   1  15   11.43    0.48
  -6   1  15   11.05    0.47
   6   1 -15   11.09    0.46
  -6   1  15   11.62    0.47
  -5  -1  15   13.06    0.55
  -5   1  15   13.87    0.55
  -5   1  15   13.76    0.55
  -5   1  15   14.09    0.55
   5   1 -15   13.40    0.53
  -4  -1  15   10.47    0.45
  -4   1  15    9.65    0.45
   4   1 -15   11.97    0.70
  -4   1  15   10.01    0.45
  -3  -1  15   30.71    1.12
   3   1 -15   31.08    1.11
   3   1 -15   34.38    1.18
   3   1 -15   32.39    1.11
  -3   1  15   33.06    1.13
  -2   1  15    0.38    0.22
   2   1 -15    0.10    0.14
   2   1 -15    0.34    0.11
   1   1 -15   40.56    1.36
   0   1 -15    3.81    0.22
  -1  -1 -15   17.06    0.61
   1   1  15   15.98    0.61
  -1   1 -15   16.90    0.63
  -1   1 -15   17.86    0.62
  -2  -1 -15    6.88    0.31
  -2  -1 -15    6.82    0.34
  -2   1 -15    6.85    0.30
  -2   1 -15    6.79    0.33
  -3  -1 -15    6.91    0.30
  -3  -1 -15    6.40    0.33
  -3   1 -15    6.67    0.30
  -3   1 -15    6.67    0.33
  -4  -1 -15    0.52    0.14
  -4  -1 -15    0.86    0.20
  -4   1 -15    0.67    0.13
  -4   1 -15    0.68    0.14
  -5  -1 -15    2.71    0.24
  -5  -1 -15    3.03    0.20
  -5   1 -15    2.56    0.19
  -5   1 -15    2.76    0.22
  -6  -1 -15    2.07    0.18
  -6  -1 -15    1.51    0.20
  -6   1 -15    1.71    0.20
  -6   1 -15    1.55    0.18
  -7  -1 -15    7.66    0.35
  -7  -1 -15    6.47    0.32
  -7   1 -15    6.73    0.33
  -7   1 -15    7.49    0.34
  -8  -1 -15    5.25    0.28
  -8  -1 -15    5.03    0.27
  -8   1 -15    4.56    0.26
  -8   1 -15    5.37    0.27
  -9  -1 -15    0.36    0.10
  -9  -1 -15    0.39    0.09
  -9   1 -15    0.30    0.08
  -9   1 -15    0.58    0.14
 -10  -1 -15    7.70    0.32
 -10  -1 -15    7.68    0.31
 -10   1 -15    7.41    0.31
 -10   1 -15    7.52    0.32
  11  -1  15    5.82    0.23
  11   1  15    5.69    0.22
 -11   1 -15    5.32    0.22
  13   2 -15   18.26    0.62
 -13   2  15   17.64    0.62
 -13   2  15   17.34    0.61
  12   2 -15    1.88    0.15
 -12   2  15    1.75    0.15
 -12   2  15    1.75    0.16
  11  -2 -15    5.01    0.29
 -11  -2  15    5.30    0.30
 -11   2  15    5.06    0.27
 -11   2  15    5.51    0.27
  11   2 -15    5.34    0.27
 -11   2  15    4.92    0.27
 -10  -2  15    0.45    0.14
  10   2 -15    0.30    0.10
 -10   2  15    0.26    0.11
  10   2 -15    0.47    0.14
 -10   2  15    0.26    0.11
 -10   2  15    0.42    0.11
  -9  -2  15    3.40    0.28
   9   2 -15    3.52    0.26
  -9   2  15    3.88    0.24
   9   2 -15    3.41    0.24
  -9   2  15    3.72    0.25
  -9   2  15    3.65    0.26
  -8  -2  15   67.56    2.25
  -8   2  15   68.68    2.25
   8   2 -15   67.39    2.24
  -8   2  15   65.66    2.24
   8   2 -15   66.67    2.23
  -8   2  15   67.06    2.24
  -7  -2  15    5.24    0.35
  -7   2  15    5.87    0.31
   7   2 -15    5.08    0.30
  -7   2  15    5.62    0.32
   7   2 -15    5.67    0.31
  -7   2  15    5.34    0.30
  -6  -2  15    1.59    0.27
  -6   2  15    1.32    0.19
  -6   2  15    1.51    0.22
  -6   2  15    1.45    0.18
   6   2 -15    1.53    0.20
  -6   2  15    1.55    0.20
   6   2 -15    1.50    0.23
  -5  -2  15    0.32    0.15
  -5   2  15    0.27    0.10
   5   2 -15    0.05    0.10
  -5   2  15    0.13    0.13
   5   2 -15    0.10    0.15
  -5   2  15    0.14    0.12
  -5   2  15    0.06    0.13
  -4  -2  15    0.70    0.17
  -4   2  15    0.60    0.16
   4   2 -15    0.76    0.19
  -4   2  15    0.47    0.12
  -4   2  15    0.77    0.16
   4   2 -15    0.49    0.11
  -4   2  15    0.96    0.23
   4   2 -15    0.77    0.14
  -3  -2  15    6.18    0.37
  -3   2  15    6.50    0.32
  -3   2  15    6.66    0.32
   3   2 -15    6.38    0.33
  -3   2  15    6.61    0.36
   3   2 -15    6.89    0.31
  -3   2  15    6.36    0.46
  -2   2  15   91.15    3.00
   2   2 -15   93.41    3.01
  -2   2  15   89.02    3.01
   2   2 -15   95.57    3.00
  -2   2  15   90.22    3.00
  -1   2  15    0.32    0.10
   1   2 -15    0.09    0.14
  -1   2  15    0.18    0.14
   1   2 -15    0.19    0.09
  -1   2  15   -0.02    0.13
   0   2 -15   27.78    1.02
   0   2  15   27.99    0.98
   0   2 -15   29.96    0.99
  -1  -2 -15   10.16    0.42
   1   2  15   10.60    0.42
  -1   2 -15   10.54    0.44
  -1   2 -15   10.73    0.42
  -2  -2 -15    1.42    0.18
   2   2  15    1.67    0.17
  -2   2 -15    1.17    0.20
  -2   2 -15    1.41    0.15
  -3  -2 -15   39.53    1.30
  -3  -2 -15   36.46    1.30
  -3   2 -15   39.21    1.30
  -3   2 -15   37.83    1.31
   3   2  15   37.35    1.29
  -4  -2 -15   18.23    0.71
  -4  -2 -15   20.43    0.71
  -4   2 -15   18.70    0.71
  -4   2 -15   19.35    0.71
  -5  -2 -15    3.79    0.23
  -5  -2 -15    3.43    0.27
  -5   2 -15    3.40    0.24
  -5   2 -15    3.40    0.23
  -6  -2 -15    1.85    0.17
  -6  -2 -15    1.43    0.23
  -6   2 -15    1.81    0.20
  -6   2 -15    1.53    0.17
  -7  -2 -15   17.90    0.65
  -7  -2 -15   16.24    0.64
  -7   2 -15   17.33    0.64
  -7   2 -15   16.47    0.64
  -8  -2 -15    6.50    0.31
  -8  -2 -15    6.59    0.31
  -8   2 -15    6.06    0.30
  -9  -2 -15    1.68    0.17
   9   2  15    1.33    0.13
  -9   2 -15    1.41    0.14
 -10  -2 -15   10.10    0.39
  10   2  15    9.99    0.36
 -10   2 -15    9.76    0.40
 -10   2 -15    9.77    0.37
  13   3 -15    0.51    0.09
 -13   3  15    0.49    0.11
 -13   3  15    0.69    0.10
 -12   3  15    4.61    0.22
 -12   3  15    4.70    0.22
  12   3 -15    4.62    0.22
  11  -3 -15    1.13    0.19
  11   3 -15    1.16    0.14
 -11   3  15    1.13    0.14
 -11   3  15    1.03    0.14
 -11   3  15    1.12    0.16
 -10   3  15    6.38    0.39
  10   3 -15    6.80    0.33
 -10   3  15    7.23    0.37
  10   3 -15    6.86    0.33
 -10   3  15    7.08    0.33
  -9   3  15    3.72    0.23
  -9   3  15    3.96    0.26
   9   3 -15    3.25    0.23
  -9   3  15    3.14    0.23
   9   3 -15    2.94    0.25
   8   3 -15    1.33    0.19
   8   3 -15    1.70    0.21
  -8   3  15    1.26    0.21
  -8   3  15    1.43    0.20
  -8   3  15    1.58    0.19
  -7  -3  15    8.15    0.39
   7   3 -15    8.03    0.38
  -7   3  15    8.50    0.38
  -7   3  15    8.14    0.39
  -7   3  15    7.97    0.36
   7   3 -15    7.76    0.37
  -7   3  15    8.03    0.37
  -6  -3  15   35.36    1.20
  -6   3  15   34.87    1.20
   6   3 -15   34.51    1.20
  -6   3  15   34.24    1.21
   6   3 -15   34.44    1.20
  -6   3  15   33.81    1.19
  -6   3  15   34.52    1.20
  -5   3  15   14.40    0.58
   5   3 -15   14.64    0.57
   5   3 -15   14.48    0.58
  -5   3  15   14.41    0.55
  -5   3  15   12.78    0.69
  -5   3  15   14.60    0.56
  -4   3  15   23.25    0.82
   4   3 -15   22.29    0.85
   4   3 -15   24.41    0.84
  -4   3  15   23.26    0.84
  -4   3  15   22.61    0.83
  -4   3  15   22.46    0.85
  -3  -3  15   32.34    1.33
   3   3 -15   35.77    1.24
  -3   3  15   35.89    1.23
   3   3 -15   37.88    1.25
  -3   3  15   36.03    1.24
  -3   3  15   36.71    1.24
  -3   3  15   37.41    1.26
  -2  -3  15   17.80    0.74
  -2   3  15   19.36    0.70
  -2   3  15   18.22    0.72
   2   3 -15   20.28    0.71
  -2   3  15   18.13    0.74
   2   3 -15   19.94    0.71
  -2   3  15   18.82    0.69
  -1   3  15   32.03    1.12
   1   3 -15   31.97    1.12
   1   3 -15   32.69    1.13
  -1   3  15   33.15    1.11
   0   3  15   38.62    1.29
   0   3 -15   39.39    1.31
   0   3  15   37.24    1.30
   0   3 -15   37.55    1.31
  -1   3 -15    0.06    0.08
  -1   3 -15   -0.11    0.16
   1   3  15    0.11    0.09
  -2  -3 -15   19.03    0.70
  -2   3 -15   19.72    0.71
  -2   3 -15   18.76    0.71
  -3  -3 -15    0.78    0.14
  -3   3 -15    0.79    0.14
   3   3  15    0.79    0.15
  -3   3 -15    0.87    0.20
  -4  -3 -15   -0.10    0.10
   4   3  15    0.11    0.08
  -4   3 -15    0.04    0.11
  -4   3 -15    0.18    0.09
  -5  -3 -15    0.10    0.10
  -5   3 -15    0.06    0.11
  -5   3 -15    0.14    0.09
   5   3  15    0.16    0.08
  -6  -3 -15   14.31    0.57
   6   3  15   15.27    0.56
  -6   3 -15   14.36    0.58
  -6   3 -15   16.09    0.58
  -7  -3 -15    1.41    0.17
  -7   3 -15    1.33    0.17
   7   3  15    1.48    0.15
  -7   3 -15    1.30    0.23
  -8  -3 -15   19.06    0.70
  -8   3 -15   19.23    0.70
  -8   3 -15   19.04    0.71
   8   3  15   20.17    0.68
  -9  -3 -15    4.03    0.22
   9   3  15    4.21    0.19
  -9   3 -15    3.79    0.20
  -9   3 -15    4.12    0.24
 -10   3 -15    0.98    0.10
  10   3  15    1.15    0.10
 -12   4  15   -0.06    0.05
  12   4 -15   -0.02    0.06
  11  -4 -15    2.63    0.29
 -11   4  15    2.73    0.16
  11   4 -15    2.92    0.17
 -11   4  15    2.95    0.17
 -10   4  15    7.84    0.33
  10   4 -15    8.00    0.35
  10   4 -15    7.52    0.33
 -10   4  15    7.99    0.33
 -10   4  15    7.95    0.35
  -9   4  15    3.28    0.24
  -9   4  15    2.95    0.21
   9   4 -15    2.88    0.20
  -9   4  15    2.69    0.20
   9   4 -15    3.03    0.22
  -8  -4  15   10.87    0.51
  -8   4  15   12.76    0.52
   8   4 -15   12.39    0.50
  -8   4  15   12.85    0.51
   8   4 -15   13.06    0.50
  -8   4  15   13.30    0.49
  -7  -4  15    0.14    0.12
   7   4 -15   -0.08    0.11
   7   4 -15    0.23    0.11
  -7   4  15   -0.01    0.09
  -7   4  15   -0.02    0.10
  -7   4  15    0.24    0.15
  -7   4  15    0.15    0.09
  -6  -4  15   28.31    1.03
  -6   4  15   29.62    1.02
   6   4 -15   29.27    1.02
  -6   4  15   29.17    1.04
  -6   4  15   29.21    1.03
  -6   4  15   28.80    1.03
   6   4 -15   29.09    1.03
  -5   4  15    0.78    0.18
  -5   4  15    1.48    0.20
   5   4 -15    1.12    0.22
  -5   4  15    1.29    0.17
   5   4 -15    1.19    0.18
   4   4 -15    5.13    0.34
   4   4 -15    5.27    0.29
  -4   4  15    5.26    0.30
  -4   4  15    5.61    0.28
  -4   4  15    5.43    0.30
  -3   4  15    7.55    0.35
  -3   4  15    7.57    0.35
  -3   4  15    7.78    0.37
   3   4 -15    7.77    0.36
   3   4 -15    7.20    0.35
  -2   4  15   10.96    0.50
   2   4 -15   12.53    0.50
   2   4 -15   11.95    0.49
  -2   4  15   11.72    0.48
  -2   4  15   12.05    0.48
  -1   4  15    7.31    0.33
   1   4 -15    6.67    0.33
  -1   4  15    6.71    0.33
   1   4 -15    6.63    0.33
  -1   4  15    6.20    0.40
   0   4  15   42.58    1.49
   0   4 -15   44.08    1.50
   0   4  15   43.99    1.51
   0   4 -15   45.84    1.52
   1   4  15   33.43    1.16
  -1   4 -15   34.33    1.18
   2   4  15    2.56    0.20
  -2   4 -15    2.75    0.21
  -2   4 -15    2.31    0.30
  -3  -4 -15    0.42    0.18
   3   4  15    0.32    0.09
  -3   4 -15    0.31    0.15
  -3   4 -15    0.61    0.15
  -4  -4 -15   60.86    2.07
  -4   4 -15   62.11    2.08
   4   4  15   66.50    2.07
  -4   4 -15   60.65    2.09
  -5  -4 -15    0.33    0.11
  -5   4 -15    0.09    0.11
   5   4  15    0.10    0.08
  -5   4 -15    0.24    0.11
  -6  -4 -15    7.31    0.34
  -6   4 -15    7.58    0.35
  -6   4 -15    7.88    0.34
   6   4  15    7.12    0.36
  -7  -4 -15    0.25    0.12
  -7   4 -15    0.18    0.09
  -7   4 -15    0.11    0.09
   7   4  15    0.19    0.07
  -8  -4 -15    0.41    0.11
  -8   4 -15    0.52    0.12
  -8   4 -15    0.28    0.08
   8   4  15    0.37    0.07
   9   4  15    2.60    0.15
 -11   5  15   -0.01    0.06
  11   5 -15   -0.01    0.06
 -11   5  15   -0.04    0.05
 -10   5  15    0.00    0.06
  10   5 -15    0.01    0.06
 -10   5  15    0.12    0.06
   9   5 -15    0.04    0.07
  -9   5  15    0.12    0.07
  -9   5  15   -0.03    0.07
   9   5 -15    0.16    0.09
  -8  -5  15    0.31    0.14
   8   5 -15    0.23    0.09
   8   5 -15    0.34    0.09
  -8   5  15    0.50    0.12
  -8   5  15    0.37    0.09
  -8   5  15    0.36    0.08
  -7  -5  15    7.35    0.36
   7   5 -15    8.01    0.34
   7   5 -15    7.87    0.36
  -7   5  15    7.24    0.35
  -6  -5  15    0.56    0.13
   6   5 -15    0.66    0.12
   6   5 -15    0.50    0.12
  -6   5  15    0.69    0.17
  -6   5  15    0.57    0.12
  -6   5  15    0.69    0.15
  -5  -5  15   -0.06    0.10
   5   5 -15   -0.02    0.12
  -5   5  15    0.04    0.10
  -5   5  15    0.02    0.09
   5   5 -15    0.01    0.09
  -5   5  15    0.08    0.10
   4   5 -15    0.08    0.14
  -4   5  15    0.22    0.11
  -4   5  15    0.28    0.11
   4   5 -15   -0.01    0.10
  -4   5  15    0.26    0.09
  -3   5  15    0.22    0.11
  -3   5  15    0.21    0.11
  -3   5  15    0.08    0.09
   3   5 -15    0.10    0.10
  -2   5  15    2.47    0.22
   2   5 -15    2.02    0.21
  -2   5  15    2.18    0.20
  -2   5  15    2.24    0.21
   2   5 -15    2.14    0.21
  -1   5  15    7.26    0.33
   1   5 -15    6.47    0.34
  -1   5  15    6.87    0.35
   1   5 -15    6.80    0.33
  -1   5  15    6.77    0.33
   0   5 -15  100.68    3.69
   0   5  15  113.93    3.67
   0   5 -15  117.31    3.68
   0   5  15  114.55    3.67
   0   5  15  117.25    3.68
  -1   5 -15    6.99    0.35
   1   5  15    6.82    0.52
   1   5  15    6.96    0.37
  -1   5 -15    7.58    0.35
   1   5  15    7.18    0.33
   2   5  15    1.66    0.19
  -2   5 -15    1.55    0.17
  -2   5 -15    1.77    0.24
   3   5  15    0.22    0.10
  -3   5 -15    0.00    0.09
   4   5  15    3.33    0.21
  -4   5 -15    3.59    0.24
  -5   5 -15    1.24    0.18
   5   5  15    1.25    0.15
  -6   5 -15    0.21    0.10
   6   5  15    0.13    0.08
  -7   5 -15    0.99    0.19
  -9   6  15    0.03    0.06
   9   6 -15    0.18    0.07
  -9   6  15    0.17    0.08
  -8   6  15    0.22    0.06
   8   6 -15    0.15    0.08
  -8   6  15    0.09    0.07
  -7  -6  15    0.03    0.11
  -7   6  15    0.02    0.06
  -7   6  15    0.08    0.08
   7   6 -15    0.07    0.08
   7   6 -15   -0.08    0.07
  -7   6  15    0.10    0.07
  -6  -6  15    1.40    0.18
  -6   6  15    1.65    0.14
  -6   6  15    1.42    0.16
   6   6 -15    1.38    0.16
  -6   6  15    1.65    0.15
   6   6 -15    1.74    0.17
  -5  -6  15    6.41    0.31
   5   6 -15    6.08    0.31
   5   6 -15    6.67    0.30
  -5   6  15    6.85    0.29
  -5   6  15    6.83    0.30
  -5   6  15    6.27    0.30
  -4  -6  15   32.32    1.12
  -4   6  15   32.10    1.09
   4   6 -15   31.17    1.09
  -4   6  15   31.67    1.10
  -4   6  15   32.77    1.10
   4   6 -15   31.27    1.10
  -3   6  15    0.05    0.10
  -3   6  15   -0.07    0.09
  -2   6  15    0.05    0.10
   2   6 -15    0.06    0.10
  -1   6  15    4.12    0.25
  -1   6  15    3.84    0.28
   0   6  15    0.70    0.12
   0   6  15    0.46    0.11
   0   6 -15    0.46    0.11
   0   6  15    0.57    0.11
   1   6  15   -0.04    0.10
  -1   6 -15    0.04    0.10
   1   6  15    0.21    0.13
  -1   6 -15    0.13    0.10
   2   6  15    3.10    0.21
  -2   6 -15    3.03    0.23
  -2   6 -15    2.39    0.20
  -3   6 -15    4.81    0.27
   3   6  15    4.96    0.26
  -4   6 -15   13.02    0.51
  -5   6 -15    1.31    0.19
  -6   7  15    6.26    0.28
   6   7 -15    7.42    0.27
  -5  -7  15    2.76    0.20
  -5   7  15    3.08    0.15
  -5   7  15    2.58    0.16
   5   7 -15    2.73    0.16
  -4  -7  15    3.91    0.21
  -4   7  15    3.77    0.18
  -4   7  15    3.50    0.19
   4   7 -15    3.60    0.19
  -3  -7  15   15.46    0.57
   3   7 -15   14.72    0.55
  -3   7  15   15.50    0.54
  -3   7  15   15.29    0.55
  -2  -7  15    0.03    0.09
  -2   7  15   -0.04    0.06
   2   7 -15    0.10    0.07
  -2   7  15   -0.01    0.08
  -1   7  15    1.10    0.14
  -1   7  15    1.32    0.15
   1   7 -15    0.92    0.12
   0   7  15   10.62    0.41
   0   7 -15   11.07    0.41
  -1   7 -15    0.35    0.08
 -13   0  16   -0.09    0.07
  13   0 -16    0.06    0.06
 -12   0  16   31.08    1.08
  11   0 -16    0.12    0.13
 -11   0  16    0.15    0.13
 -11   0  16    0.03    0.12
 -10   0  16   39.83    1.43
 -10   0  16   44.10    1.45
  10   0 -16   41.92    1.43
   9   0 -16    0.07    0.12
  -9   0  16   -0.06    0.14
  -9   0  16    0.06    0.11
   8   0 -16    1.21    0.19
  -8   0  16    1.40    0.19
  -8   0  16    1.19    0.26
  -8   0  16    1.20    0.20
  -7   0  16    0.02    0.11
   7   0 -16    0.10    0.12
  -7   0  16    0.30    0.17
  -6   0  16   16.26    0.61
  -6   0  16   15.06    0.59
  -6   0  16   15.09    0.63
  -5   0  16   -0.01    0.16
  -5   0  16   -0.01    0.12
  -5   0  16   -0.10    0.15
  -4   0  16   16.36    0.63
  -3   0  16   -0.09    0.11
   1   0 -16   -0.16    0.14
   0   0 -16   95.53    3.11
   1   0  16    0.08    0.11
  -1   0 -16    0.20    0.10
  -1   0 -16    0.00    0.09
  -2   0 -16    8.31    0.38
  -2   0 -16    8.89    0.36
  -3   0 -16    0.15    0.11
  -3   0 -16   -0.12    0.08
  -4   0 -16   12.23    0.48
  -5   0 -16    0.04    0.10
  -5   0 -16    0.02    0.09
  -6   0 -16   13.96    0.56
  -6   0 -16   15.09    0.57
  -7   0 -16    0.01    0.08
  -7   0 -16    0.06    0.10
  -8   0 -16    2.50    0.19
  -9   0 -16    0.09    0.08
  -9   0 -16   -0.02    0.07
 -10   0 -16    0.42    0.10
 -10   0 -16    0.18    0.07
  13  -1 -16    0.06    0.07
 -13  -1  16    0.03    0.09
 -13   1  16    0.02    0.06
  13   1 -16    0.04    0.06
 -13   1  16   -0.03    0.10
 -12  -1  16   40.67    1.34
  12   1 -16   38.11    1.33
 -12   1  16   40.08    1.35
 -12   1  16   39.40    1.32
 -11  -1  16   -0.15    0.10
  11  -1 -16    0.03    0.11
  11   1 -16   -0.01    0.13
 -11   1  16    0.03    0.09
  11   1 -16   -0.01    0.08
 -11   1  16   -0.13    0.08
  10  -1 -16    0.47    0.12
 -10  -1  16    0.23    0.12
 -10   1  16    0.45    0.12
 -10   1  16    0.40    0.12
  10   1 -16    0.41    0.13
  -9  -1  16    0.88    0.21
   9  -1 -16    1.06    0.19
  -9   1  16    1.16    0.20
  -9   1  16    0.97    0.18
  -9   1  16    1.28    0.21
   9   1 -16    1.10    0.20
  -8  -1  16   59.07    2.00
   8   1 -16   58.60    1.98
  -8   1  16   60.53    1.98
  -8   1  16   58.74    1.98
  -8   1  16   59.19    2.00
  -7  -1  16   44.65    1.54
  -7   1  16   46.99    1.56
  -7   1  16   44.56    1.52
  -7   1  16   45.18    1.54
   7   1 -16   42.83    1.52
  -6  -1  16  100.39    3.26
   6   1 -16   97.15    3.25
  -6   1  16   99.51    3.24
  -6   1  16   99.67    3.26
  -6   1  16   99.21    3.25
  -5  -1  16   26.34    0.94
  -5   1  16   24.96    0.92
  -5   1  16   25.90    0.93
  -5   1  16   26.73    0.94
   5   1 -16   26.30    0.92
  -4  -1  16    1.65    0.23
  -4   1  16    1.60    0.29
   4   1 -16    1.59    0.19
  -4   1  16    1.53    0.23
  -4   1  16    1.63    0.21
  -3  -1  16    0.99    0.21
  -3   1  16    0.79    0.14
   3   1 -16    1.44    0.20
  -3   1  16    0.89    0.22
  -2   1  16    4.35    0.27
  -2   1  16    4.22    0.27
   2   1 -16    4.11    0.28
   2   1 -16    4.04    0.26
   1   1 -16    0.54    0.11
   1   1 -16    0.45    0.16
  -1   1  16    0.58    0.13
   0   1  16    9.59    0.41
   0   1 -16   10.14    0.40
  -1  -1 -16    1.95    0.18
  -1   1 -16    2.36    0.17
  -1   1 -16    1.80    0.19
   1   1  16    1.57    0.19
  -2  -1 -16   16.68    0.64
  -2  -1 -16   17.32    0.63
   2   1  16   16.21    0.62
  -2   1 -16   17.42    0.64
  -2   1 -16   17.88    0.63
  -3  -1 -16    1.43    0.21
  -3  -1 -16    1.86    0.17
  -3   1 -16    1.20    0.19
  -3   1 -16    1.71    0.16
  -4  -1 -16   11.36    0.52
  -4  -1 -16   13.34    0.50
  -4   1 -16   12.66    0.49
  -4   1 -16   12.15    0.50
  -5  -1 -16    0.91    0.18
  -5  -1 -16    0.81    0.15
  -5   1 -16    0.72    0.17
  -5   1 -16    0.76    0.15
  -6  -1 -16    1.61    0.19
  -6  -1 -16    1.82    0.17
  -6   1 -16    1.61    0.19
  -6   1 -16    1.75    0.17
  -7  -1 -16    1.13    0.16
  -7  -1 -16    1.39    0.18
  -7   1 -16    1.20    0.17
  -7   1 -16    1.23    0.15
  -8  -1 -16   18.09    0.65
  -8  -1 -16   17.82    0.66
  -8   1 -16   17.12    0.66
  -9  -1 -16    0.42    0.09
  -9  -1 -16    0.71    0.19
  -9   1 -16    0.40    0.14
  -9   1 -16    0.46    0.12
 -10  -1 -16   -0.01    0.09
 -10   1 -16    0.00    0.09
 -10   1 -16    0.01    0.06
  10   1  16    0.02    0.05
 -13   2  16    1.49    0.13
 -13   2  16    1.27    0.13
  13   2 -16    1.26    0.16
 -12   2  16    4.73    0.24
 -12   2  16    4.70    0.23
  12   2 -16    4.69    0.23
  11  -2 -16    1.89    0.20
 -11  -2  16    2.16    0.22
  11   2 -16    2.08    0.17
 -11   2  16    2.19    0.18
 -11   2  16    2.14    0.19
  10  -2 -16    5.38    0.30
 -10   2  16    5.29    0.30
 -10   2  16    5.67    0.28
  10   2 -16    5.99    0.29
 -10   2  16    5.44    0.29
  -9  -2  16    3.27    0.27
   9   2 -16    3.30    0.23
  -9   2  16    2.66    0.22
   9   2 -16    3.19    0.24
  -9   2  16    2.81    0.24
  -9   2  16    3.34    0.24
  -8  -2  16    4.66    0.33
   8   2 -16    4.35    0.27
  -8   2  16    4.65    0.27
  -8   2  16    4.09    0.27
   8   2 -16    4.67    0.28
  -8   2  16    4.40    0.29
  -7  -2  16   36.60    1.27
  -7   2  16   35.85    1.25
   7   2 -16   35.63    1.25
  -7   2  16   36.87    1.27
   7   2 -16   35.78    1.25
  -7   2  16   36.55    1.25
  -6  -2  16   23.22    0.84
   6   2 -16   22.28    0.81
  -6   2  16   23.45    0.83
  -6   2  16   21.76    0.80
  -6   2  16   22.59    0.82
   6   2 -16   21.20    0.85
  -5  -2  16   22.05    0.83
  -5   2  16   23.10    0.83
  -5   2  16   22.94    0.80
   5   2 -16   22.20    0.82
  -5   2  16   21.41    0.81
  -5   2  16   22.13    0.81
   5   2 -16   22.29    0.81
  -4  -2  16   20.10    0.75
  -4   2  16   20.46    0.75
   4   2 -16   19.47    0.73
   4   2 -16   19.84    0.73
  -4   2  16   19.73    0.72
  -4   2  16   19.01    0.74
  -4   2  16   20.38    0.72
  -3  -2  16   21.12    0.80
   3   2 -16   22.93    0.79
   3   2 -16   22.25    0.78
  -3   2  16   21.75    0.80
  -3   2  16   21.79    0.78
  -3   2  16   21.26    0.78
  -3   2  16   20.97    0.81
  -2   2  16   29.76    1.07
   2   2 -16   31.66    1.07
   2   2 -16   31.20    1.06
  -2   2  16   30.01    1.05
  -2   2  16   29.74    1.05
  -1   2  16    4.82    0.26
  -1   2  16    4.79    0.30
   1   2 -16    4.86    0.30
  -1   2  16    4.82    0.31
   1   2 -16    4.78    0.25
   0   2 -16   11.75    0.46
   0   2  16   11.64    0.45
   0   2  16   11.27    0.50
   0   2 -16   11.72    0.50
  -1   2 -16   13.41    0.50
   1   2  16   12.72    0.49
  -1   2 -16   12.49    0.51
  -2  -2 -16    9.10    0.38
   2   2  16    8.55    0.37
  -2   2 -16    8.83    0.38
  -2   2 -16    8.91    0.39
  -3  -2 -16   34.12    1.13
   3   2  16   30.41    1.12
  -3   2 -16   34.01    1.14
  -4  -2 -16   38.12    1.32
  -4  -2 -16   41.04    1.32
  -4   2 -16   36.95    1.32
  -4   2 -16   38.66    1.32
   4   2  16   37.03    1.30
  -5  -2 -16   17.66    0.65
  -5  -2 -16   16.78    0.65
  -5   2 -16   16.50    0.64
  -6  -2 -16    7.25    0.35
  -6  -2 -16    6.33    0.32
  -6   2 -16    6.54    0.32
  -6   2 -16    7.24    0.33
  -7  -2 -16    5.89    0.30
  -7  -2 -16    6.66    0.32
  -7   2 -16    5.75    0.30
  -7   2 -16    6.24    0.30
  -8  -2 -16    0.45    0.10
  -8   2 -16    0.63    0.13
   8   2  16    0.24    0.07
  -8   2 -16    0.56    0.14
  -9  -2 -16    0.07    0.09
  -9   2 -16    0.15    0.07
   9   2  16    0.11    0.06
  -9   2 -16    0.06    0.09
  10  -2  16    6.08    0.26
  10   2  16    5.97    0.24
 -10   2 -16    5.92    0.24
  12   3 -16    4.56    0.21
 -12   3  16    4.42    0.21
 -12   3  16    4.33    0.22
  11  -3 -16   25.99    0.89
 -11   3  16   25.65    0.90
 -11   3  16   26.71    0.91
  11   3 -16   25.74    0.90
 -11   3  16   26.01    0.90
  10   3 -16    1.32    0.16
  10   3 -16    1.42    0.18
 -10   3  16    1.33    0.16
 -10   3  16    1.34    0.18
 -10   3  16    1.17    0.15
  -9   3  16    1.49    0.20
  -9   3  16    1.16    0.17
   9   3 -16    1.44    0.20
   9   3 -16    1.38    0.18
  -9   3  16    1.14    0.18
   8   3 -16   91.68    3.04
  -8   3  16   92.26    3.05
  -8   3  16   94.63    3.05
   8   3 -16   91.07    3.05
  -8   3  16   94.09    3.06
  -7   3  16   12.26    0.49
  -7   3  16   12.51    0.50
   7   3 -16   12.28    0.51
  -7   3  16   12.05    0.52
  -7   3  16   12.85    0.52
   7   3 -16   12.91    0.51
  -6  -3  16    5.67    0.32
   6   3 -16    5.57    0.31
  -6   3  16    4.71    0.32
  -6   3  16    5.21    0.29
   6   3 -16    5.32    0.29
  -6   3  16    5.30    0.30
  -6   3  16    5.13    0.27
  -5   3  16   35.60    1.24
   5   3 -16   36.25    1.25
   5   3 -16   36.00    1.25
  -5   3  16   36.76    1.25
  -5   3  16   35.53    1.25
  -5   3  16   36.82    1.27
  -4  -3  16    0.60    0.20
   4   3 -16    0.39    0.12
  -4   3  16    0.19    0.15
  -4   3  16    0.48    0.14
  -4   3  16    0.43    0.12
  -4   3  16    0.46    0.12
  -3  -3  16   62.00    2.14
  -3   3  16   63.45    2.11
  -3   3  16   65.55    2.12
   3   3 -16   67.12    2.14
   3   3 -16   63.97    2.13
  -3   3  16   62.51    2.12
  -3   3  16   62.45    2.14
  -2  -3  16    0.74    0.18
  -2   3  16    0.49    0.19
  -2   3  16    0.56    0.13
  -2   3  16    0.60    0.19
   2   3 -16    0.82    0.20
  -2   3  16    0.54    0.11
   2   3 -16    0.53    0.12
  -1   3  16    3.94    0.35
   1   3 -16    4.56    0.28
  -1   3  16    3.83    0.27
   1   3 -16    4.46    0.25
  -1   3  16    4.17    0.25
   0   3 -16   17.97    0.67
   0   3  16   17.41    0.64
   0   3 -16   17.72    0.66
   0   3  16   16.94    0.67
  -1   3 -16    7.64    0.40
  -1   3 -16    7.65    0.34
   1   3  16    6.80    0.38
   2   3  16    2.04    0.18
  -2   3 -16    1.76    0.22
  -2   3 -16    1.83    0.18
  -3  -3 -16    1.25    0.21
   3   3  16    1.52    0.16
  -3   3 -16    0.90    0.20
  -3   3 -16    1.28    0.16
  -4  -3 -16    2.48    0.22
  -4   3 -16    1.76    0.24
  -4   3 -16    2.91    0.22
   4   3  16    2.08    0.18
  -5  -3 -16   10.20    0.43
  -5   3 -16    9.43    0.43
  -5   3 -16   10.65    0.43
   5   3  16    9.88    0.41
  -6  -3 -16    5.83    0.29
  -6   3 -16    6.00    0.29
  -6   3 -16    5.44    0.29
   6   3  16    6.05    0.28
  -7  -3 -16   -0.04    0.09
   7   3  16    0.06    0.07
  -7   3 -16    0.19    0.09
  -7   3 -16    0.12    0.08
  -8  -3 -16   13.60    0.51
  -8   3 -16   13.40    0.50
  -8   3 -16   12.29    0.51
   8   3  16   14.08    0.49
  -9  -3 -16    5.40    0.26
  -9   3 -16    5.38    0.27
  -9   3 -16    5.46    0.23
   9   3  16    5.44    0.22
  11  -4 -16    0.17    0.11
 -11   4  16    0.03    0.06
 -11   4  16    0.09    0.10
  11   4 -16    0.04    0.06
 -11   4  16    0.05    0.06
  10   4 -16    4.98    0.24
  10   4 -16    5.01    0.27
 -10   4  16    5.32    0.24
 -10   4  16    5.06    0.25
 -10   4  16    5.16    0.26
  -9   4  16   14.21    0.54
   9   4 -16   14.60    0.54
   9   4 -16   14.01    0.54
  -9   4  16   14.81    0.55
  -9   4  16   13.93    0.55
  -8   4  16   13.14    0.51
  -8   4  16   12.74    0.50
   8   4 -16   13.39    0.50
  -8   4  16   11.40    0.51
   8   4 -16   12.81    0.51
  -7  -4  16    0.63    0.14
  -7   4  16    0.69    0.17
  -7   4  16    0.93    0.17
   7   4 -16    0.84    0.16
   7   4 -16    0.77    0.18
  -7   4  16    0.65    0.15
  -7   4  16    0.48    0.16
  -6  -4  16    8.02    0.39
  -6   4  16    8.40    0.38
  -6   4  16    8.10    0.43
   6   4 -16    8.22    0.39
  -6   4  16    9.10    0.39
   6   4 -16    8.50    0.38
  -6   4  16    8.57    0.37
  -5   4  16   45.14    1.54
   5   4 -16   46.01    1.54
  -5   4  16   44.19    1.54
   5   4 -16   46.21    1.55
  -5   4  16   45.68    1.55
   4   4 -16    1.23    0.19
  -4   4  16    1.79    0.22
   4   4 -16    1.68    0.28
  -4   4  16    1.69    0.18
  -4   4  16    1.78    0.20
  -3   4  16   12.10    0.48
  -3   4  16   11.59    0.47
  -3   4  16   11.21    0.49
   3   4 -16   11.95    0.48
   3   4 -16   10.96    0.49
  -2   4  16    1.94    0.20
   2   4 -16    1.58    0.19
  -2   4  16    1.88    0.25
  -2   4  16    1.66    0.20
   2   4 -16    1.68    0.20
  -1   4  16    0.33    0.12
   1   4 -16    0.20    0.10
  -1   4  16    0.04    0.16
   1   4 -16    0.20    0.12
  -1   4  16    0.41    0.11
   0   4  16    0.36    0.10
   0   4 -16    0.13    0.09
   0   4 -16    0.10    0.12
   0   4  16   -0.22    0.13
  -1   4 -16    3.36    0.23
  -1   4 -16    2.84    0.27
   1   4  16    3.38    0.22
  -2   4 -16   30.13    1.11
   2   4  16   32.18    1.08
   3   4  16    9.33    0.37
  -3   4 -16    7.70    0.38
  -4  -4 -16   12.50    0.52
  -4   4 -16   11.69    0.51
   4   4  16   13.65    0.49
  -4   4 -16   13.09    0.51
  -5  -4 -16    4.81    0.28
  -5   4 -16    4.44    0.26
   5   4  16    5.04    0.24
  -6  -4 -16    8.11    0.36
  -6   4 -16    7.97    0.35
  -6   4 -16    8.38    0.36
   6   4  16    8.26    0.33
  -7  -4 -16   10.93    0.43
  -7   4 -16    9.77    0.40
  -7   4 -16   10.21    0.42
   7   4  16   10.37    0.39
  -8  -4 -16    2.73    0.22
  -8   4 -16    2.56    0.20
   8   4  16    2.31    0.15
   9   4  16    7.58    0.29
 -10   5  16    0.02    0.06
  10   5 -16    0.14    0.12
 -10   5  16    0.02    0.06
   9   5 -16   19.71    0.70
  -9   5  16   20.08    0.71
  -9   5  16   20.25    0.71
   9   5 -16   20.61    0.71
  -8  -5  16    0.32    0.16
  -8   5  16    0.36    0.08
  -8   5  16    0.76    0.13
   8   5 -16    0.54    0.14
   8   5 -16    0.41    0.09
  -7  -5  16    2.22    0.22
   7   5 -16    2.28    0.19
  -7   5  16    2.52    0.19
  -7   5  16    2.26    0.17
  -7   5  16    2.22    0.18
   7   5 -16    1.99    0.18
  -6  -5  16    0.78    0.14
  -6   5  16    1.15    0.16
  -6   5  16    0.83    0.12
   6   5 -16    1.09    0.18
   6   5 -16    0.83    0.16
  -6   5  16    1.06    0.15
  -5  -5  16    1.81    0.20
  -5   5  16    1.91    0.20
  -5   5  16    1.94    0.18
   5   5 -16    2.00    0.20
  -5   5  16    1.79    0.20
   5   5 -16    1.98    0.23
  -4   5  16    0.83    0.17
   4   5 -16    0.60    0.12
  -4   5  16    0.54    0.11
   4   5 -16    0.53    0.17
  -4   5  16    0.76    0.18
  -3   5  16   20.89    0.76
  -3   5  16   21.11    0.76
  -3   5  16   20.44    0.75
   3   5 -16   20.74    0.76
   2   5 -16    0.08    0.10
  -2   5  16    0.02    0.10
  -2   5  16    0.24    0.12
  -2   5  16    0.03    0.10
   2   5 -16    0.01    0.10
   1   5 -16    9.14    0.43
  -1   5  16    8.97    0.43
  -1   5  16    9.97    0.41
   1   5 -16    9.64    0.41
  -1   5  16   10.02    0.41
   0   5  16    3.17    0.29
   0   5 -16    3.44    0.24
   0   5 -16    3.41    0.24
   0   5  16    3.85    0.25
   0   5  16    3.66    0.24
  -1   5 -16    1.69    0.21
  -1   5 -16    1.10    0.16
   1   5  16    1.22    0.17
  -2   5 -16    5.12    0.28
   2   5  16    5.60    0.28
  -2   5 -16    5.06    0.32
  -3   5 -16    2.93    0.21
  -4   5 -16    5.50    0.29
   4   5  16    5.97    0.27
   5   5  16   10.67    0.41
  -5   5 -16   10.63    0.43
  -6   5 -16    4.26    0.24
   6   5  16    3.94    0.21
   7   5  16    0.04    0.08
   9   6 -16    2.11    0.15
  -9   6  16    2.24    0.12
  -9   6  16    1.65    0.14
   8   6 -16    0.52    0.13
  -8   6  16    0.59    0.12
  -8   6  16    0.52    0.10
   8   6 -16    0.54    0.12
  -7  -6  16    0.42    0.13
   7   6 -16    0.05    0.09
  -7   6  16    0.07    0.06
  -7   6  16    0.20    0.06
  -7   6  16    0.30    0.08
   7   6 -16    0.30    0.08
  -6  -6  16    0.43    0.12
  -6   6  16    0.67    0.12
   6   6 -16    0.49    0.11
  -6   6  16    0.60    0.11
  -6   6  16    0.67    0.14
   6   6 -16    0.52    0.12
  -5  -6  16   45.47    1.53
   5   6 -16   43.44    1.49
  -5   6  16   44.13    1.49
  -5   6  16   44.89    1.48
  -5   6  16   45.74    1.49
   5   6 -16   43.28    1.48
  -4  -6  16    1.88    0.19
  -4   6  16    1.68    0.15
  -4   6  16    1.80    0.18
   4   6 -16    1.88    0.16
  -4   6  16    1.78    0.17
  -3   6  16   -0.07    0.09
  -3   6  16    0.19    0.08
  -3   6  16   -0.03    0.09
   3   6 -16    0.22    0.09
  -2   6  16    0.13    0.10
   2   6 -16    0.16    0.09
  -2   6  16    0.04    0.10
  -2   6  16    0.13    0.08
  -1   6  16   26.15    0.92
  -1   6  16   26.70    0.91
  -1   6  16   26.68    0.92
   1   6 -16   26.78    0.93
   0   6  16    9.26    0.39
   0   6  16    8.68    0.40
   0   6  16    9.23    0.38
   0   6 -16    9.75    0.38
  -1   6 -16   11.93    0.49
  -1   6 -16   11.93    0.46
   1   6  16   11.90    0.46
  -2   6 -16    1.86    0.19
   2   6  16    2.09    0.18
  -2   6 -16    1.82    0.21
  -3   6 -16    4.82    0.26
   3   6  16    4.95    0.25
   4   6  16   11.46    0.46
  -4   6 -16   12.68    0.48
  -5   6 -16   16.83    0.65
   6   7 -16    2.84    0.15
  -6   7  16    2.54    0.14
  -5   7  16    8.44    0.31
   5   7 -16    8.49    0.31
  -5   7  16    7.34    0.33
  -4  -7  16    6.39    0.28
  -4   7  16    5.84    0.25
  -4   7  16    6.13    0.25
   4   7 -16    6.17    0.26
  -3  -7  16    2.07    0.17
  -3   7  16    1.42    0.14
  -3   7  16    2.00    0.13
   3   7 -16    2.08    0.14
  -2  -7  16    3.16    0.20
  -2   7  16    3.01    0.18
  -2   7  16    2.93    0.17
   2   7 -16    3.10    0.17
  -1   7  16    0.16    0.10
   1   7 -16    0.12    0.07
   0   7 -16    1.30    0.13
  -1   7 -16    0.07    0.09
  13   0 -17   20.79    0.70
 -13   0  17   19.47    0.75
  12   0 -17    0.09    0.07
 -12   0  17    0.00    0.07
 -11   0  17    4.17    0.28
 -11   0  17    3.88    0.24
  11   0 -17    3.88    0.25
 -10   0  17    0.03    0.10
 -10   0  17   -0.10    0.14
  10   0 -17    0.07    0.11
   9   0 -17   13.96    0.54
  -9   0  17   13.32    0.56
  -9   0  17   13.42    0.56
   8   0 -17    0.00    0.10
  -8   0  17   -0.11    0.10
  -8   0  17   -0.19    0.14
  -7   0  17    2.52    0.23
   7   0 -17    2.36    0.21
  -7   0  17    2.13    0.22
  -6   0  17    0.05    0.13
  -6   0  17   -0.17    0.16
  -6   0  17    0.00    0.11
  -5   0  17   16.94    0.63
  -5   0  17   15.49    0.65
  -5   0  17   15.89    0.63
  -4   0  17   -0.04    0.17
  -4   0  17    0.07    0.11
  -3   0  17    1.18    0.20
  -3   0  17    1.41    0.20
  -2   0  17    0.03    0.15
  -2   0  17   -0.19    0.09
   1   0 -17  120.73    3.79
  -1   0  17  112.13    3.77
   0   0  17    0.02    0.12
   0   0 -17    0.10    0.14
   1   0  17    4.62    0.28
  -1   0 -17    5.04    0.26
  -2   0 -17    0.05    0.09
  -2   0 -17   -0.05    0.09
   2   0  17   -0.03    0.10
  -3   0 -17   13.79    0.55
  -3   0 -17   13.80    0.53
  -4   0 -17   -0.04    0.08
  -4   0 -17    0.24    0.11
  -5   0 -17   79.47    2.65
  -5   0 -17   81.11    2.65
  -6   0 -17    0.00    0.09
  -6   0 -17   -0.04    0.08
  -7   0 -17    4.15    0.24
  -7   0 -17    4.37    0.25
  -8   0 -17    0.08    0.09
  -8   0 -17   -0.01    0.07
  -9   0 -17    1.63    0.14
  -9   0 -17    1.78    0.16
 -10   0 -17   -0.01    0.09
  10   0  17    0.09    0.06
  13  -1 -17    0.05    0.06
 -13  -1  17    0.12    0.10
 -13   1  17   -0.03    0.06
  13   1 -17    0.09    0.06
 -12  -1  17    2.50    0.19
 -12   1  17    2.19    0.17
 -12   1  17    2.76    0.19
  12   1 -17    2.46    0.17
 -11  -1  17   35.16    1.19
  11  -1 -17   33.86    1.17
  11   1 -17   34.68    1.18
 -11   1  17   35.07    1.18
  11   1 -17   34.27    1.19
 -11   1  17   34.51    1.20
 -10  -1  17    0.50    0.13
  10  -1 -17    0.36    0.11
 -10   1  17    0.42    0.12
 -10   1  17    0.64    0.17
  10   1 -17    0.34    0.12
  -9  -1  17   11.90    0.51
   9  -1 -17   11.32    0.48
   9   1 -17   12.29    0.49
  -9   1  17   11.83    0.48
  -9   1  17   11.77    0.49
  -9   1  17   11.88    0.51
  -8  -1  17    0.53    0.14
  -8   1  17    0.38    0.11
  -8   1  17    0.52    0.13
  -8   1  17    0.28    0.12
   8   1 -17    0.50    0.12
  -7  -1  17    0.46    0.13
  -7   1  17    0.30    0.13
  -7   1  17    0.25    0.12
   7   1 -17    0.46    0.12
  -7   1  17    0.57    0.12
  -6  -1  17    4.33    0.43
  -6   1  17    3.31    0.29
  -6   1  17    4.07    0.27
   6   1 -17    3.52    0.28
  -6   1  17    3.76    0.27
  -5  -1  17   36.75    1.26
  -5   1  17   35.30    1.26
  -5   1  17   36.12    1.25
  -5   1  17   36.22    1.25
   5   1 -17   37.00    1.25
  -4  -1  17    0.48    0.14
  -4   1  17    0.29    0.12
  -4   1  17    0.63    0.18
   4   1 -17    0.39    0.11
  -4   1  17    0.39    0.12
  -3  -1  17    1.98    0.22
  -3   1  17    1.61    0.21
   3   1 -17    1.83    0.21
  -3   1  17    1.76    0.22
   2   1 -17    0.36    0.13
  -2   1  17    0.19    0.12
   2   1 -17    0.14    0.13
  -2   1  17    0.27    0.12
   1   1 -17    0.54    0.12
   1   1 -17    0.47    0.15
  -1   1  17    0.33    0.10
   0   1  17    3.93    0.24
   0   1 -17    4.29    0.24
   0   1 -17    3.82    0.35
  -1  -1 -17   19.07    0.70
   1   1  17   19.21    0.69
  -1   1 -17   19.79    0.70
  -1   1 -17   19.39    0.71
  -2  -1 -17    0.75    0.17
   2  -1  17    1.04    0.23
  -2   1 -17    0.91    0.15
  -2   1 -17    0.96    0.18
   2   1  17    0.69    0.16
  -3  -1 -17   14.92    0.56
  -3  -1 -17   13.43    0.67
  -3   1 -17   15.14    0.57
  -3   1 -17   14.81    0.56
  -4  -1 -17    7.00    0.34
  -4  -1 -17    7.49    0.36
  -4   1 -17    7.22    0.34
  -4   1 -17    7.83    0.35
  -5  -1 -17    4.81    0.28
  -5  -1 -17    5.19    0.32
  -5   1 -17    4.77    0.28
  -6  -1 -17    0.28    0.11
  -6  -1 -17    0.18    0.09
  -6   1 -17    0.25    0.09
  -6   1 -17    0.09    0.10
  -7  -1 -17    0.19    0.10
  -7  -1 -17    0.18    0.09
  -7   1 -17    0.11    0.09
  -7   1 -17    0.20    0.09
  -8  -1 -17    9.03    0.39
  -8  -1 -17    9.97    0.39
  -8   1 -17    9.25    0.39
  -8   1 -17    9.67    0.40
  -9  -1 -17    3.51    0.19
  -9  -1 -17    3.48    0.21
  -9   1 -17    3.11    0.18
  -9   1 -17    3.50    0.20
   9   1  17    3.44    0.18
  10  -1  17    1.22    0.12
  10   1  17    1.15    0.13
 -10   1 -17    1.19    0.14
 -13   2  17    7.95    0.31
  13   2 -17    8.34    0.31
 -13   2  17    8.16    0.31
 -12   2  17    4.86    0.22
  12   2 -17    4.73    0.22
 -12   2  17    4.25    0.22
 -11  -2  17    1.55    0.20
  11  -2 -17    1.19    0.18
  11   2 -17    1.10    0.21
 -11   2  17    1.45    0.16
 -11   2  17    1.41    0.16
  11   2 -17    1.47    0.15
  10  -2 -17    5.16    0.28
 -10  -2  17    4.89    0.30
 -10   2  17    5.20    0.34
  10   2 -17    5.02    0.28
  -9  -2  17   16.74    0.66
   9   2 -17   17.00    0.64
  -9   2  17   16.69    0.65
   9   2 -17   17.18    0.64
  -9   2  17   17.41    0.66
  -9   2  17   16.91    0.64
  -8  -2  17   26.00    0.91
  -8   2  17   25.08    0.89
   8   2 -17   24.91    0.89
   8   2 -17   23.37    0.88
  -8   2  17   25.04    0.91
  -8   2  17   23.71    0.89
  -7  -2  17   22.06    0.82
  -7   2  17   22.09    0.79
   7   2 -17   21.05    0.80
  -7   2  17   21.41    0.80
  -7   2  17   22.69    0.82
   7   2 -17   21.06    0.79
  -6  -2  17   30.04    1.08
  -6   2  17   30.29    1.06
   6   2 -17   30.26    1.06
  -6   2  17   29.73    1.06
   6   2 -17   30.31    1.06
  -6   2  17   30.16    1.07
  -5  -2  17    3.35    0.30
   5   2 -17    3.48    0.25
  -5   2  17    2.66    0.25
   5   2 -17    3.21    0.29
  -5   2  17    3.34    0.26
  -4  -2  17   28.93    1.02
  -4   2  17   27.89    1.01
   4   2 -17   28.30    1.01
  -4   2  17   28.28    0.99
  -4   2  17   28.37    1.01
  -4   2  17   28.48    1.00
   4   2 -17   29.30    1.00
  -3  -2  17    0.11    0.14
   3   2 -17    0.12    0.12
   3   2 -17   -0.06    0.11
  -3   2  17    0.00    0.10
  -3   2  17    0.05    0.13
  -3   2  17    0.07    0.11
  -2  -2  17    0.46    0.12
   2   2 -17    1.07    0.18
  -2   2  17    0.54    0.13
  -2   2  17    0.47    0.11
   2   2 -17    0.64    0.14
  -2   2  17    0.66    0.15
  -1   2  17    2.45    0.24
   1   2 -17    2.49    0.24
   1   2 -17    2.11    0.19
  -1   2  17    2.35    0.24
  -1   2  17    2.11    0.19
   0   2 -17    5.83    0.35
   0   2 -17    5.77    0.29
   0   2  17    5.55    0.28
   1   2  17   17.68    0.64
  -1   2 -17   17.63    0.65
  -2  -2 -17   17.85    0.64
  -2   2 -17   18.96    0.65
   2   2  17   14.50    0.66
  -3  -2 -17   40.86    1.37
   3   2  17   38.10    1.36
  -3   2 -17   41.91    1.39
  -3   2 -17   40.87    1.39
  -4  -2 -17   15.36    0.59
   4   2  17   15.30    0.58
  -4   2 -17   15.44    0.60
  -4   2 -17   15.72    0.60
  -5  -2 -17    3.73    0.24
  -5   2 -17    3.69    0.24
   5   2  17    4.10    0.23
  -5   2 -17    4.24    0.25
  -6  -2 -17    0.43    0.10
  -6   2 -17    0.27    0.09
  -6   2 -17    0.21    0.10
   6   2  17    0.22    0.08
  -7  -2 -17    4.01    0.23
  -7   2 -17    3.78    0.23
  -8  -2 -17    0.15    0.09
  -8   2 -17    0.19    0.09
   8   2  17    0.22    0.07
  -8   2 -17    0.19    0.07
   9  -2  17   25.76    0.85
  -9  -2 -17   25.85    0.88
  -9   2 -17   23.91    0.86
   9   2  17   25.78    0.86
  -9   2 -17   25.34    0.88
 -10   2 -17    4.52    0.19
  10   2  17    4.78    0.19
  12   3 -17    3.43    0.17
 -12   3  17    3.56    0.22
 -12   3  17    3.20    0.18
  11  -3 -17    3.36    0.20
 -11   3  17    3.27    0.20
 -11   3  17    3.36    0.19
  11   3 -17    3.54    0.20
 -11   3  17    3.58    0.19
 -10   3  17    0.19    0.08
  10   3 -17    0.05    0.10
  10   3 -17   -0.03    0.08
 -10   3  17    0.09    0.08
 -10   3  17    0.04    0.09
   9   3 -17    4.53    0.27
  -9   3  17    4.30    0.25
  -9   3  17    4.32    0.25
  -8   3  17   56.20    1.87
   8   3 -17   56.87    1.87
  -8   3  17   56.36    1.86
  -8   3  17   54.39    1.88
   8   3 -17   54.20    1.86
  -7   3  17   24.90    0.92
  -7   3  17   25.31    0.91
   7   3 -17   25.57    0.91
   7   3 -17   25.45    0.91
  -7   3  17   26.24    0.93
  -6  -3  17   -0.09    0.17
  -6  -3  17    0.06    0.20
  -6   3  17    0.20    0.11
  -6   3  17    0.15    0.09
   6   3 -17    0.26    0.14
   6   3 -17    0.19    0.11
  -6   3  17    0.24    0.10
  -6   3  17    0.18    0.13
  -5  -3  17    8.92    0.47
   5   3 -17    9.24    0.41
  -5   3  17    9.19    0.44
   5   3 -17    9.23    0.44
  -5   3  17    9.52    0.41
  -5   3  17    9.14    0.42
  -5   3  17    9.63    0.40
  -4  -3  17    0.99    0.21
  -4   3  17    1.01    0.18
   4   3 -17    0.96    0.18
  -4   3  17    0.92    0.24
  -4   3  17    1.14    0.18
  -4   3  17    1.10    0.22
  -3  -3  17    0.24    0.17
   3   3 -17    0.35    0.12
  -3   3  17    1.27    0.28
  -3   3  17    0.29    0.10
   3   3 -17    0.31    0.12
  -3   3  17    0.33    0.16
  -3   3  17    0.32    0.11
  -2  -3  17    0.15    0.15
  -2   3  17    0.17    0.11
  -2   3  17    0.47    0.10
   2   3 -17    0.35    0.16
   2   3 -17    0.07    0.10
  -2   3  17    0.30    0.17
  -1   3  17   43.56    1.49
  -1   3  17   44.46    1.49
  -1   3  17   43.34    1.51
   1   3 -17   45.48    1.51
   0   3  17    2.72    0.32
   0   3 -17    3.04    0.42
   0   3  17    2.86    0.29
   0   3 -17    3.55    0.23
   0   3  17    3.61    0.22
  -1   3 -17   14.97    0.57
   1   3  17   14.44    0.55
   2   3  17   20.82    0.76
  -2   3 -17   21.62    0.78
  -3  -3 -17    4.74    0.30
  -3   3 -17    5.15    0.29
  -3   3 -17    6.31    0.37
   3   3  17    4.74    0.26
  -4  -3 -17   20.07    0.74
  -4   3 -17   20.82    0.75
  -4   3 -17   18.74    0.75
   4   3  17   21.57    0.73
  -5  -3 -17    1.42    0.18
  -5   3 -17    1.27    0.16
   5   3  17    1.30    0.16
  -5   3 -17    1.72    0.19
  -6  -3 -17    0.13    0.11
   6   3  17    0.15    0.08
  -6   3 -17    0.12    0.08
  -7  -3 -17    0.63    0.15
  -7   3 -17    0.68    0.14
  -7   3 -17    0.44    0.10
   7   3  17    0.59    0.11
  -8  -3 -17    0.12    0.10
  -8   3 -17    0.09    0.09
  -8   3 -17    0.01    0.07
   8   3  17    0.06    0.05
  -9   3 -17    0.09    0.06
  11  -4 -17    1.13    0.17
  11   4 -17    1.34    0.12
 -11   4  17    1.10    0.18
 -11   4  17    1.20    0.12
 -11   4  17    1.23    0.11
  10   4 -17    2.36    0.15
  10   4 -17    2.22    0.19
 -10   4  17    2.06    0.19
 -10   4  17    1.93    0.15
 -10   4  17    2.20    0.15
  -9   4  17    8.60    0.36
   9   4 -17    8.58    0.36
  -9   4  17    8.72    0.36
   9   4 -17    8.93    0.36
  -9   4  17    8.12    0.37
  -8   4  17   24.38    0.86
   8   4 -17   24.68    0.84
   8   4 -17   22.00    0.87
  -7  -4  17   19.69    0.79
   7   4 -17   21.80    0.79
  -7   4  17   21.75    0.79
  -7   4  17   22.46    0.78
  -7   4  17   21.39    0.81
  -7   4  17   22.48    0.78
   7   4 -17   22.26    0.79
  -6  -4  17   -0.06    0.12
  -6   4  17   -0.15    0.15
  -6   4  17    0.02    0.10
   6   4 -17    0.12    0.13
  -6   4  17    0.27    0.11
  -6   4  17    0.23    0.09
   6   4 -17    0.00    0.10
  -5   4  17    4.55    0.25
  -5   4  17    4.37    0.27
   5   4 -17    4.63    0.31
   5   4 -17    4.80    0.27
  -5   4  17    4.06    0.41
  -5   4  17    4.79    0.27
  -4   4  17   25.29    0.90
   4   4 -17   25.27    0.91
  -4   4  17   25.97    0.91
  -4   4  17   24.56    0.89
  -3   4  17    0.82    0.18
  -3   4  17    0.89    0.17
  -3   4  17    1.10    0.23
   3   4 -17    1.12    0.19
   3   4 -17    0.80    0.18
  -2   4  17    0.49    0.12
  -2   4  17    0.35    0.15
  -2   4  17    0.44    0.11
   2   4 -17    0.24    0.11
   2   4 -17    0.72    0.18
  -1   4  17    4.00    0.23
   1   4 -17    3.52    0.26
   1   4 -17    3.58    0.24
  -1   4  17    3.12    0.25
   0   4  17    0.11    0.09
   0   4 -17    0.36    0.14
   0   4  17    0.14    0.14
   0   4 -17   -0.06    0.15
  -1   4 -17    9.49    0.44
  -1   4 -17   10.93    0.46
   1   4  17   10.71    0.43
  -2   4 -17    0.07    0.09
   2   4  17    0.19    0.09
  -3   4 -17   22.22    0.84
   3   4  17   24.16    0.82
   4   4  17    0.72    0.14
  -4   4 -17    0.32    0.09
  -5  -4 -17    2.32    0.25
   5   4  17    2.66    0.18
  -5   4 -17    2.63    0.20
  -6  -4 -17    6.24    0.33
  -6   4 -17    6.38    0.30
   6   4  17    6.55    0.28
  -7  -4 -17    3.21    0.25
  -7   4 -17    3.01    0.20
   7   4  17    2.80    0.16
   8   4  17    3.48    0.17
 -10   5  17    0.61    0.15
 -10   5  17    0.72    0.11
  10   5 -17    0.93    0.12
  -9   5  17   -0.02    0.06
   9   5 -17   -0.02    0.07
   9   5 -17    0.13    0.08
  -9   5  17    0.01    0.06
  -8   5  17    8.69    0.34
   8   5 -17    8.16    0.34
   8   5 -17    8.56    0.34
  -8   5  17    8.26    0.35
  -7  -5  17    0.81    0.21
   7   5 -17    0.41    0.09
  -7   5  17    0.57    0.12
  -7   5  17    0.69    0.15
  -7   5  17    0.69    0.13
   7   5 -17    0.54    0.11
  -6  -5  17    0.65    0.13
   6   5 -17    0.96    0.17
  -6   5  17    0.64    0.13
  -6   5  17    0.97    0.16
  -6   5  17    0.76    0.15
   6   5 -17    0.54    0.13
  -5  -5  17    2.27    0.22
  -5   5  17    2.80    0.21
   5   5 -17    2.38    0.20
  -5   5  17    2.55    0.19
   5   5 -17    2.59    0.25
  -5   5  17    2.74    0.21
  -4   5  17   20.45    0.74
   4   5 -17   20.04    0.74
  -4   5  17   20.13    0.74
  -4   5  17   19.95    0.73
  -3   5  17    6.95    0.33
  -3   5  17    6.66    0.32
   3   5 -17    6.55    0.33
  -3   5  17    7.22    0.34
  -2   5  17   10.64    0.46
  -2   5  17   11.01    0.45
  -2   5  17   11.02    0.44
   2   5 -17   11.60    0.46
  -1   5  17   11.34    0.49
   1   5 -17   10.95    0.49
  -1   5  17   12.35    0.48
  -1   5  17   12.32    0.47
   1   5 -17   12.10    0.48
   0   5  17   57.96    1.90
   0   5 -17   59.61    1.92
   0   5  17   58.97    1.91
   0   5 -17   53.03    1.93
  -1   5 -17    0.75    0.14
   1   5  17    0.85    0.16
  -1   5 -17    0.90    0.16
  -2   5 -17    0.18    0.09
   2   5  17    0.13    0.09
  -3   5 -17    0.24    0.10
   3   5  17    0.13    0.08
   4   5  17    1.29    0.15
  -4   5 -17    1.55    0.17
   5   5  17    0.29    0.07
  -5   5 -17    0.17    0.09
  -6   5 -17   26.36    0.89
   6   5  17   24.25    0.85
   7   5  17    1.29    0.15
   8   6 -17    0.17    0.10
   8   6 -17    0.27    0.08
  -8   6  17    0.28    0.07
  -8   6  17    0.35    0.10
   7   6 -17    0.67    0.16
   7   6 -17    0.67    0.11
  -7   6  17    0.54    0.10
  -7   6  17    0.88    0.12
  -6  -6  17    1.76    0.20
  -6   6  17    1.81    0.13
   6   6 -17    1.61    0.15
   6   6 -17    1.65    0.24
  -6   6  17    1.62    0.15
  -6   6  17    1.92    0.14
  -5  -6  17    0.24    0.11
  -5   6  17    0.40    0.09
   5   6 -17    0.49    0.12
  -5   6  17    0.23    0.07
  -5   6  17    0.30    0.08
  -4  -6  17    4.30    0.25
  -4   6  17    4.14    0.21
  -4   6  17    4.17    0.23
  -4   6  17    4.28    0.23
   4   6 -17    4.30    0.22
  -3   6  17    2.39    0.17
  -3   6  17    2.42    0.19
   3   6 -17    2.21    0.18
  -3   6  17    2.28    0.18
  -2   6  17    4.77    0.25
  -2   6  17    4.42    0.25
   2   6 -17    4.84    0.24
  -2   6  17    4.65    0.24
  -1   6  17    4.25    0.22
  -1   6  17    3.49    0.25
  -1   6  17    4.20    0.23
   1   6 -17    4.05    0.23
   0   6 -17    0.71    0.16
   0   6  17    0.79    0.16
   0   6  17    0.93    0.19
  -1   6 -17    2.83    0.20
  -1   6 -17    2.63    0.20
   1   6  17    2.71    0.19
  -2   6 -17    1.26    0.17
   2   6  17    0.92    0.16
   3   6  17    2.77    0.19
  -3   6 -17    3.12    0.21
   4   6  17    0.47    0.16
  -4   6 -17    0.82    0.17
   5   7 -17    1.16    0.10
  -5   7  17    0.79    0.11
   4   7 -17    0.15    0.06
  -4   7  17    0.18    0.07
  -3  -7  17    1.28    0.16
  -3   7  17    1.55    0.14
   3   7 -17    1.63    0.12
  -2  -7  17    3.77    0.22
   2   7 -17    3.97    0.19
  -2   7  17    3.73    0.19
  -2   7  17    3.96    0.21
  -1  -7  17    0.17    0.09
   1   7 -17    0.47    0.11
   0   7 -17    1.42    0.13
 -13   0  18   -0.07    0.07
  13   0 -18   -0.02    0.08
  12   0 -18    1.65    0.14
 -12   0  18    1.81    0.15
  11   0 -18   -0.07    0.10
 -11   0  18    0.10    0.09
  10   0 -18   50.95    1.76
 -10   0  18   55.57    1.79
 -10   0  18   51.68    1.76
   9   0 -18   -0.01    0.09
  -9   0  18    0.06    0.11
  -9   0  18   -0.08    0.14
  -8   0  18    0.46    0.16
   8   0 -18    0.72    0.17
  -8   0  18    1.17    0.20
   7   0 -18    0.15    0.09
  -7   0  18    0.06    0.11
  -7   0  18    0.29    0.17
  -6   0  18   26.02    1.09
  -6   0  18   28.20    1.00
  -6   0  18   27.08    0.99
   6   0 -18   29.18    0.98
  -5   0  18   -0.18    0.16
   5   0 -18   -0.17    0.10
  -5   0  18   -0.13    0.11
  -5   0  18    0.05    0.16
  -4   0  18    2.63    0.22
  -4   0  18    1.72    0.32
  -3   0  18   -0.16    0.11
   3   0 -18    0.04    0.11
  -3   0  18   -0.11    0.16
   2   0 -18   55.06    1.78
  -2   0  18   54.62    1.78
  -2   0  18   49.90    1.77
   1   0 -18   -0.06    0.13
  -1   0  18    0.06    0.12
   0   0  18   23.40    0.83
   0   0 -18   23.32    0.83
  -1   0 -18    0.00    0.11
   1   0  18    0.13    0.12
  -2   0 -18   21.02    0.79
  -2   0 -18   22.63    0.77
   2   0  18   20.71    0.76
  -3   0 -18   -0.06    0.10
  -3   0 -18    0.00    0.10
   3   0  18    0.05    0.10
  -4   0 -18  196.23    6.26
  -4   0 -18  190.97    6.26
  -5   0 -18    0.02    0.09
  -5   0 -18    0.08    0.10
  -6   0 -18    0.00    0.08
  -6   0 -18   -0.06    0.08
  -7   0 -18    0.03    0.09
  -7   0 -18    0.04    0.09
  -8   0 -18    6.75    0.31
  -8   0 -18    6.69    0.30
   9   0  18    0.03    0.05
  -9   0 -18    0.21    0.09
  -9   0 -18    0.03    0.06
  10   0  18   22.38    0.75
 -13  -1  18    4.88    0.25
 -13   1  18    5.21    0.22
  13   1 -18    4.84    0.21
 -12  -1  18   15.94    0.57
  12   1 -18   15.38    0.56
 -12   1  18   16.25    0.61
 -12   1  18   14.46    0.57
  11  -1 -18    0.25    0.10
 -11  -1  18    0.13    0.09
 -11   1  18    0.20    0.09
  11   1 -18    0.24    0.08
  11   1 -18    0.37    0.11
 -11   1  18    0.36    0.10
  10   1 -18    0.86    0.20
 -10   1  18    0.74    0.17
 -10   1  18    0.60    0.19
  -9  -1  18   44.27    1.49
   9  -1 -18   42.92    1.47
  -9   1  18   42.75    1.47
  -9   1  18   43.37    1.49
  -9   1  18   43.79    1.47
   9   1 -18   42.45    1.47
  -8  -1  18   47.34    1.65
   8   1 -18   48.30    1.63
  -8   1  18   49.06    1.63
  -8   1  18   48.18    1.65
  -8   1  18   47.97    1.63
  -7  -1  18   23.03    0.87
  -7   1  18   23.64    0.85
   7   1 -18   23.63    0.85
  -7   1  18   23.51    0.87
  -7   1  18   23.59    0.86
  -6  -1  18  106.66    3.53
   6   1 -18  111.17    3.52
  -6   1  18  105.32    3.51
  -6   1  18  106.12    3.53
  -6   1  18  107.73    3.51
  -5  -1  18   -0.09    0.12
  -5   1  18   -0.04    0.16
  -5   1  18   -0.05    0.12
  -4  -1  18    0.24    0.13
  -4   1  18    0.20    0.12
   4   1 -18    0.30    0.11
  -4   1  18    0.26    0.13
  -3  -1  18   37.42    1.31
   3   1 -18   38.95    1.30
  -3   1  18   37.93    1.30
  -3   1  18   38.00    1.31
  -2  -1  18   17.73    0.66
   2   1 -18   16.33    0.65
  -2   1  18   18.24    0.67
   2   1 -18   17.83    0.66
  -2   1  18   17.80    0.65
   1   1 -18    4.11    0.26
   1   1 -18    4.74    0.31
  -1   1  18    4.45    0.25
   0   1  18  101.38    3.38
   0   1 -18  104.81    3.40
   0   1 -18  106.29    3.41
  -1  -1 -18   11.42    0.46
   1   1  18   11.00    0.45
  -1   1 -18   11.54    0.46
  -2  -1 -18    3.82    0.24
   2  -1  18    3.15    0.28
  -2   1 -18    3.69    0.24
  -2   1 -18    4.19    0.24
  -3  -1 -18   57.04    1.84
   3  -1  18   52.85    1.83
  -3  -1 -18   53.98    1.84
  -3   1 -18   56.15    1.85
   3   1  18   54.49    1.83
  -3   1 -18   55.30    1.85
  -4  -1 -18    1.38    0.17
  -4  -1 -18    1.03    0.19
  -4   1 -18    1.04    0.16
   4   1  18    1.22    0.16
  -4   1 -18    1.30    0.17
  -5  -1 -18    0.06    0.10
  -5  -1 -18    0.05    0.09
  -5   1 -18    0.02    0.09
  -5   1 -18   -0.03    0.09
  -6  -1 -18   11.68    0.45
  -6  -1 -18   10.11    0.45
  -6   1 -18   10.41    0.45
  -6   1 -18   11.34    0.45
  -7  -1 -18    0.56    0.14
  -7  -1 -18    0.71    0.14
  -7   1 -18    0.43    0.10
  -8  -1 -18   26.71    0.89
  -8  -1 -18   25.89    0.91
  -8   1 -18   25.67    0.91
   8   1  18   25.59    0.88
  -8   1 -18   25.62    0.90
   9  -1  18    3.78    0.18
  -9  -1 -18    3.80    0.21
  -9   1 -18    3.86    0.21
  -9   1 -18    3.67    0.18
   9   1  18    3.73    0.18
  10   1  18    0.33    0.08
 -12   2  18    9.00    0.36
  12   2 -18    9.33    0.35
 -12   2  18    9.18    0.35
 -11  -2  18    0.12    0.12
  11  -2 -18    0.09    0.09
  11   2 -18    0.00    0.07
 -11   2  18    0.03    0.08
  11   2 -18    0.03    0.11
 -11   2  18   -0.06    0.08
  10  -2 -18    3.73    0.22
 -10  -2  18    3.57    0.26
  10   2 -18    4.03    0.24
 -10   2  18    3.93    0.24
  10   2 -18    3.75    0.23
 -10   2  18    3.90    0.23
 -10   2  18    3.99    0.22
  -9  -2  18    3.29    0.27
   9   2 -18    3.04    0.23
   9   2 -18    3.49    0.23
  -9   2  18    3.32    0.22
  -9   2  18    3.05    0.24
  -9   2  18    3.37    0.24
  -8  -2  18    0.15    0.14
  -8   2  18    0.18    0.11
   8   2 -18    0.11    0.10
  -8   2  18    0.00    0.11
  -8   2  18    0.34    0.12
  -7  -2  18    0.88    0.17
  -7   2  18    0.57    0.13
   7   2 -18    0.82    0.20
  -7   2  18    0.84    0.19
   7   2 -18    0.87    0.17
  -7   2  18    0.72    0.18
  -6  -2  18    1.14    0.23
   6   2 -18    1.43    0.24
  -6   2  18    1.11    0.20
  -6   2  18    1.08    0.21
  -6   2  18    1.34    0.22
   6   2 -18    1.23    0.18
  -5  -2  18   36.03    1.25
  -5   2  18   35.12    1.24
  -5   2  18   36.92    1.25
   5   2 -18   35.02    1.23
  -5   2  18   35.60    1.23
  -4  -2  18    0.35    0.14
  -4   2  18    0.09    0.16
   4   2 -18    0.15    0.11
  -3  -2  18    5.79    0.33
   3   2 -18    5.19    0.31
  -3   2  18    5.44    0.29
   3   2 -18    5.59    0.30
  -3   2  18    5.38    0.31
  -2  -2  18    8.49    0.39
  -2   2  18    8.45    0.37
   2   2 -18    8.65    0.39
  -2   2  18    8.54    0.40
   2   2 -18    9.20    0.39
   1   2 -18    0.43    0.14
  -1   2  18    0.29    0.09
  -1   2  18    0.14    0.12
   1   2 -18    0.22    0.10
   0   2  18   16.97    0.63
   0   2  18   17.12    0.65
   0   2 -18   16.50    0.67
   0   2 -18   18.05    0.65
  -1   2 -18    8.00    0.35
   1   2  18    7.22    0.33
  -2  -2 -18   80.74    2.62
   2   2  18   79.85    2.61
  -2   2 -18   81.87    2.64
  -2   2 -18   76.30    2.62
  -3  -2 -18   12.41    0.49
   3   2  18   11.14    0.47
  -3   2 -18   12.67    0.49
  -3   2 -18   11.85    0.49
  -4  -2 -18   44.79    1.58
   4   2  18   46.80    1.55
  -4   2 -18   46.12    1.57
  -4   2 -18   47.18    1.57
  -5  -2 -18   14.84    0.58
   5   2  18   15.55    0.57
  -5   2 -18   14.09    0.58
  -5   2 -18   16.44    0.59
  -6  -2 -18    4.73    0.26
  -6   2 -18    4.51    0.26
  -6   2 -18    4.74    0.26
   6   2  18    5.20    0.25
  -7  -2 -18   18.00    0.67
  -7   2 -18   18.02    0.68
  -7   2 -18   18.76    0.67
   7   2  18   18.93    0.66
   8  -2  18    5.66    0.28
  -8  -2 -18    5.62    0.27
  -8   2 -18    5.32    0.25
   8   2  18    5.80    0.24
  -8   2 -18    5.87    0.27
  -9  -2 -18    3.19    0.22
  -9   2 -18    3.39    0.16
  -9   2 -18    3.04    0.20
   9   2  18    3.33    0.16
 -12   3  18   10.29    0.39
 -12   3  18   10.51    0.38
  12   3 -18   10.52    0.38
  11  -3 -18    0.00    0.09
 -11   3  18   -0.10    0.07
 -11   3  18    0.12    0.07
  11   3 -18    0.04    0.07
  10   3 -18    0.70    0.15
 -10   3  18    0.28    0.10
  10   3 -18    0.50    0.10
 -10   3  18    0.35    0.08
 -10   3  18    0.36    0.09
   9   3 -18    0.20    0.09
  -9   3  18    0.17    0.10
  -9   3  18    0.13    0.09
   9   3 -18    0.09    0.09
  -9   3  18   -0.08    0.08
  -8   3  18    7.07    0.34
  -8   3  18    6.90    0.35
   8   3 -18    6.81    0.33
  -8   3  18    6.91    0.33
   8   3 -18    7.13    0.34
  -7   3  18    0.35    0.13
  -7   3  18    0.37    0.11
  -7   3  18    0.38    0.11
   7   3 -18    0.38    0.11
   7   3 -18    0.44    0.13
  -6  -3  18    0.87    0.20
  -6   3  18    0.96    0.16
   6   3 -18    1.14    0.23
  -6   3  18    0.88    0.16
   6   3 -18    0.83    0.17
  -6   3  18    0.68    0.12
  -6   3  18    1.02    0.19
  -5  -3  18    0.07    0.16
   5   3 -18    0.23    0.18
  -5   3  18   -0.05    0.12
   5   3 -18    0.16    0.11
  -5   3  18   -0.02    0.09
  -5   3  18    0.01    0.09
  -5   3  18    0.00    0.12
  -4  -3  18    0.64    0.18
  -4   3  18    0.58    0.16
  -4   3  18    0.36    0.15
  -4   3  18    0.53    0.12
  -4   3  18    0.30    0.11
   4   3 -18    0.56    0.12
  -3  -3  18    7.34    0.40
  -3   3  18    7.03    0.40
  -3   3  18    6.81    0.39
  -3   3  18    7.60    0.35
   3   3 -18    8.15    0.37
  -3   3  18    7.66    0.35
   3   3 -18    7.36    0.35
  -2  -3  18    0.03    0.15
  -2   3  18    0.16    0.09
  -2   3  18    0.17    0.16
   2   3 -18    0.04    0.10
  -2   3  18    0.10    0.11
   2   3 -18   -0.07    0.12
   1   3 -18    5.24    0.30
  -1   3  18    5.01    0.30
  -1   3  18    4.80    0.34
  -1   3  18    5.05    0.26
   1   3 -18    4.85    0.28
   0   3 -18   77.54    2.53
   0   3 -18   75.66    2.54
   0   3  18   79.24    2.52
   0   3  18   74.18    2.53
  -1   3 -18   14.10    0.56
   1   3  18   13.80    0.60
   1   3  18   15.04    0.55
  -2   3 -18    5.09    0.31
   2   3  18    5.41    0.27
   3   3  18    3.48    0.21
  -3   3 -18    3.06    0.22
  -3   3 -18    3.36    0.24
  -4  -3 -18    2.87    0.25
  -4   3 -18    3.18    0.22
   4   3  18    2.86    0.20
  -4   3 -18    2.78    0.20
  -5  -3 -18    3.20    0.24
  -5   3 -18    3.46    0.22
  -5   3 -18    3.57    0.23
   5   3  18    3.89    0.21
  -6  -3 -18    0.48    0.12
  -6   3 -18    0.53    0.14
  -6   3 -18    0.58    0.13
   6   3  18    0.44    0.11
  -7  -3 -18    0.69    0.17
  -7   3 -18    0.82    0.13
   7   3  18    0.88    0.11
  -8  -3 -18    7.99    0.35
  -8   3 -18    8.33    0.34
  -8   3 -18    7.99    0.31
   8   3  18    8.06    0.31
   9   3  18    0.22    0.05
  11  -4 -18    0.79    0.16
  11   4 -18    1.16    0.11
 -11   4  18    0.98    0.15
  10   4 -18    2.30    0.24
  10   4 -18    2.39    0.16
 -10   4  18    2.54    0.16
 -10   4  18    2.08    0.15
 -10   4  18    2.18    0.26
  -9   4  18    0.31    0.08
   9   4 -18    0.10    0.08
  -9   4  18   -0.09    0.10
  -9   4  18    0.05    0.07
   9   4 -18    0.27    0.09
   8   4 -18   10.57    0.42
  -8   4  18   10.53    0.43
   8   4 -18   10.51    0.42
  -8   4  18   10.39    0.42
  -8   4  18   10.57    0.44
  -7   4  18   11.11    0.44
   7   4 -18   10.92    0.44
   7   4 -18   10.94    0.49
  -7   4  18   10.53    0.43
  -7   4  18    9.30    0.45
  -6  -4  18    0.20    0.14
   6   4 -18    0.29    0.10
  -6   4  18    0.04    0.10
  -6   4  18    0.00    0.15
  -6   4  18    0.33    0.10
   6   4 -18    0.39    0.14
  -6   4  18    0.14    0.10
  -5   4  18   29.30    1.08
  -5   4  18   30.18    1.05
   5   4 -18   30.39    1.06
  -5   4  18   30.67    1.06
  -5   4  18   30.12    1.05
  -4   4  18    1.44    0.22
  -4   4  18    1.13    0.17
   4   4 -18    1.09    0.18
  -4   4  18    1.36    0.18
  -3   4  18   12.45    0.51
  -3   4  18   12.27    0.49
   3   4 -18   12.69    0.50
   3   4 -18   11.49    0.51
  -3   4  18   12.45    0.50
   2   4 -18    0.72    0.18
  -2   4  18    0.57    0.12
  -2   4  18    0.88    0.18
   2   4 -18    0.52    0.12
  -2   4  18    1.03    0.18
  -1   4  18   13.88    0.53
   1   4 -18   13.34    0.54
  -1   4  18   13.32    0.53
   1   4 -18   12.98    0.54
   0   4 -18    4.40    0.27
   0   4  18    5.20    0.27
   0   4  18    4.96    0.31
   0   4 -18    5.35    0.30
  -1   4 -18   34.03    1.17
  -1   4 -18   32.37    1.18
   1   4  18   34.43    1.16
  -2   4 -18   19.49    0.75
   2   4  18   21.02    0.73
   3   4  18   15.17    0.56
  -3   4 -18   14.88    0.58
   4   4  18    1.16    0.15
  -4   4 -18    0.74    0.15
   5   4  18    2.23    0.16
  -5   4 -18    2.02    0.18
  -6   4 -18    2.22    0.18
   6   4  18    2.33    0.15
   7   4  18   32.35    1.11
  -7   4 -18   34.60    1.14
   8   4  18    3.25    0.16
  10  -5 -18    1.67    0.14
 -10   5  18    1.61    0.12
  10   5 -18    1.85    0.14
 -10   5  18    1.56    0.11
   9   5 -18   16.09    0.59
  -9   5  18   14.69    0.54
  -9   5  18   15.47    0.54
   9   5 -18   14.85    0.54
   8   5 -18    0.12    0.09
  -8   5  18    0.09    0.06
   8   5 -18    0.07    0.07
  -8   5  18    0.10    0.06
  -7  -5  18   -0.21    0.18
  -7   5  18    0.17    0.08
  -7   5  18    0.25    0.07
   7   5 -18    0.10    0.08
   7   5 -18    0.03    0.10
  -6  -5  18    5.80    0.31
  -6   5  18    5.84    0.27
  -6   5  18    5.78    0.27
   6   5 -18    5.82    0.30
  -6   5  18    5.65    0.28
   6   5 -18    5.65    0.27
  -5  -5  18   13.82    0.55
  -5   5  18   14.13    0.57
  -5   5  18   14.25    0.54
  -4   5  18    6.99    0.33
  -4   5  18    7.29    0.32
   4   5 -18    7.21    0.33
  -3   5  18   34.14    1.17
  -3   5  18   33.31    1.18
  -3   5  18   35.58    1.19
   3   5 -18   34.56    1.19
  -2   5  18   11.87    0.46
  -2   5  18   11.02    0.47
  -2   5  18   11.51    0.45
   2   5 -18   11.04    0.46
  -1   5  18    1.74    0.19
   1   5 -18    1.55    0.19
  -1   5  18    1.46    0.18
   1   5 -18    1.91    0.19
   0   5 -18   -0.03    0.11
   0   5  18    0.16    0.09
   0   5 -18    0.04    0.09
  -1   5 -18    0.44    0.13
   1   5  18    0.36    0.12
  -1   5 -18    0.44    0.11
  -2   5 -18    3.36    0.22
   2   5  18    3.51    0.21
   3   5  18    0.88    0.14
  -3   5 -18    0.88    0.15
  -4   5 -18    0.05    0.10
   4   5  18    0.06    0.07
   5   5  18    2.57    0.16
  -5   5 -18    2.66    0.19
  -6   5 -18    0.15    0.11
   6   5  18    0.34    0.07
  -8   6  18    1.05    0.12
   8   6 -18    0.85    0.12
  -8   6  18    0.75    0.10
   7   6 -18    9.69    0.36
  -7   6  18    9.43    0.36
  -6  -6  18    2.92    0.24
  -6   6  18    3.25    0.18
   6   6 -18    2.97    0.17
  -6   6  18    2.99    0.16
  -6   6  18    2.87    0.16
  -5  -6  18   12.16    0.49
  -5   6  18   12.18    0.46
  -5   6  18   12.77    0.47
  -5   6  18   12.71    0.47
   5   6 -18   12.81    0.47
  -4  -6  18    2.23    0.19
  -4   6  18    2.21    0.17
  -4   6  18    2.02    0.17
   4   6 -18    2.08    0.16
  -4   6  18    2.06    0.15
  -3   6  18    0.19    0.09
  -3   6  18    0.31    0.10
   3   6 -18    0.28    0.08
  -3   6  18    0.14    0.07
  -2   6  18    2.16    0.16
   2   6 -18    2.24    0.17
  -2   6  18    2.22    0.20
  -2   6  18    2.21    0.18
  -1   6  18    1.28    0.16
  -1   6  18    1.20    0.15
   1   6 -18    1.38    0.16
   0   6  18    3.16    0.19
   0   6 -18    3.23    0.20
  -1   6 -18   22.89    0.80
   1   6  18   23.51    0.80
  -2   6 -18    2.68    0.20
   2   6  18    2.79    0.18
   3   6  18    2.14    0.17
  -3   6 -18    2.54    0.19
  -4   7  18    0.20    0.08
   4   7 -18    0.11    0.05
  -3   7  18    2.29    0.20
   3   7 -18    1.71    0.12
   2   7 -18    1.16    0.11
   1   7 -18    1.10    0.12
   0   7 -18   16.68    0.58
  13   0 -19    3.95    0.18
 -13   0  19    3.94    0.19
 -12   0  19   -0.01    0.07
  12   0 -19    0.05    0.06
 -11   0  19    0.12    0.08
  11   0 -19    0.23    0.10
  10   0 -19    0.07    0.10
  -9   0  19    3.93    0.31
  -9   0  19    3.79    0.27
   9   0 -19    4.17    0.25
   8   0 -19   -0.04    0.09
  -8   0  19    0.05    0.11
  -8   0  19   -0.31    0.15
  -7   0  19    4.82    0.36
   7   0 -19    5.18    0.28
  -7   0  19    4.97    0.30
   6   0 -19    0.16    0.10
  -6   0  19    0.07    0.11
  -6   0  19    0.43    0.17
   5   0 -19  120.37    3.88
  -5   0  19  119.77    3.89
  -5   0  19  116.49    3.87
  -4   0  19   -0.11    0.10
   4   0 -19   -0.22    0.11
  -4   0  19   -0.18    0.17
  -3   0  19   -0.01    0.11
   3   0 -19   -0.13    0.11
  -3   0  19    0.14    0.15
  -2   0  19    0.15    0.14
   2   0 -19   -0.02    0.11
  -2   0  19   -0.08    0.09
   1   0 -19   38.37    1.27
  -1   0  19   35.46    1.25
   0   0 -19    0.10    0.13
   0   0  19    0.09    0.11
   1   0  19    1.95    0.21
  -1   0 -19    2.35    0.21
  -2   0 -19    0.07    0.11
   2   0  19    0.14    0.10
  -3   0 -19    6.83    0.33
  -3   0 -19    7.00    0.33
   3   0  19    6.16    0.31
  -4   0 -19    0.01    0.09
   4   0  19    0.04    0.09
   5   0  19  155.15    4.80
  -5   0 -19  151.36    4.82
  -5   0 -19  138.59    4.81
  -6   0 -19   -0.09    0.09
  -6   0 -19   -0.08    0.08
   6   0  19    0.08    0.08
  -7   0 -19    5.33    0.27
   7   0  19    5.56    0.25
  -7   0 -19    5.34    0.26
   8   0  19    0.04    0.06
  -8   0 -19    0.02    0.06
  -8   0 -19    0.02    0.09
   9   0  19    8.76    0.32
  -9   0 -19    8.54    0.35
  13  -1 -19    1.40    0.11
 -13   1  19    1.06    0.11
 -12  -1  19    0.12    0.09
  12   1 -19    0.17    0.07
 -12   1  19    0.13    0.11
 -11  -1  19   16.83    0.62
  11  -1 -19   16.83    0.60
  11   1 -19   16.96    0.61
  11   1 -19   16.58    0.60
 -11   1  19   16.38    0.60
 -11   1  19   16.23    0.62
 -10  -1  19    0.05    0.10
  10  -1 -19    0.11    0.09
  10   1 -19    0.24    0.09
 -10   1  19    0.11    0.10
 -10   1  19    0.10    0.09
  10   1 -19    0.21    0.09
   9  -1 -19    5.21    0.27
  -9  -1  19    5.04    0.30
   9   1 -19    4.98    0.28
  -9   1  19    4.56    0.29
  -9   1  19    4.89    0.29
   8  -1 -19   11.02    0.46
  -8  -1  19   11.11    0.49
   8   1 -19   11.46    0.47
  -8   1  19   11.28    0.48
  -8   1  19   11.57    0.49
  -8   1  19   11.20    0.46
  -7  -1  19   20.11    0.75
  -7   1  19   19.55    0.73
   7   1 -19   19.97    0.73
  -7   1  19   18.76    0.74
  -7   1  19   19.65    0.73
  -6  -1  19   37.82    1.31
  -6   1  19   37.08    1.29
  -6   1  19   37.02    1.29
   6   1 -19   38.22    1.29
  -6   1  19   37.70    1.31
  -5  -1  19   21.23    0.79
   5   1 -19   21.33    0.78
  -5   1  19   20.60    0.79
  -5   1  19   21.86    0.79
  -5   1  19   21.40    0.78
  -4   1  19    6.53    0.34
   4   1 -19    6.03    0.34
  -4   1  19    6.38    0.33
  -3  -1  19    0.32    0.11
  -3   1  19    0.32    0.12
  -3   1  19    0.46    0.11
   3   1 -19    0.48    0.13
  -2  -1  19    0.63    0.12
  -2   1  19    0.74    0.19
   2   1 -19    0.95    0.20
  -2   1  19    1.28    0.19
  -1   1  19   10.77    0.43
   1   1 -19   10.47    0.44
  -1   1  19    9.78    0.42
   1   1 -19   10.00    0.46
   0   1  19   26.16    0.94
   0   1 -19   28.24    0.96
  -1  -1 -19    3.27    0.42
  -1   1 -19    4.30    0.24
   1   1  19    3.64    0.35
  -2  -1 -19    1.86    0.21
  -2   1 -19    1.70    0.18
   2   1  19    1.63    0.17
  -3  -1 -19    0.29    0.11
   3  -1  19    0.15    0.12
  -3   1 -19    0.17    0.10
   3   1  19    0.13    0.09
  -3   1 -19    0.10    0.09
  -4  -1 -19    9.27    0.40
   4  -1  19    8.94    0.39
   4   1  19    9.62    0.39
  -4   1 -19    8.82    0.40
  -4   1 -19    9.57    0.41
  -5  -1 -19   18.02    0.69
  -5  -1 -19   20.24    0.69
   5  -1  19   18.72    0.68
  -5   1 -19   17.41    0.69
  -5   1 -19   19.24    0.69
   5   1  19   18.05    0.67
   6  -1  19   20.33    0.78
  -6  -1 -19   20.52    0.77
  -6  -1 -19   22.13    0.77
   6   1  19   22.40    0.76
  -6   1 -19   22.53    0.77
  -6   1 -19   19.63    0.77
   7  -1  19    0.55    0.14
  -7  -1 -19    0.61    0.15
   7   1  19    0.49    0.11
  -7   1 -19    0.52    0.14
  -7   1 -19    0.58    0.12
  -8  -1 -19    1.59    0.17
   8  -1  19    1.54    0.14
  -8   1 -19    1.91    0.16
   8   1  19    1.70    0.12
  -8   1 -19    1.71    0.14
   9  -1  19    4.08    0.19
  -9   1 -19    3.53    0.21
   9   1  19    3.86    0.17
 -12   2  19    2.30    0.15
 -12   2  19    1.95    0.15
  12   2 -19    2.43    0.14
  11  -2 -19    1.18    0.15
 -11  -2  19    1.36    0.20
 -11   2  19    0.94    0.14
  11   2 -19    0.89    0.13
 -11   2  19    0.95    0.13
  11   2 -19    0.82    0.16
 -10  -2  19    0.07    0.12
  10  -2 -19    0.14    0.08
 -10   2  19    0.03    0.09
 -10   2  19    0.29    0.09
  10   2 -19    0.00    0.08
  10   2 -19    0.19    0.09
 -10   2  19    0.11    0.08
   9   2 -19   20.50    0.76
  -9   2  19   21.28    0.78
  -9   2  19   21.66    0.77
  -9   2  19   20.50    0.76
  -8  -2  19    0.68    0.16
   8   2 -19    0.91    0.17
  -8   2  19    0.76    0.19
   8   2 -19    0.67    0.13
  -8   2  19    0.51    0.13
  -8   2  19    0.69    0.13
  -7  -2  19    4.16    0.31
   7   2 -19    4.65    0.28
  -7   2  19    4.31    0.28
   7   2 -19    4.87    0.27
  -7   2  19    3.93    0.27
  -7   2  19    4.47    0.29
  -6  -2  19    2.75    0.26
  -6   2  19    2.33    0.21
   6   2 -19    2.69    0.21
  -6   2  19    2.24    0.23
   6   2 -19    1.90    0.26
  -6   2  19    2.09    0.23
  -5  -2  19   29.51    1.07
   5   2 -19   29.02    1.05
  -5   2  19   31.84    1.14
  -5   2  19   30.38    1.06
  -5   2  19   29.93    1.07
  -4  -2  19   24.57    0.87
   4   2 -19   23.16    0.85
  -4   2  19   23.19    0.84
  -4   2  19   23.27    0.86
  -3  -2  19    0.19    0.13
   3   2 -19    0.06    0.14
   3   2 -19    0.17    0.11
  -3   2  19    0.31    0.11
  -3   2  19    0.20    0.13
  -2  -2  19   43.18    1.55
   2   2 -19   42.46    1.47
   2   2 -19   44.77    1.48
  -2   2  19   44.31    1.47
  -2   2  19   42.40    1.48
  -1   2  19   74.65    2.48
   1   2 -19   77.30    2.46
  -1   2  19   71.52    2.45
   0   2  19    0.26    0.12
   0   2 -19    0.29    0.11
   0   2  19    0.25    0.09
  -1   2 -19    8.91    0.38
   1   2  19    8.38    0.37
  -2   2 -19   19.75    0.72
   2   2  19   18.96    0.70
  -3  -2 -19    6.68    0.41
  -3   2 -19    6.26    0.32
   3   2  19    5.91    0.28
  -3   2 -19    5.49    0.30
  -4  -2 -19   16.63    0.64
  -4   2 -19   16.10    0.64
  -4   2 -19   17.74    0.64
   4   2  19   16.98    0.62
  -5  -2 -19   18.87    0.71
  -5   2 -19   18.18    0.72
  -5   2 -19   20.57    0.72
   5   2  19   20.24    0.70
  -6  -2 -19    4.06    0.24
  -6   2 -19    4.32    0.25
  -6   2 -19    4.06    0.24
  -7  -2 -19    4.78    0.34
  -7   2 -19    5.19    0.25
  -7   2 -19    5.22    0.26
   7   2  19    5.14    0.23
  -8  -2 -19    0.22    0.11
   8   2  19    0.28    0.06
  -8   2 -19    0.35    0.09
  -8   2 -19    0.39    0.10
   9   2  19   10.63    0.38
  12   3 -19    5.48    0.23
 -12   3  19    5.81    0.23
 -12   3  19    5.31    0.23
  11  -3 -19    9.72    0.39
 -11   3  19   10.30    0.39
  11   3 -19   10.19    0.39
 -11   3  19   10.96    0.39
  10  -3 -19   13.51    0.49
 -10   3  19   12.99    0.49
  10   3 -19   13.72    0.49
  10   3 -19   13.46    0.49
 -10   3  19   12.92    0.50
 -10   3  19   12.76    0.50
   9   3 -19    0.20    0.10
   9   3 -19    0.31    0.09
  -9   3  19    0.20    0.08
  -9   3  19    0.21    0.08
  -9   3  19    0.18    0.10
   8   3 -19   99.89    3.21
  -8   3  19   95.72    3.20
  -8   3  19   98.28    3.21
  -7  -3  19    8.87    0.51
   7   3 -19    9.27    0.41
   7   3 -19    9.22    0.40
  -7   3  19    9.43    0.43
  -7   3  19    9.45    0.40
  -7   3  19    9.33    0.41
  -6  -3  19    2.18    0.31
  -6   3  19    2.38    0.23
  -6   3  19    3.22    0.22
  -6   3  19    2.22    0.24
   6   3 -19    2.70    0.27
   6   3 -19    2.64    0.21
  -5  -3  19   13.38    0.58
  -5   3  19   14.13    0.56
  -5   3  19   14.19    0.57
   5   3 -19   14.23    0.56
  -5   3  19   14.36    0.56
  -4  -3  19    0.26    0.16
   4   3 -19    0.45    0.12
  -4   3  19    0.57    0.15
  -4   3  19    0.48    0.15
  -4   3  19    0.77    0.16
  -4   3  19    0.82    0.17
  -3  -3  19    7.23    0.39
   3   3 -19    7.70    0.37
  -3   3  19    7.06    0.34
   3   3 -19    7.23    0.35
  -3   3  19    6.85    0.38
  -3   3  19    7.30    0.34
  -2  -3  19   22.04    0.84
  -2   3  19   22.92    0.82
  -2   3  19   23.20    0.81
   2   3 -19   22.57    0.83
   2   3 -19   23.09    0.83
  -2   3  19   22.32    0.84
  -1  -3  19    3.97    0.27
  -1   3  19    3.69    0.30
   1   3 -19    3.97    0.27
  -1   3  19    3.98    0.24
   1   3 -19    3.76    0.25
   0   3  19    9.26    0.45
   0   3  19    9.63    0.40
   0   3 -19   10.28    0.43
   0   3 -19    9.84    0.44
   1   3  19    6.47    0.30
   1   3  19    6.40    0.37
  -2   3 -19    7.26    0.36
   2   3  19    8.45    0.35
  -3   3 -19   21.00    0.80
   3   3  19   22.67    0.78
   4   3  19    4.60    0.23
  -4   3 -19    4.11    0.25
  -5  -3 -19    0.83    0.21
  -5   3 -19    0.67    0.15
  -5   3 -19    0.95    0.15
  -6  -3 -19   11.33    0.46
  -6   3 -19   11.64    0.45
  -6   3 -19   10.70    0.43
   6   3  19   11.22    0.42
  -7  -3 -19    0.98    0.20
  -7   3 -19    0.79    0.14
   7   3  19    0.83    0.11
   8   3  19    7.60    0.29
  -8   3 -19    7.59    0.34
  11   4 -19    0.16    0.07
 -11   4  19    0.15    0.06
  10  -4 -19    5.28    0.23
 -10   4  19    5.30    0.23
 -10   4  19    5.11    0.23
 -10   4  19    5.04    0.26
  10   4 -19    5.29    0.24
  10   4 -19    5.48    0.24
  -9   4  19    0.55    0.12
  -9   4  19    0.56    0.12
   9   4 -19    0.69    0.14
  -9   4  19    0.85    0.12
   9   4 -19    0.53    0.14
  -8   4  19   12.65    0.47
   8   4 -19   12.34    0.47
   8   4 -19   12.33    0.47
  -8   4  19   11.77    0.48
  -8   4  19   11.84    0.47
   7   4 -19    0.64    0.13
  -7   4  19    0.58    0.11
   7   4 -19    0.56    0.15
  -7   4  19    0.53    0.14
  -7   4  19    0.57    0.16
  -6  -4  19    3.63    0.40
   6   4 -19    3.53    0.28
   6   4 -19    4.20    0.24
  -6   4  19    4.43    0.23
  -6   4  19    4.39    0.25
  -6   4  19    3.67    0.29
  -6   4  19    4.17    0.25
  -5   4  19    5.88    0.29
  -5   4  19    5.39    0.30
  -5   4  19    5.30    0.36
   5   4 -19    5.46    0.29
  -5   4  19    5.66    0.28
  -4   4  19   36.09    1.25
  -4   4  19   36.19    1.25
  -4   4  19   36.65    1.24
   3   4 -19    4.33    0.25
  -3   4  19    4.01    0.30
  -3   4  19    4.49    0.26
  -3   4  19    4.32    0.25
   2   4 -19    7.08    0.34
  -2   4  19    7.27    0.33
  -2   4  19    6.67    0.33
   2   4 -19    6.86    0.34
   1   4 -19    0.15    0.10
   1   4 -19    0.28    0.12
  -1   4  19    0.13    0.09
  -1   4  19    0.17    0.12
   0   4  19   15.73    0.58
   0   4 -19   13.89    0.59
   0   4 -19   15.89    0.59
  -1   4 -19   -0.10    0.14
  -1   4 -19    0.04    0.10
   1   4  19    0.06    0.08
  -2   4 -19   32.65    1.18
   2   4  19   34.98    1.16
   3   4  19    2.42    0.17
  -3   4 -19    2.06    0.19
  -4   4 -19    2.32    0.19
   4   4  19    2.40    0.16
   5   4  19    4.52    0.22
  -5   4 -19    4.69    0.24
  -6   4 -19    2.60    0.19
   6   4  19    2.58    0.15
  -7   4 -19    0.39    0.12
  -9   5  19    6.30    0.31
  -9   5  19    7.37    0.28
   9   5 -19    7.49    0.29
   9   5 -19    6.95    0.29
   8   5 -19   25.47    0.88
  -8   5  19   26.43    0.89
  -8   5  19   26.44    0.89
   8   5 -19   25.92    0.88
   7   5 -19   12.02    0.45
   7   5 -19   11.67    0.44
  -7   5  19   11.99    0.45
  -7   5  19   11.60    0.44
  -6  -5  19    7.05    0.35
   6   5 -19    7.07    0.31
  -6   5  19    7.12    0.31
  -6   5  19    6.93    0.30
  -5  -5  19    3.90    0.26
   5   5 -19    4.23    0.23
  -5   5  19    4.19    0.23
  -5   5  19    4.18    0.23
  -5   5  19    3.84    0.21
  -4   5  19    0.01    0.08
   4   5 -19    0.03    0.08
  -4   5  19   -0.04    0.10
  -4   5  19   -0.06    0.07
  -3   5  19    5.54    0.30
  -2   5  19    7.41    0.39
  -2   5  19    8.30    0.42
   1   5 -19    0.98    0.18
   1   5 -19    1.22    0.17
  -1   5  19    0.76    0.18
   0   5 -19    7.79    0.35
   0   5  19    7.43    0.36
   0   5 -19    7.82    0.36
  -1   5 -19    0.09    0.12
  -1   5 -19    0.09    0.09
   1   5  19    0.04    0.08
  -2   5 -19   14.11    0.56
   2   5  19   14.62    0.53
  -3   5 -19    3.40    0.21
   3   5  19    3.36    0.19
  -4   5 -19    1.39    0.16
   4   5  19    1.38    0.13
   5   5  19    0.06    0.06
  -5   5 -19    0.05    0.09
   6   5  19    4.92    0.21
  -7   6  19    3.82    0.18
   7   6 -19    3.56    0.17
  -7   6  19    3.72    0.18
  -6   6  19    1.11    0.12
  -6   6  19    1.06    0.13
   6   6 -19    1.10    0.11
  -5  -6  19    0.31    0.13
  -5   6  19    0.34    0.08
  -5   6  19    0.21    0.08
   5   6 -19    0.46    0.11
  -4  -6  19    7.72    0.34
  -4   6  19    7.63    0.31
  -4   6  19    7.64    0.32
   4   6 -19    7.88    0.32
  -4   6  19    8.11    0.32
  -3   6  19    7.67    0.31
  -3   6  19    7.29    0.32
  -3   6  19    7.15    0.30
   3   6 -19    7.62    0.31
   2   6 -19    0.01    0.07
  -2   6  19    0.07    0.08
  -2   6  19    0.12    0.08
  -1   6  19    0.12    0.08
   1   6 -19    0.05    0.07
   0   6  19    1.49    0.15
   0   6 -19    1.43    0.15
   1   6  19    0.16    0.08
   2   6  19    8.89    0.41
   3   6  19    3.85    0.21
  -3   6 -19    3.75    0.23
   3   7 -19    2.07    0.13
   2   7 -19    2.03    0.13
   1   7 -19    0.49    0.08
 -12   0  20    0.72    0.11
  12   0 -20    0.64    0.11
  11   0 -20    0.02    0.08
 -11   0  20    0.07    0.08
  11   0 -20   -0.11    0.09
 -10   0  20   11.66    0.47
  10   0 -20   11.39    0.45
  -9   0  20   -0.07    0.10
   9   0 -20   -0.03    0.09
   8   0 -20    0.35    0.11
  -8   0  20    0.28    0.12
   7   0 -20    0.04    0.10
  -7   0  20    0.04    0.10
  -7   0  20   -0.26    0.17
  -6   0  20    0.52    0.17
   6   0 -20    0.65    0.16
  -6   0  20    0.30    0.12
  -5   0  20    0.25    0.16
  -5   0  20   -0.15    0.11
   5   0 -20    0.10    0.09
  -4   0  20   14.21    0.60
   4   0 -20   15.02    0.57
   3   0 -20   -0.01    0.10
  -3   0  20    0.02    0.10
  -3   0  20   -0.13    0.15
  -2   0  20   13.20    0.54
   2   0 -20   13.87    0.54
  -2   0  20   13.73    0.54
   1   0 -20   -0.03    0.14
  -1   0  20    0.21    0.13
   0   0  20   64.57    2.13
   1   0  20    0.08    0.10
  -1   0 -20    0.20    0.13
   2   0  20  107.12    3.66
  -2   0 -20  118.58    3.68
   3   0  20   -0.11    0.09
  -4   0 -20   71.69    2.45
  -4   0 -20   73.00    2.46
   4   0  20   77.88    2.44
  -5   0 -20    0.00    0.09
   5   0  20    0.08    0.08
  -5   0 -20    0.22    0.09
  -6   0 -20   15.22    0.59
   6   0  20   15.98    0.57
   7   0  20    0.14    0.07
  -7   0 -20   -0.04    0.09
  -8   0 -20   -0.10    0.08
   8   0  20   -0.07    0.06
   9   0  20    0.05    0.06
 -12  -1  20    2.03    0.16
  12   1 -20    1.98    0.14
 -12   1  20    1.62    0.14
 -11  -1  20    2.14    0.18
  11  -1 -20    2.11    0.17
  11   1 -20    1.95    0.16
  11   1 -20    1.87    0.17
 -11   1  20    2.11    0.19
 -11   1  20    1.93    0.16
 -10  -1  20    4.77    0.27
  10  -1 -20    4.76    0.25
  10   1 -20    5.07    0.25
 -10   1  20    4.71    0.26
 -10   1  20    5.15    0.27
  10   1 -20    4.68    0.25
   9  -1 -20    3.15    0.21
  -9  -1  20    2.66    0.23
  -9   1  20    2.58    0.22
   9   1 -20    2.88    0.21
   9   1 -20    2.70    0.26
  -8  -1  20    0.64    0.13
   8  -1 -20    0.60    0.12
  -8   1  20    0.66    0.14
  -8   1  20    1.04    0.19
   8   1 -20    0.46    0.11
  -8   1  20    0.61    0.14
  -7  -1  20    1.66    0.21
  -7   1  20    1.47    0.20
  -7   1  20    1.62    0.21
   7   1 -20    1.95    0.19
  -7   1  20    1.44    0.23
  -6  -1  20    3.52    0.26
  -6   1  20    3.47    0.27
   6   1 -20    3.56    0.23
  -6   1  20    3.36    0.26
  -6   1  20    3.06    0.25
  -5  -1  20    8.42    0.39
   5   1 -20    8.05    0.37
  -5   1  20    7.45    0.41
  -5   1  20    8.54    0.39
  -5   1  20    8.07    0.38
  -4  -1  20    0.83    0.19
  -4   1  20    0.62    0.14
   4   1 -20    0.44    0.10
  -4   1  20    0.47    0.12
  -3  -1  20    1.49    0.20
  -3   1  20    1.41    0.23
  -3   1  20    1.13    0.19
   3   1 -20    1.04    0.19
  -2  -1  20    8.40    0.39
   2   1 -20    8.54    0.42
  -2   1  20    9.30    0.40
   1  -1 -20    5.08    0.32
  -1   1  20    5.16    0.28
   1   1 -20    4.74    0.45
  -1   1  20    4.91    0.29
   1   1 -20    4.99    0.29
   0   1 -20  180.77    5.72
   0   1  20  173.16    5.71
  -1   1 -20    0.27    0.12
   1   1  20    0.44    0.11
  -2  -1 -20   11.60    0.48
   2  -1  20   10.52    0.47
  -2   1 -20   11.72    0.47
   2   1  20   11.23    0.45
   3  -1  20    5.53    0.31
   3   1  20    5.81    0.28
  -3   1 -20    5.68    0.29
  -4  -1 -20   25.18    0.91
   4  -1  20   25.03    0.89
   4   1  20   25.72    0.89
  -4   1 -20   27.37    0.92
  -4   1 -20   24.34    0.91
  -5  -1 -20    1.04    0.18
   5  -1  20    1.28    0.19
  -5   1 -20    1.38    0.16
  -5   1 -20    1.26    0.16
   5   1  20    1.28    0.15
  -6  -1 -20    1.01    0.17
   6  -1  20    1.03    0.16
  -6   1 -20    1.21    0.16
   6   1  20    1.24    0.13
  -6   1 -20    1.10    0.14
  -7  -1 -20    2.23    0.21
   7  -1  20    2.41    0.17
   7   1  20    2.26    0.15
  -7   1 -20    2.16    0.18
  -7   1 -20    2.36    0.16
  -8  -1 -20    3.73    0.23
  -8   1 -20    3.91    0.22
   8   1  20    3.80    0.18
   9   1  20    0.81    0.09
 -12   2  20    1.18    0.14
  12   2 -20    1.23    0.12
 -12   2  20    1.09    0.11
  11  -2 -20    0.10    0.08
 -11  -2  20   -0.05    0.12
  11   2 -20    0.11    0.09
 -11   2  20    0.18    0.08
 -11   2  20   -0.05    0.07
  11   2 -20   -0.01    0.07
 -10  -2  20   22.73    0.80
  10  -2 -20   22.30    0.79
 -10   2  20   21.89    0.80
 -10   2  20   22.89    0.79
  10   2 -20   22.05    0.79
  10   2 -20   22.58    0.79
   9  -2 -20    3.28    0.21
  -9  -2  20    3.21    0.24
   9   2 -20    3.61    0.22
  -9   2  20    3.12    0.22
   9   2 -20    3.32    0.22
  -9   2  20    3.21    0.21
  -9   2  20    3.00    0.22
  -8  -2  20    8.56    0.41
   8   2 -20    8.34    0.37
   8   2 -20    8.48    0.38
  -8   2  20    8.07    0.38
  -8   2  20    8.91    0.38
  -8   2  20    8.49    0.39
  -7  -2  20    0.89    0.16
  -7   2  20    1.00    0.18
  -7   2  20    0.75    0.14
  -7   2  20    1.15    0.19
   7   2 -20    0.94    0.17
   7   2 -20    0.95    0.16
  -6  -2  20    0.55    0.14
  -6   2  20    0.76    0.18
   6   2 -20    0.68    0.17
   6   2 -20    0.67    0.17
  -6   2  20    0.55    0.13
  -6   2  20    0.64    0.14
  -5  -2  20    9.66    0.43
   5   2 -20    9.40    0.41
  -5   2  20    9.20    0.43
  -5   2  20    8.97    0.41
  -5   2  20    9.46    0.42
  -4  -2  20   28.85    1.03
  -4   2  20   28.92    1.01
  -4   2  20   28.73    1.03
   4   2 -20   28.68    1.02
  -3  -2  20    0.14    0.13
  -3   2  20    0.00    0.10
   3   2 -20   -0.18    0.11
  -3   2  20    0.11    0.12
   3   2 -20    0.24    0.15
  -2  -2  20    2.95    0.24
   2   2 -20    3.15    0.26
   2   2 -20    3.25    0.24
  -2   2  20    3.12    0.22
  -2   2  20    2.99    0.25
   1   2 -20    0.09    0.13
  -1   2  20   -0.12    0.11
  -1   2  20    0.31    0.10
   1   2 -20    0.09    0.12
   0   2 -20    6.36    0.32
   0   2  20    6.23    0.29
   0   2  20    6.13    0.32
   0   2 -20    5.60    0.37
  -1   2 -20    4.03    0.25
   1   2  20    3.94    0.25
   1   2  20    4.12    0.24
   2   2  20   -0.11    0.08
  -2   2 -20    0.09    0.10
  -3  -2 -20   16.72    0.64
  -3   2 -20   16.26    0.63
   3   2  20   16.39    0.61
  -4  -2 -20    4.99    0.29
  -4   2 -20    5.03    0.28
  -4   2 -20    5.37    0.28
   4   2  20    5.35    0.26
  -5  -2 -20   25.84    0.94
  -5   2 -20   27.83    0.95
  -5   2 -20   25.15    0.95
   5   2  20   28.69    0.93
  -6  -2 -20    0.17    0.11
   6   2  20    0.03    0.06
  -6   2 -20    0.09    0.08
  -6   2 -20    0.04    0.07
  -7  -2 -20   29.35    1.02
   7   2  20   29.64    1.00
  -7   2 -20   29.65    1.02
  -8   2 -20    2.67    0.18
   8   2  20    2.66    0.14
  11  -3 -20    5.10    0.23
 -11   3  20    5.08    0.23
  11   3 -20    5.18    0.36
 -11   3  20    5.22    0.24
  11   3 -20    5.31    0.23
  10  -3 -20    0.87    0.12
 -10   3  20    0.80    0.11
  10   3 -20    1.01    0.14
 -10   3  20    0.64    0.14
  10   3 -20    0.65    0.13
 -10   3  20    0.90    0.12
  -9   3  20    6.46    0.30
  -9   3  20    6.46    0.29
  -9   3  20    6.73    0.32
   9   3 -20    6.73    0.30
   9   3 -20    6.71    0.30
  -8   3  20   -0.20    0.10
   8   3 -20    0.25    0.09
   8   3 -20    0.15    0.11
  -8   3  20    0.06    0.09
  -8   3  20    0.25    0.09
  -7   3  20    2.56    0.21
   7   3 -20    2.39    0.20
  -7   3  20    2.28    0.23
  -7   3  20    2.54    0.21
  -6  -3  20    9.66    0.47
  -6   3  20    9.37    0.44
  -6   3  20   10.58    0.43
   6   3 -20    9.87    0.42
  -6   3  20    9.41    0.41
  -5  -3  20    0.53    0.16
  -5   3  20    0.47    0.10
  -5   3  20    0.52    0.14
  -5   3  20    1.00    0.22
   5   3 -20    0.46    0.12
  -4  -3  20    0.12    0.16
  -4   3  20   -0.04    0.10
  -4   3  20    0.04    0.15
   4   3 -20    0.16    0.10
  -4   3  20    0.31    0.13
  -3  -3  20    8.86    0.43
  -3   3  20    9.42    0.40
   3   3 -20    9.42    0.41
  -3   3  20    9.12    0.43
  -2  -3  20    1.35    0.25
  -2   3  20    0.81    0.16
  -2   3  20    0.81    0.17
   2   3 -20    0.81    0.19
  -1  -3  20    2.60    0.24
  -1   3  20    2.33    0.19
   1   3 -20    2.75    0.24
  -1   3  20    2.46    0.27
   0   3 -20    0.29    0.11
   0   3  20    0.46    0.15
   0   3  20    0.45    0.10
   0   3 -20    0.24    0.14
   1   3  20    0.99    0.25
   1   3  20    0.94    0.15
  -1   3 -20    0.95    0.16
  -2   3 -20    1.35    0.17
   2   3  20    1.22    0.16
   2   3  20    1.02    0.27
   3   3  20    1.18    0.15
  -3   3 -20    1.00    0.16
  -4   3 -20    1.76    0.18
   4   3  20    2.35    0.17
   5   3  20    3.09    0.18
  -5   3 -20    3.33    0.21
   6   3  20    0.03    0.06
  -6   3 -20    0.09    0.09
   7   3  20    1.46    0.11
  -7   3 -20    1.19    0.15
  10  -4 -20    4.08    0.19
  10   4 -20    3.98    0.21
 -10   4  20    4.15    0.19
  10   4 -20    4.12    0.20
 -10   4  20    3.92    0.19
 -10   4  20    3.88    0.25
  -9   4  20    5.30    0.23
   9   4 -20    5.10    0.24
   9   4 -20    5.19    0.24
  -9   4  20    5.00    0.24
  -8   4  20    0.23    0.08
   8   4 -20    0.34    0.10
   8   4 -20    0.22    0.08
  -8   4  20    0.32    0.08
  -8   4  20    0.19    0.12
  -7   4  20    4.51    0.29
   7   4 -20    4.73    0.28
   7   4 -20    5.22    0.25
  -7   4  20    4.80    0.25
  -7   4  20    4.80    0.25
  -6   4  20    0.39    0.10
  -6   4  20    0.15    0.14
  -5  -4  20   13.89    0.58
  -5   4  20   15.77    0.57
  -5   4  20   15.17    0.57
   5   4 -20   14.71    0.57
  -5   4  20   14.80    0.64
   4   4 -20    0.08    0.09
  -4   4  20   -0.03    0.09
  -4   4  20   -0.02    0.08
  -4   4  20   -0.11    0.12
  -3   4  20    1.12    0.17
   3   4 -20    1.02    0.18
  -3   4  20    1.33    0.17
   2   4 -20    7.59    0.35
   2   4 -20    7.24    0.36
  -2   4  20    8.12    0.35
   1   4 -20    0.37    0.11
  -1   4  20    0.13    0.09
   1   4 -20    0.04    0.11
   0  -4  20    0.25    0.16
   0   4  20    0.24    0.09
   0   4 -20    0.35    0.11
   0   4 -20    0.36    0.13
   1  -4  20    4.07    0.28
  -1   4 -20    3.93    0.25
   1   4  20    4.53    0.24
  -2   4 -20    0.15    0.10
   2   4  20    0.16    0.08
  -3   4 -20    0.90    0.16
   3   4  20    1.07    0.13
   4   4  20    3.32    0.19
  -4   4 -20    3.43    0.22
  -5   4 -20    0.07    0.09
   5   4  20    0.03    0.06
  -6   4 -20    0.91    0.15
   6   4  20    0.70    0.10
  -9   5  20    0.77    0.10
  -9   5  20    0.84    0.10
   9   5 -20    0.59    0.09
  -8   5  20    2.57    0.15
  -8   5  20    2.80    0.16
   8   5 -20    2.57    0.15
  -7   5  20    7.53    0.30
  -7   5  20    7.73    0.31
   7   5 -20    7.34    0.30
  -6   5  20    0.75    0.13
  -6   5  20    0.74    0.14
   6   5 -20    1.05    0.13
  -5  -5  20    1.13    0.21
   5   5 -20    0.98    0.13
  -5   5  20    1.15    0.16
  -5   5  20    1.04    0.14
  -4   5  20    5.11    0.26
  -4   5  20    4.82    0.24
  -4   5  20    5.32    0.26
   4   5 -20    5.18    0.25
  -3   5  20    7.43    0.31
   3   5 -20    7.19    0.32
  -3   5  20    7.75    0.33
  -3   5  20    7.03    0.35
   2   5 -20    3.05    0.20
  -2   5  20    3.26    0.20
   1   5 -20    0.02    0.09
   1   5 -20    0.14    0.11
  -1   5  20    0.08    0.08
   0   5 -20    0.40    0.10
   0   5  20    0.56    0.13
   0   5 -20    0.29    0.10
   1   5  20    6.46    0.29
  -1   5 -20    6.27    0.31
  -2   5 -20    1.07    0.15
   2   5  20    1.03    0.13
   3   5  20   17.85    0.63
  -3   5 -20   18.00    0.66
  -4   5 -20    0.11    0.09
   4   5  20    0.08    0.06
   5   5  20    2.33    0.14
  -7   6  20   21.43    0.71
  -7   6  20   20.69    0.71
   7   6 -20   20.94    0.71
  -6   6  20    0.04    0.06
   6   6 -20   -0.08    0.06
  -6   6  20    0.06    0.08
  -5   6  20    0.28    0.09
   5   6 -20    0.31    0.07
  -5   6  20    0.35    0.07
  -4  -6  20    0.72    0.19
   4   6 -20    1.01    0.11
  -4   6  20    0.76    0.16
  -4   6  20    0.69    0.12
  -3  -6  20    0.96    0.17
   3   6 -20    0.81    0.12
  -3   6  20    0.83    0.13
  -2   6  20   16.91    0.60
   2   6 -20   17.37    0.61
   1   6 -20    3.07    0.18
  -1   6  20    3.24    0.18
   0   6  20    1.06    0.13
   0   6 -20    0.88    0.16
   2   6  20    5.57    0.24
  12   0 -21   -0.03    0.07
 -12   0  21    0.12    0.09
  11   0 -21    0.16    0.07
  11   0 -21    0.12    0.08
 -11   0  21    0.08    0.07
 -10   0  21   -0.01    0.08
  10   0 -21   -0.04    0.08
   8   0 -21   -0.09    0.08
  -8   0  21    0.00    0.10
  -7   0  21    0.54    0.13
   7   0 -21    0.47    0.12
   6   0 -21   -0.06    0.09
  -6   0  21   -0.08    0.09
  -5   0  21  117.39    3.94
  -5   0  21  124.71    3.96
   5   0 -21  121.03    3.95
  -4   0  21    0.06    0.10
  -4   0  21    0.10    0.16
   4   0 -21    0.06    0.09
  -3   0  21    0.66    0.18
   3   0 -21    0.65    0.13
  -3   0  21    0.77    0.16
   2   0 -21   -0.02    0.12
  -2   0  21    0.04    0.14
  -2   0  21    0.16    0.11
  -1   0  21    0.05    0.09
  -1   0  21    0.11    0.12
   1   0 -21    0.23    0.14
   0   0  21    0.14    0.11
  -1   0 -21   12.13    0.50
   1   0  21   12.15    0.48
  -2   0 -21    0.05    0.14
   2   0  21    0.13    0.10
  -3   0 -21   15.66    0.62
   3   0  21   16.86    0.60
   4   0  21    0.01    0.09
  -4   0 -21    0.06    0.10
  -5   0 -21   12.09    0.48
   6   0  21   -0.01    0.07
  -6   0 -21    0.05    0.09
   7   0  21   15.53    0.55
  -7   0 -21   15.71    0.58
   8   0  21    0.02    0.10
  -8   0 -21    0.16    0.10
  12  -1 -21    0.89    0.10
 -12  -1  21    0.76    0.14
  12   1 -21    0.71    0.10
 -11  -1  21    6.85    0.31
  11  -1 -21    7.03    0.29
 -11   1  21    7.21    0.31
  11   1 -21    7.06    0.30
 -11   1  21    6.73    0.37
  11   1 -21    7.31    0.30
 -10  -1  21    0.34    0.11
  10  -1 -21    0.50    0.13
  10   1 -21    0.62    0.13
 -10   1  21    0.89    0.19
  10   1 -21    0.56    0.14
 -10   1  21    0.36    0.10
  -9  -1  21   10.61    0.43
   9  -1 -21    9.55    0.41
  -9   1  21    9.86    0.50
  -9   1  21    9.69    0.41
   9   1 -21    9.88    0.41
   9   1 -21    9.80    0.41
  -8  -1  21    2.67    0.24
   8  -1 -21    2.76    0.21
  -8   1  21    2.00    0.22
  -8   1  21    2.68    0.24
   8   1 -21    2.68    0.20
   8   1 -21    2.76    0.23
   7  -1 -21    7.11    0.34
  -7  -1  21    7.57    0.36
  -7   1  21    7.34    0.36
  -7   1  21    7.16    0.36
   7   1 -21    7.00    0.37
   7   1 -21    7.41    0.34
  -6  -1  21    5.35    0.30
   6   1 -21    5.44    0.29
  -6   1  21    5.41    0.33
  -6   1  21    5.47    0.31
  -6   1  21    5.23    0.30
  -5  -1  21    6.94    0.36
  -5   1  21    6.96    0.35
   5   1 -21    7.25    0.34
  -5   1  21    7.05    0.36
  -4  -1  21    1.38    0.20
  -4   1  21    1.54    0.20
   4   1 -21    1.42    0.18
  -4   1  21    1.27    0.22
  -3  -1  21    8.09    0.38
  -3   1  21    8.25    0.38
  -3   1  21    7.74    0.37
   3   1 -21    8.03    0.37
  -2  -1  21    0.21    0.11
   2  -1 -21    0.02    0.12
  -2   1  21    0.25    0.11
   2   1 -21    0.18    0.12
  -2   1  21    0.11    0.10
   1  -1 -21    0.76    0.15
  -1   1  21    0.90    0.18
   1   1 -21    0.60    0.16
  -1   1  21    0.72    0.17
   1   1 -21    1.02    0.28
   0   1  21   23.44    0.85
   0   1 -21   24.72    0.87
   1   1  21   33.43    1.19
  -1   1 -21   36.36    1.21
  -2   1 -21    7.30    0.35
   2   1  21    7.61    0.33
   3  -1  21    0.57    0.13
  -3  -1 -21    0.47    0.14
   3   1  21    0.31    0.09
  -3   1 -21    0.35    0.11
   4  -1  21    4.18    0.26
  -4  -1 -21    3.94    0.26
   4   1  21    4.30    0.22
  -4   1 -21    3.77    0.24
   5  -1  21    7.23    0.31
  -5  -1 -21    6.88    0.33
  -5   1 -21    6.85    0.33
   6  -1  21    0.16    0.09
  -6  -1 -21    0.07    0.11
  -6   1 -21   -0.09    0.09
   6   1  21    0.04    0.06
  -7  -1 -21   -0.08    0.10
   7  -1  21    0.00    0.08
  -7   1 -21    0.04    0.09
   7   1  21    0.01    0.05
   8  -1  21    0.28    0.12
   8   1  21    0.25    0.06
  -8   1 -21    0.30    0.10
  12   2 -21    6.91    0.27
 -12   2  21    7.06    0.27
  11  -2 -21    2.37    0.20
 -11   2  21    2.42    0.16
  11   2 -21    2.56    0.16
  11   2 -21    2.42    0.17
  10  -2 -21    1.83    0.15
 -10  -2  21    1.76    0.20
 -10   2  21    1.88    0.17
 -10   2  21    1.67    0.16
  10   2 -21    1.90    0.16
  10   2 -21    1.63    0.16
   9  -2 -21    5.46    0.26
  -9  -2  21    4.85    0.28
  -9   2  21    5.23    0.27
   9   2 -21    5.44    0.26
   9   2 -21    5.09    0.27
  -9   2  21    5.41    0.26
  -8   2  21    3.25    0.23
   8   2 -21    3.01    0.23
  -8   2  21    3.17    0.28
   8   2 -21    3.18    0.21
  -7  -2  21    1.39    0.23
   7   2 -21    1.72    0.24
  -7   2  21    1.59    0.20
   7   2 -21    1.57    0.18
  -7   2  21    1.47    0.20
  -7   2  21    1.06    0.20
  -6  -2  21    0.27    0.13
  -6   2  21    0.07    0.13
  -6   2  21    0.21    0.10
  -6   2  21   -0.06    0.11
   6   2 -21    0.23    0.10
  -5  -2  21   65.50    2.16
  -5   2  21   62.54    2.14
  -5   2  21   63.41    2.14
   5   2 -21   66.51    2.15
  -5   2  21   64.56    2.16
  -4  -2  21    2.19    0.24
  -4   2  21    2.06    0.20
   4   2 -21    2.14    0.20
  -4   2  21    1.92    0.22
  -3  -2  21    5.61    0.32
  -3   2  21    6.27    0.31
  -3   2  21    5.76    0.32
   3   2 -21    5.83    0.31
  -2  -2  21    0.81    0.19
   2   2 -21    0.39    0.14
  -2   2  21    0.42    0.13
   2   2 -21    0.59    0.13
  -2   2  21    0.43    0.10
  -1  -2  21   23.88    0.87
  -1   2  21   24.57    0.86
   1   2 -21   24.96    0.88
   1   2 -21   24.93    0.88
  -1   2  21   23.55    0.88
   0   2 -21   10.16    0.50
   0   2 -21   10.16    0.44
   0   2  21    9.83    0.41
   0   2  21   10.14    0.44
   1   2  21    1.70    0.20
  -1   2 -21    1.39    0.19
   1   2  21    1.52    0.16
  -2   2 -21   26.27    0.93
   2   2  21   25.83    0.91
   3   2  21    0.01    0.07
  -3   2 -21    0.07    0.09
  -4  -2 -21   24.87    0.94
   4   2  21   28.99    0.93
  -4   2 -21   25.87    0.94
  -5  -2 -21   37.09    1.25
  -5   2 -21   36.23    1.25
   5   2  21   36.22    1.23
  -6  -2 -21    3.02    0.24
   6   2  21    2.81    0.16
  -7  -2 -21    7.34    0.36
  -7   2 -21    7.57    0.32
   7   2  21    7.43    0.29
   8   2  21    0.60    0.08
  11  -3 -21    0.94    0.12
 -11   3  21    0.86    0.11
 -11   3  21    0.95    0.12
  11   3 -21    1.01    0.13
  10  -3 -21   -0.02    0.06
  10   3 -21    0.07    0.08
  10   3 -21   -0.02    0.07
 -10   3  21    0.10    0.07
 -10   3  21    0.05    0.08
   9  -3 -21    2.34    0.16
   9   3 -21    2.11    0.18
  -9   3  21    2.20    0.16
  -9   3  21    2.41    0.17
  -9   3  21    2.15    0.18
   9   3 -21    2.20    0.16
  -8   3  21   70.29    2.28
  -8   3  21   69.01    2.28
  -8   3  21   67.69    2.27
   8   3 -21   69.72    2.28
   8   3 -21   68.11    2.26
  -7  -3  21    3.23    0.30
  -7   3  21    3.35    0.25
   7   3 -21    3.51    0.24
   7   3 -21    2.69    0.25
  -7   3  21    2.97    0.24
  -7   3  21    2.84    0.23
  -6  -3  21   21.14    0.77
  -6   3  21   19.90    0.74
  -6   3  21   20.30    0.74
  -6   3  21   20.60    0.76
   6   3 -21   19.67    0.74
  -5  -3  21   20.97    0.80
  -5   3  21   21.24    0.79
   5   3 -21   22.60    0.79
  -5   3  21   20.90    0.80
  -5   3  21   22.48    0.79
  -4  -3  21   11.76    0.51
  -4   3  21   12.14    0.50
  -4   3  21   11.99    0.48
   4   3 -21   11.98    0.49
  -3  -3  21    2.11    0.25
   3   3 -21    2.21    0.25
   3   3 -21    2.12    0.20
  -3   3  21    2.17    0.20
  -3   3  21    2.40    0.24
  -2  -3  21   25.35    0.89
  -2   3  21   24.57    0.89
  -2   3  21   24.45    0.87
   2   3 -21   25.02    0.88
   2   3 -21   23.45    0.89
  -1  -3  21    7.56    0.37
  -1   3  21    7.93    0.39
  -1   3  21    7.81    0.35
   1   3 -21    8.18    0.37
   1   3 -21    7.89    0.37
   0  -3  21    1.02    0.19
   0   3 -21    1.11    0.19
   0   3 -21    1.02    0.25
   0   3  21    1.25    0.24
   0   3  21    1.29    0.16
   1   3  21    0.10    0.14
   1   3  21    0.20    0.08
  -1   3 -21    0.17    0.10
   2   3  21   10.87    0.42
   2   3  21   10.77    0.57
  -2   3 -21    9.88    0.44
   3   3  21    3.08    0.19
  -3   3 -21    2.94    0.21
   4   3  21    3.44    0.19
  -4   3 -21    3.07    0.21
  -5   3 -21    2.40    0.18
   5   3  21    2.51    0.16
  -6   3 -21    5.70    0.27
   6   3  21    5.62    0.24
   7   3  21    0.72    0.09
  10  -4 -21   -0.02    0.06
 -10   4  21    0.22    0.06
  10   4 -21    0.16    0.09
   9   4 -21    1.94    0.19
  -9   4  21    2.38    0.15
  -9   4  21    2.17    0.20
  -9   4  21    2.30    0.15
   9   4 -21    2.33    0.15
  -8   4  21    0.06    0.07
  -8   4  21    0.11    0.08
   8   4 -21   -0.02    0.07
  -8   4  21   -0.05    0.11
  -7   4  21    1.28    0.16
   7   4 -21    1.30    0.14
  -7   4  21    1.35    0.21
  -7   4  21    1.28    0.15
   6   4 -21    2.60    0.18
  -6   4  21    2.73    0.19
  -6   4  21    2.59    0.20
  -6   4  21    2.10    0.24
  -5   4  21    2.00    0.21
  -4   4  21    1.78    0.18
   4   4 -21    1.83    0.18
  -4   4  21    1.92    0.25
   3   4 -21    9.86    0.41
  -3   4  21    9.89    0.41
   2   4 -21   18.61    0.76
   2   4 -21   21.79    0.76
  -2   4  21   21.94    0.75
   1   4 -21    9.60    0.44
   1   4 -21   10.73    0.43
  -1   4  21   10.66    0.43
   0  -4  21    1.18    0.25
   0   4  21    0.88    0.15
   0   4 -21    1.25    0.20
   1  -4  21   16.09    0.61
  -1   4 -21   15.94    0.61
   2  -4  21    7.67    0.34
  -2   4 -21    7.30    0.34
   2   4  21    7.61    0.32
  -3   4 -21    3.61    0.22
   3   4  21    3.66    0.20
   4   4  21   12.27    0.46
  -4   4 -21   12.94    0.49
  -5   4 -21   12.91    0.49
   5   4  21   12.94    0.46
   6   4  21    0.17    0.06
  -8   5  21   18.40    0.66
   8   5 -21   20.14    0.69
  -8   5  21   18.02    0.64
  -7   5  21    8.49    0.33
   7   5 -21    8.16    0.33
  -7   5  21    8.56    0.33
  -6   5  21    5.42    0.25
  -6   5  21    5.44    0.24
   6   5 -21    5.28    0.24
  -5  -5  21   -0.04    0.27
  -5   5  21    0.20    0.07
  -5   5  21    0.23    0.10
   5   5 -21    0.09    0.07
  -4  -5  21    0.25    0.13
  -4   5  21    0.10    0.12
   4   5 -21    0.05    0.07
  -4   5  21    0.08    0.07
  -3   5  21    0.05    0.07
   3   5 -21    0.07    0.07
   2   5 -21    1.85    0.17
  -2   5  21    1.78    0.16
   1   5 -21    0.20    0.09
  -1   5  21    0.12    0.07
   0   5 -21    3.46    0.23
   0   5 -21    3.27    0.23
   0   5  21    3.37    0.19
  -1   5 -21    0.41    0.11
   1   5  21    0.29    0.07
  -2   5 -21    5.03    0.26
   2   5  21    4.85    0.23
   3   5  21    0.11    0.06
  -3   5 -21    0.22    0.09
   4   5  21    8.33    0.33
  -4   5 -21    8.07    0.34
   5   5  21    0.03    0.06
   6   6 -21    0.01    0.06
  -6   6  21    0.08    0.06
  -5   6  21    3.07    0.16
   5   6 -21    3.13    0.20
   4   6 -21    9.77    0.36
   3   6 -21    0.15    0.07
  -3   6  21    0.06    0.07
   2   6 -21    9.51    0.36
  -2   6  21    9.71    0.36
   1   6 -21    0.81    0.14
  -1   6  21    0.90    0.12
   0   6  21   13.27    0.47
   1   6  21    1.16    0.13
   2   6  21    3.90    0.20
  12   0 -22   -0.09    0.07
 -12   0  22    0.06    0.06
 -11   0  22   -0.03    0.06
  11   0 -22    0.10    0.07
  11   0 -22   -0.07    0.08
  10   0 -22   24.83    0.86
 -10   0  22   24.51    0.87
  10   0 -22   24.69    0.86
  -9   0  22   -0.10    0.08
   9   0 -22    0.00    0.08
  -8   0  22    0.01    0.10
   8   0 -22    0.09    0.08
   7   0 -22   -0.10    0.08
  -7   0  22    0.17    0.11
   6   0 -22   14.94    0.59
  -6   0  22   15.64    0.61
   5   0 -22    0.04    0.09
  -5   0  22   -0.01    0.10
  -4   0  22  123.02    3.99
  -4   0  22  118.80    3.98
   4   0 -22  123.57    3.97
  -3   0  22    0.20    0.16
  -3   0  22   -0.01    0.11
   3   0 -22   -0.01    0.10
   2   0 -22   -0.04    0.11
  -2   0  22   -0.13    0.13
  -2   0  22   -0.16    0.09
  -1   0  22    0.03    0.09
   1   0 -22    0.17    0.14
  -1   0  22   -0.15    0.12
   0   0  22  139.84    4.52
   1   0  22   -0.04    0.10
  -2   0 -22   22.65    1.20
   2   0  22   22.09    0.79
  -3   0 -22    0.21    0.11
   3   0  22   -0.11    0.09
   4   0  22   31.27    1.02
  -4   0 -22   28.10    1.03
  -5   0 -22    0.06    0.10
   5   0  22    0.11    0.08
  -6   0 -22    2.01    0.18
   6   0  22    2.09    0.15
   7   0  22   -0.10    0.06
  -7   0 -22    0.22    0.11
   8   0  22   10.95    0.39
  12  -1 -22    3.38    0.16
  12   1 -22    2.91    0.17
 -12   1  22    3.34    0.16
  11  -1 -22    5.48    0.24
 -11  -1  22    5.47    0.25
  11   1 -22    5.61    0.24
 -11   1  22    5.50    0.25
 -10  -1  22    9.66    0.39
  10  -1 -22    9.45    0.37
 -10   1  22    9.54    0.39
  10   1 -22    9.67    0.38
  10   1 -22    9.33    0.38
 -10   1  22    9.79    0.40
  -9  -1  22    1.01    0.17
   9  -1 -22    1.22    0.14
   9   1 -22    1.12    0.15
  -9   1  22    1.02    0.16
  -9   1  22    1.19    0.18
   9   1 -22    1.34    0.18
  -8  -1  22   32.50    1.10
   8  -1 -22   31.52    1.08
  -8   1  22   29.41    1.07
   8   1 -22   31.59    1.08
   8   1 -22   28.98    1.07
  -8   1  22   32.42    1.10
  -7  -1  22    6.13    0.32
   7  -1 -22    5.51    0.29
   7   1 -22    5.39    0.33
  -7   1  22    5.69    0.31
  -7   1  22    5.52    0.31
   7   1 -22    5.92    0.29
   6  -1 -22   26.23    0.94
  -6  -1  22   26.65    0.95
  -6   1  22   26.50    0.96
   6   1 -22   26.35    0.94
  -6   1  22   26.04    0.93
   5  -1 -22    0.12    0.09
  -5  -1  22    0.40    0.13
   5   1 -22    0.07    0.10
  -5   1  22    0.32    0.11
  -5   1  22    0.07    0.11
   4  -1 -22    0.70    0.18
  -4  -1  22    0.77    0.18
  -4   1  22    0.83    0.19
   4   1 -22    0.70    0.18
  -4   1  22    0.81    0.14
   3  -1 -22    0.42    0.12
  -3  -1  22    0.33    0.11
  -3   1  22    0.03    0.11
   3   1 -22    0.34    0.11
  -3   1  22    0.17    0.10
  -2  -1  22   23.25    0.85
   2  -1 -22   23.42    0.84
  -2   1  22   23.01    0.83
  -2   1  22   23.32    0.85
   2   1 -22   24.23    0.85
  -1  -1  22   14.48    0.57
   1  -1 -22   15.06    0.59
  -1   1  22   14.36    0.57
   1   1 -22   14.68    0.58
  -1   1  22   14.69    0.56
   0   1  22   69.11    2.30
   0   1 -22   69.12    2.34
   0   1  22   71.42    2.32
   1   1  22    6.31    0.30
  -1   1 -22    6.32    0.33
   2   1  22    0.85    0.15
  -2   1 -22    0.61    0.13
   3  -1  22    0.20    0.14
  -3  -1 -22    0.08    0.14
  -3   1 -22    0.22    0.11
   3   1  22   -0.07    0.08
  -4  -1 -22    1.01    0.21
   4  -1  22    0.98    0.20
  -4   1 -22    0.90    0.17
   4   1  22    0.91    0.14
  -5  -1 -22    0.62    0.13
   5  -1  22    0.53    0.11
  -5   1 -22    0.53    0.11
   5   1  22    0.59    0.12
  -6  -1 -22   16.10    0.60
   6  -1  22   16.00    0.58
   6   1  22   16.15    0.57
  -6   1 -22   16.28    0.60
  -7  -1 -22   -0.05    0.13
  -7   1 -22    0.08    0.10
   7   1  22    0.00    0.05
   8   1  22    0.11    0.05
  11  -2 -22    1.61    0.13
  11   2 -22    1.42    0.14
 -11   2  22    1.56    0.12
 -11   2  22    1.39    0.15
  11   2 -22    1.50    0.15
  10  -2 -22   11.45    0.42
 -10  -2  22   11.22    0.43
  10   2 -22   11.08    0.42
 -10   2  22   10.88    0.42
  10   2 -22   11.10    0.42
 -10   2  22   10.62    0.43
  -9  -2  22    1.40    0.18
   9  -2 -22    1.26    0.14
   9   2 -22    0.91    0.17
  -9   2  22    1.13    0.15
   9   2 -22    1.39    0.14
  -9   2  22    1.30    0.16
  -8  -2  22    1.11    0.20
   8  -2 -22    1.30    0.15
  -8   2  22    1.20    0.17
   8   2 -22    0.97    0.15
  -8   2  22    1.24    0.17
   8   2 -22    1.04    0.21
  -8   2  22    0.89    0.17
  -7  -2  22    8.11    0.37
  -7   2  22    7.54    0.37
  -7   2  22    7.88    0.35
   7   2 -22    7.66    0.35
  -6  -2  22    8.10    0.38
  -6   2  22    7.35    0.37
  -6   2  22    7.54    0.35
   6   2 -22    7.77    0.35
  -6   2  22    7.79    0.37
  -5  -2  22   13.94    0.55
   5   2 -22   12.78    0.52
  -5   2  22   13.45    0.52
  -5   2  22   13.01    0.54
  -4  -2  22   21.04    0.79
  -4   2  22   22.21    0.80
  -4   2  22   21.40    0.78
   4   2 -22   21.12    0.78
  -3  -2  22    2.62    0.24
  -3   2  22    3.14    0.25
  -3   2  22    3.20    0.22
   3   2 -22    3.32    0.23
  -2  -2  22    0.52    0.12
  -2   2  22    0.53    0.10
  -2   2  22    0.54    0.13
   2   2 -22    1.01    0.19
   2   2 -22    0.61    0.22
  -1  -2  22    0.39    0.11
   1  -2 -22    0.52    0.16
  -1   2  22    0.33    0.10
   1   2 -22    0.33    0.13
   1   2 -22    0.67    0.15
  -1   2  22    0.20    0.11
   0   2  22    0.42    0.10
   0   2  22    0.23    0.11
   0   2 -22    0.42    0.13
   1   2  22    8.86    0.37
  -1   2 -22    8.73    0.39
   1   2  22    9.25    0.40
   2   2  22    1.53    0.18
  -2   2 -22    1.28    0.18
   2   2  22    0.95    0.16
  -3   2 -22   -0.17    0.09
   3   2  22   -0.36    0.14
   3   2  22   -0.03    0.07
  -4   2 -22    6.63    0.31
   4   2  22    6.54    0.29
  -5   2 -22   11.58    0.45
   5   2  22   11.19    0.43
   6   2  22    0.42    0.09
  -6   2 -22    0.36    0.10
   7   2  22    1.64    0.11
  -7   2 -22    1.68    0.17
  11  -3 -22   23.75    0.85
 -11   3  22   26.12    0.84
 -11   3  22   25.42    0.84
  10  -3 -22    0.11    0.06
  10   3 -22    0.07    0.10
 -10   3  22    0.07    0.06
   9  -3 -22   -0.06    0.07
   9   3 -22   -0.09    0.07
  -9   3  22   -0.08    0.07
   9   3 -22   -0.04    0.11
  -9   3  22    0.06    0.08
  -8   3  22    9.67    0.39
   8   3 -22    9.34    0.45
  -8   3  22   10.09    0.40
   8   3 -22    9.46    0.39
  -8   3  22    9.62    0.38
  -7  -3  22    0.09    0.18
  -7   3  22    0.03    0.10
   7   3 -22    0.22    0.09
  -7   3  22    0.20    0.10
  -7   3  22   -0.01    0.08
  -6  -3  22    3.39    0.29
  -6   3  22    3.68    0.22
   6   3 -22    3.49    0.22
  -6   3  22    3.21    0.24
  -6   3  22    3.55    0.25
  -5  -3  22   14.24    0.56
   5   3 -22   14.18    0.54
  -5   3  22   13.70    0.54
  -5   3  22   13.49    0.55
  -4  -3  22   10.86    0.47
  -4   3  22   10.50    0.46
  -4   3  22   10.56    0.44
   4   3 -22   11.03    0.45
  -3  -3  22    0.02    0.13
  -3   3  22    0.16    0.09
  -3   3  22    0.20    0.12
   3   3 -22    0.10    0.10
  -2  -3  22    5.48    0.31
  -2   3  22    5.69    0.28
   2   3 -22    5.00    0.30
   2   3 -22    5.23    0.29
  -2   3  22    4.41    0.30
  -1  -3  22    0.07    0.12
   1   3 -22   -0.12    0.11
  -1   3  22    0.35    0.10
   1   3 -22    0.11    0.12
  -1   3  22    0.00    0.13
   0  -3  22   11.08    0.45
   0   3 -22   10.17    0.46
   0   3 -22   11.03    0.47
   0   3  22   11.63    0.47
   0   3  22   11.10    0.44
  -1   3 -22   29.44    1.08
   1   3  22   32.09    1.06
   2   3  22    2.12    0.16
  -2   3 -22    1.84    0.19
   3   3  22    4.20    0.22
  -3   3 -22    4.35    0.25
  -4   3 -22    5.19    0.26
   4   3  22    5.25    0.24
  -5   3 -22    0.87    0.15
   5   3  22    0.93    0.10
  -6   3 -22    3.27    0.20
   6   3  22    3.50    0.16
   7   3  22    3.70    0.16
   9  -4 -22    7.25    0.28
  -9   4  22    7.07    0.28
  -9   4  22    7.12    0.28
  -8   4  22    1.94    0.24
   8   4 -22    2.07    0.14
  -8   4  22    2.11    0.16
  -8   4  22    2.20    0.15
  -7   4  22   16.54    0.58
  -7   4  22   15.67    0.57
  -7   4  22   15.26    0.59
   7   4 -22   16.56    0.58
  -6   4  22    0.42    0.11
  -6   4  22    0.58    0.21
   6   4 -22    0.36    0.08
  -6   4  22    0.69    0.13
   5   4 -22    5.21    0.25
  -5   4  22    4.82    0.28
  -5   4  22    5.10    0.25
   4   4 -22    0.31    0.09
  -4   4  22    0.34    0.09
   3   4 -22    1.73    0.17
   2   4 -22    9.37    0.40
  -2   4  22   10.12    0.47
   1   4 -22   31.71    1.10
   1   4 -22   31.24    1.08
   0  -4  22    9.04    0.43
   0   4 -22    9.15    0.40
   0   4 -22    9.23    0.39
   0   4  22    9.39    0.38
   1  -4  22    0.79    0.14
  -1   4 -22    0.64    0.15
   1   4  22    0.84    0.13
   2  -4  22    0.35    0.12
   2   4  22    0.20    0.07
  -2   4 -22    0.10    0.10
   3  -4  22    2.50    0.19
  -3   4 -22    2.72    0.19
   3   4  22    2.52    0.16
  -4   4 -22    0.39    0.10
   4   4  22    0.30    0.06
   5  -4  22   22.71    0.79
  -5   4 -22   23.14    0.81
   5   4  22   24.26    0.79
   6   4  22    0.47    0.08
  -8   5  22    7.55    0.30
   8   5 -22    8.01    0.29
   7   5 -22    4.25    0.19
  -7   5  22    3.88    0.21
  -7   5  22    4.44    0.20
  -6   5  22    0.72    0.11
   6   5 -22    0.65    0.10
  -6   5  22    0.94    0.16
   5   5 -22    5.78    0.26
  -5   5  22    6.26    0.27
  -4  -5  22    0.11    0.15
  -4   5  22    0.21    0.07
   4   5 -22    0.29    0.07
  -3   5  22    0.16    0.07
   3   5 -22    0.10    0.07
  -2   5  22    0.20    0.07
   2   5 -22    0.55    0.13
  -1   5  22    0.06    0.06
   1   5 -22    0.15    0.09
   0   5  22    4.81    0.23
   0   5 -22    5.01    0.27
  -1   5 -22    1.31    0.17
   1   5  22    1.35    0.12
  -2   5 -22    1.21    0.16
   2   5  22    1.13    0.11
   3   5  22    2.83    0.16
  -3   5 -22    2.64    0.20
   4   5  22    1.09    0.11
   5   6 -22    0.22    0.06
  -5   6  22    0.07    0.06
  -4   6  22    1.74    0.13
   4   6 -22    1.73    0.12
  -3   6  22    0.66    0.11
   3   6 -22    0.76    0.11
  -2   6  22    0.09    0.07
   2   6 -22   -0.09    0.07
  -1   6  22   15.01    0.49
   1   6 -22   12.68    0.50
   0   6  22    2.44    0.14
   1   6  22    0.82    0.13
  11   0 -23   18.51    0.63
 -11   0  23   18.41    0.64
  11   0 -23   18.23    0.64
 -10   0  23   -0.01    0.07
  10   0 -23    0.00    0.09
  10   0 -23    0.04    0.07
   9   0 -23   15.02    0.55
   9   0 -23   14.45    0.55
  -9   0  23   14.76    0.56
  -8   0  23    0.00    0.10
   8   0 -23   -0.01    0.09
   7   0 -23    0.78    0.15
  -6   0  23    0.10    0.10
   6   0 -23   -0.01    0.09
  -5   0  23   20.97    0.78
   5   0 -23   20.82    0.76
  -4   0  23    0.01    0.10
   4   0 -23   -0.01    0.09
  -3   0  23   17.72    0.66
  -3   0  23   16.61    0.67
   3   0 -23   17.51    0.65
  -2   0  23    0.23    0.15
  -2   0  23   -0.18    0.10
   2   0 -23   -0.08    0.12
  -1   0  23    0.35    0.10
   1   0 -23    0.26    0.16
  -1   0  23    0.10    0.12
   0   0  23   -0.01    0.08
   0   0  23    0.08    0.11
   1   0  23    0.10    0.10
  -2   0 -23   -0.03    0.14
   2   0  23   -0.01    0.09
  -3   0 -23   12.86    0.53
   3   0  23   14.09    0.51
   4   0  23   -0.06    0.08
  -4   0 -23    0.05    0.12
  -5   0 -23    4.11    0.25
   5   0  23    4.06    0.21
  -6   0 -23   -0.06    0.11
   6   0  23   -0.06    0.07
   7   0  23   20.46    0.69
  11  -1 -23    4.31    0.20
 -11  -1  23    4.64    0.21
  11   1 -23    4.24    0.21
  11   1 -23    4.43    0.21
 -11   1  23    4.30    0.20
  10  -1 -23    1.59    0.14
 -10  -1  23    1.81    0.16
 -10   1  23    1.74    0.15
  10   1 -23    1.90    0.16
  10   1 -23    1.78    0.14
   9  -1 -23    7.84    0.32
  -9  -1  23    7.48    0.34
   9   1 -23    7.17    0.32
  -9   1  23    7.56    0.34
  -9   1  23    7.43    0.33
   9   1 -23    6.93    0.33
  -8  -1  23    7.99    0.35
   8  -1 -23    7.42    0.33
  -8   1  23    7.97    0.35
   8   1 -23    7.36    0.35
   8   1 -23    7.12    0.33
  -8   1  23    7.18    0.34
   7  -1 -23    0.25    0.09
  -7  -1  23    0.23    0.10
  -7   1  23    0.32    0.11
   7   1 -23    0.44    0.10
  -6  -1  23    2.87    0.22
   6  -1 -23    2.50    0.20
   6   1 -23    2.68    0.21
  -6   1  23    2.35    0.21
  -6   1  23    2.55    0.23
   5  -1 -23    9.05    0.39
  -5  -1  23    8.60    0.41
  -5   1  23    8.86    0.41
  -5   1  23    9.44    0.40
   5   1 -23    9.37    0.40
  -4  -1  23    3.58    0.25
   4  -1 -23    3.63    0.23
   4   1 -23    3.59    0.24
  -4   1  23    3.59    0.25
  -4   1  23    3.54    0.25
  -3  -1  23   26.23    0.91
   3  -1 -23   24.45    0.89
  -3   1  23   25.01    0.89
  -3   1  23   24.84    0.91
   3   1 -23   24.87    0.89
   2  -1 -23    8.41    0.37
  -2  -1  23    7.46    0.36
  -2   1  23    7.56    0.36
   2   1 -23    8.12    0.37
  -2   1  23    7.95    0.36
  -1  -1  23    8.10    0.36
   1  -1 -23    7.86    0.48
   1   1 -23    7.78    0.39
  -1   1  23    7.47    0.36
  -1   1  23    7.37    0.34
   0   1  23   21.87    0.77
   0   1  23   21.36    0.79
   1   1  23    0.78    0.15
   1   1  23    0.68    0.16
  -1   1 -23    0.58    0.15
   2   1  23    0.04    0.08
  -2   1 -23    0.24    0.12
  -3   1 -23    1.91    0.21
   3   1  23    2.29    0.17
  -4  -1 -23    1.50    0.25
   4   1  23    1.44    0.14
  -4   1 -23    1.28    0.17
  -5  -1 -23   10.47    0.46
   5   1  23   10.81    0.41
  -5   1 -23   11.09    0.44
  -6  -1 -23    0.60    0.16
   6   1  23    0.56    0.10
  -6   1 -23    0.82    0.16
   7   1  23    0.83    0.12
   7   1  23    1.09    0.10
  11  -2 -23    0.58    0.12
  11   2 -23    0.48    0.09
  10  -2 -23    0.12    0.06
 -10  -2  23   -0.05    0.11
 -10   2  23   -0.03    0.07
  10   2 -23    0.12    0.07
  10   2 -23    0.25    0.10
   9  -2 -23    1.87    0.14
  -9  -2  23    1.75    0.18
  -9   2  23    1.70    0.16
  -9   2  23    1.68    0.16
   9   2 -23    1.78    0.14
   9   2 -23    1.59    0.20
   8  -2 -23    0.07    0.07
  -8  -2  23   -0.03    0.10
  -8   2  23    0.08    0.08
  -8   2  23    0.14    0.08
   8   2 -23    0.08    0.08
  -7  -2  23   10.03    0.42
   7  -2 -23    9.65    0.49
  -7   2  23    9.39    0.40
  -7   2  23    9.67    0.41
  -6  -2  23    3.04    0.24
  -6   2  23    2.99    0.23
  -6   2  23    2.97    0.22
   6   2 -23    3.06    0.21
  -5  -2  23   23.93    0.86
  -5   2  23   23.59    0.86
  -5   2  23   22.94    0.84
   5   2 -23   23.95    0.85
  -4  -2  23    5.39    0.30
   4   2 -23    5.02    0.28
  -4   2  23    5.38    0.30
  -4   2  23    5.08    0.28
  -3  -2  23    4.53    0.27
  -3   2  23    4.05    0.25
   3   2 -23    3.68    0.25
  -3   2  23    4.16    0.26
   2  -2 -23   23.44    0.84
  -2  -2  23   24.16    0.86
   2   2 -23   23.20    0.84
  -2   2  23   23.45    0.86
  -2   2  23   23.54    0.84
  -1  -2  23    4.23    0.25
   1   2 -23    3.89    0.30
  -1   2  23    3.80    0.25
   1   2 -23    3.65    0.28
  -1   2  23    3.75    0.23
   0  -2  23    0.84    0.16
   0   2  23    0.54    0.12
   0   2  23    0.54    0.11
   0   2 -23    0.75    0.20
   1   2  23   17.43    0.64
  -1   2 -23   15.95    0.64
   1   2  23   17.85    0.63
  -2   2 -23   14.55    0.58
   2   2  23   15.38    0.56
   3   2  23    9.82    0.38
   3   2  23    9.22    0.39
  -3   2 -23    9.48    0.41
   4   2  23    1.84    0.18
   4   2  23    1.99    0.15
  -4   2 -23    2.22    0.19
   5   2  23    8.54    0.32
  -5   2 -23    8.31    0.35
   5   2  23    7.77    0.34
  -6   2 -23    0.65    0.15
   6   2  23    0.36    0.09
   7   2  23   10.34    0.37
  10  -3 -23    0.26    0.06
  10   3 -23    0.45    0.11
 -10   3  23    0.31    0.08
 -10   3  23    0.44    0.10
   9  -3 -23    0.83    0.11
   9   3 -23    0.86    0.11
  -9   3  23    0.67    0.11
  -9   3  23    0.79    0.13
   8  -3 -23    0.09    0.07
  -8   3  23    0.23    0.07
   8   3 -23    0.05    0.07
  -8   3  23    0.15    0.09
  -8   3  23    0.16    0.09
  -7   3  23    3.22    0.20
  -7   3  23    2.94    0.22
   7   3 -23    3.22    0.20
  -7   3  23    3.46    0.22
  -6  -3  23    0.94    0.24
  -6   3  23    1.07    0.15
  -6   3  23    1.19    0.18
   6   3 -23    1.06    0.15
  -6   3  23    1.11    0.22
  -5  -3  23    3.04    0.26
  -5   3  23    3.30    0.23
  -4   3  23    3.78    0.22
   4   3 -23    2.88    0.22
  -3  -3  23    1.78    0.23
  -3   3  23    2.29    0.19
   3   3 -23    2.42    0.20
  -3   3  23    2.04    0.28
  -2  -3  23   20.26    0.74
  -2   3  23   20.31    0.72
   2   3 -23   20.65    0.73
  -2   3  23   19.17    0.79
   2   3 -23   19.41    0.76
  -1  -3  23    1.33    0.21
   1   3 -23    1.36    0.21
  -1   3  23    1.70    0.17
   0  -3  23   27.29    0.97
   0   3  23   26.76    0.95
   0   3 -23   25.52    0.96
   0   3  23   28.56    0.94
   1  -3  23   12.00    0.47
  -1   3 -23   11.83    0.49
   1   3  23   12.21    0.49
  -2   3 -23    2.72    0.21
   2   3  23    2.57    0.17
   3   3  23    0.60    0.11
  -3   3 -23    0.92    0.16
  -4   3 -23    2.46    0.19
   4   3  23    2.29    0.14
   5   3  23    3.19    0.16
  -5   3 -23    3.14    0.21
   6   3  23    0.16    0.05
  -9   4  23    1.04    0.11
   9   4 -23    1.10    0.10
   8  -4 -23    1.46    0.12
  -8   4  23    1.24    0.15
  -8   4  23    1.53    0.12
   8   4 -23    1.28    0.12
  -7   4  23    5.97    0.26
   7   4 -23    5.87    0.26
  -7   4  23    6.07    0.29
   6   4 -23    0.15    0.07
  -6   4  23    0.12    0.07
  -6   4  23    0.06    0.12
   5   4 -23    1.40    0.14
  -5   4  23    1.33    0.14
  -4   4  23   -0.05    0.07
   4   4 -23    0.06    0.08
  -3   4  23    1.10    0.14
   3   4 -23    1.22    0.15
   2   4 -23   12.25    0.47
  -2   4  23   12.36    0.47
   1   4 -23    1.72    0.21
  -1   4  23    1.87    0.16
   1   4 -23    1.77    0.19
   0   4 -23    1.42    0.18
   0   4  23    1.14    0.14
   1  -4  23    3.80    0.26
   1   4  23    3.40    0.19
   2  -4  23    8.46    0.35
   2   4  23    7.82    0.32
  -2   4 -23    7.79    0.35
   3  -4  23    0.09    0.13
  -3   4 -23    0.06    0.10
   3   4  23    0.17    0.06
   4  -4  23   24.90    0.85
   4   4  23   24.43    0.84
  -4   4 -23   25.75    0.87
   5   4  23    1.04    0.09
   7   5 -23    0.29    0.06
  -7   5  23    0.22    0.06
   6   5 -23   12.03    0.45
  -6   5  23   12.92    0.45
   5   5 -23    0.51    0.10
  -5   5  23    0.57    0.10
  -4   5  23    6.63    0.28
   4   5 -23    6.72    0.28
  -3   5  23    2.50    0.16
   3   5 -23    2.85    0.17
   2   5 -23    0.25    0.08
  -2   5  23    0.27    0.07
  -1   5  23    0.11    0.06
   0   5  23   20.15    0.70
  -1   5 -23    2.45    0.21
   1   5  23    2.66    0.15
   2   5  23    2.86    0.15
   3   5  23    0.08    0.05
  -3   6  23    4.44    0.19
   3   6 -23    4.70    0.20
  -2   6  23    0.03    0.06
  -1   6  23    8.85    0.33
 -11   0  24    0.00    0.06
  11   0 -24    0.13    0.10
  11   0 -24    0.09    0.07
 -10   0  24    8.78    0.35
  10   0 -24    8.55    0.35
  10   0 -24    9.01    0.34
   9   0 -24   -0.01    0.11
  -9   0  24    0.00    0.08
   9   0 -24    0.06    0.07
  -8   0  24    2.35    0.19
   8   0 -24    2.45    0.17
  -6   0  24    0.39    0.11
   6   0 -24    0.37    0.10
   5   0 -24   -0.14    0.08
  -5   0  24    0.01    0.09
   4   0 -24   41.83    1.45
  -4   0  24   43.72    1.47
  -3   0  24   -0.03    0.09
   3   0 -24   -0.10    0.10
  -2   0  24    2.19    0.27
  -2   0  24    2.66    0.21
   2   0 -24    2.25    0.24
  -1   0  24    0.01    0.10
  -1   0  24   -0.24    0.13
   0   0  24  105.74    3.42
   0   0  24  103.48    3.40
   1   0  24    0.02    0.11
   3   0  24   -0.14    0.08
  -3   0 -24    0.04    0.15
  -4   0 -24    3.36    0.26
   4   0  24    3.28    0.20
   5   0  24   -0.04    0.07
  -5   0 -24    0.18    0.13
   6   0  24    2.49    0.16
   7   0  24    0.09    0.06
  11  -1 -24    0.76    0.13
  11  -1 -24    1.18    0.12
 -11  -1  24    0.92    0.14
  11   1 -24    1.05    0.13
 -11   1  24    1.25    0.11
  10  -1 -24    0.82    0.11
  10  -1 -24    0.87    0.15
 -10  -1  24    0.77    0.13
 -10   1  24    0.69    0.11
  10   1 -24    0.79    0.17
  10   1 -24    0.58    0.11
  -9  -1  24    0.10    0.08
   9  -1 -24    0.05    0.06
   9   1 -24    0.00    0.07
  -9   1  24    0.06    0.07
   9   1 -24    0.17    0.19
  -8  -1  24   35.53    1.20
   8  -1 -24   33.96    1.19
   8   1 -24   35.19    1.19
  -8   1  24   34.76    1.18
  -8   1  24   35.22    1.20
   7  -1 -24    1.11    0.15
  -7  -1  24    1.01    0.17
  -7   1  24    0.87    0.13
   7   1 -24    1.02    0.15
  -7   1  24    1.21    0.16
   6  -1 -24    5.60    0.28
  -6  -1  24    5.45    0.29
   6   1 -24    5.60    0.28
  -6   1  24    5.15    0.29
   5  -1 -24    0.95    0.16
  -5  -1  24    0.76    0.17
  -5   1  24    0.77    0.19
   5   1 -24    0.64    0.16
  -5   1  24    0.95    0.17
   4  -1 -24    0.01    0.09
  -4  -1  24    0.16    0.10
  -4   1  24   -0.05    0.10
  -4   1  24   -0.01    0.11
   4   1 -24    0.12    0.10
  -3  -1  24    0.15    0.09
   3  -1 -24    0.17    0.11
   3   1 -24    0.32    0.11
  -3   1  24    0.21    0.11
  -3   1  24    0.40    0.11
   2  -1 -24   20.74    0.77
  -2  -1  24   21.67    0.78
  -2   1  24   21.19    0.78
   2   1 -24   21.42    0.77
  -2   1  24   21.03    0.76
  -1  -1  24    5.63    0.28
  -1   1  24    4.81    0.28
   1   1 -24    5.10    0.32
  -1   1  24    5.48    0.29
   0  -1  24   21.12    0.78
   0   1  24   22.06    0.78
   0   1  24   21.08    0.76
  -1   1 -24    1.04    0.27
   1   1  24    1.46    0.17
   1   1  24    1.03    0.17
  -2   1 -24    3.68    0.27
   2   1  24    3.15    0.27
   3   1  24    3.92    0.21
  -3   1 -24    3.82    0.25
   4   1  24    5.34    0.23
  -4   1 -24    4.95    0.28
  -5   1 -24    3.87    0.24
   5   1  24    3.74    0.18
   6   1  24   18.97    0.65
   6   1  24   18.71    0.65
   7   1  24    3.84    0.17
  10  -2 -24    2.57    0.15
 -10   2  24    2.46    0.18
 -10   2  24    2.47    0.15
  -9  -2  24    4.18    0.24
   9  -2 -24    4.47    0.21
  -9   2  24    4.48    0.22
   9   2 -24    3.97    0.20
  -9   2  24    4.21    0.21
   8  -2 -24    0.13    0.07
  -8  -2  24    0.00    0.10
  -8   2  24    0.03    0.08
  -8   2  24    0.11    0.08
   8   2 -24    0.04    0.07
  -7  -2  24   21.83    0.77
  -7   2  24   21.46    0.77
   7   2 -24   20.99    0.76
  -7   2  24   21.52    0.76
   6  -2 -24    0.90    0.15
  -6  -2  24    0.79    0.18
   6   2 -24    1.08    0.14
  -6   2  24    1.44    0.18
  -6   2  24    1.01    0.16
  -5  -2  24    6.52    0.33
   5  -2 -24    6.75    0.31
   5   2 -24    6.70    0.31
  -5   2  24    5.92    0.32
  -5   2  24    6.50    0.31
   4  -2 -24   50.79    1.72
  -4  -2  24   50.39    1.73
   4   2 -24   52.30    1.72
  -4   2  24   50.51    1.73
  -4   2  24   52.88    1.72
   3  -2 -24    4.92    0.28
  -3  -2  24    4.64    0.27
  -3   2  24    4.58    0.26
   3   2 -24    4.52    0.26
  -3   2  24    4.64    0.27
   2  -2 -24   21.25    0.77
  -2  -2  24   21.26    0.78
   2   2 -24   21.35    0.77
  -2   2  24   22.45    0.79
  -2   2  24   21.02    0.77
  -1  -2  24    8.97    0.40
  -1   2  24    9.07    0.39
   1   2 -24    9.56    0.54
  -1   2  24    8.79    0.38
   0  -2  24   14.37    0.53
   0   2  24   13.73    0.51
   0   2  24   13.26    0.53
   0   2 -24   12.23    0.54
   1   2  24    6.86    0.34
   1   2  24    7.25    0.32
  -1   2 -24    6.50    0.34
  -2   2 -24   16.88    0.63
   2   2  24   16.91    0.61
   2   2  24   16.54    0.62
  -3   2 -24    1.91    0.20
   3   2  24    2.07    0.15
   3   2  24    1.65    0.18
   4   2  24    6.41    0.27
  -4   2 -24    6.50    0.31
   4   2  24    6.56    0.29
   5   2  24    7.07    0.31
  -5   2 -24    7.52    0.33
   5   2  24    7.27    0.29
   6   2  24    0.36    0.08
  10  -3 -24    4.19    0.18
 -10   3  24    3.84    0.19
 -10   3  24    3.81    0.20
  10   3 -24    4.22    0.19
   9  -3 -24    0.08    0.06
   9   3 -24    0.18    0.06
  -9   3  24   -0.03    0.08
  -8   3  24   11.78    0.43
  -8   3  24   11.43    0.44
   8   3 -24   11.70    0.43
   7  -3 -24    5.63    0.26
  -7   3  24    5.42    0.26
   7   3 -24    5.67    0.26
  -7   3  24    5.65    0.27
  -6  -3  24   14.85    0.58
  -6   3  24   14.78    0.56
   6   3 -24   14.91    0.56
  -6   3  24   15.46    0.55
  -5  -3  24    3.67    0.26
   5   3 -24    4.16    0.22
  -5   3  24    3.74    0.25
  -5   3  24    4.48    0.22
  -4  -3  24    0.47    0.12
   4   3 -24    0.27    0.09
  -4   3  24    0.47    0.11
  -4   3  24    0.35    0.08
  -3  -3  24    3.61    0.25
   3   3 -24    4.02    0.22
  -3   3  24    3.72    0.25
  -2  -3  24    0.82    0.18
   2  -3 -24    1.18    0.21
  -2   3  24    0.97    0.19
   2   3 -24    0.73    0.17
  -1  -3  24   15.14    0.56
   1   3 -24   14.42    0.56
  -1   3  24   14.65    0.56
   1   3 -24   14.47    0.58
  -1   3  24   13.44    0.59
   0  -3  24    2.95    0.20
   0   3 -24    2.72    0.24
   0   3  24    2.69    0.24
   0   3  24    2.84    0.19
   1  -3  24   14.38    0.54
   1   3  24   14.46    0.56
   1   3  24   14.73    0.53
  -1   3 -24   13.76    0.55
   2  -3  24    0.83    0.13
   2   3  24    0.80    0.12
  -2   3 -24    0.39    0.17
   3  -3  24    9.72    0.38
   3   3  24    9.84    0.38
  -3   3 -24   10.04    0.41
   4   3  24    6.62    0.26
  -4   3 -24    6.47    0.31
   5  -3  24    3.96    0.18
   5   3  24    3.75    0.17
  -8   4  24    1.29    0.14
   7  -4 -24   11.26    0.41
  -7   4  24   11.30    0.42
   7   4 -24   11.16    0.41
   6   4 -24    1.42    0.13
  -6   4  24    1.37    0.13
  -5   4  24   27.47    0.95
   5   4 -24   27.90    0.95
   4   4 -24    7.28    0.30
  -4   4  24    6.75    0.29
   3   4 -24    0.83    0.14
  -3   4  24    0.89    0.12
   2  -4 -24    0.70    0.15
  -2   4  24    0.70    0.12
   2   4 -24    0.56    0.14
   1   4 -24   10.81    0.42
  -1   4  24   10.61    0.41
   0   4 -24    3.14    0.24
   0   4  24    2.77    0.17
  -1   4 -24    4.48    0.26
   1   4  24    4.46    0.21
   2   4  24    4.89    0.22
  -2   4 -24    5.13    0.27
  -3   4 -24    1.72    0.19
   3   4  24    1.68    0.12
   4   4  24    0.10    0.05
   6  -5 -24    0.21    0.06
   6   5 -24    0.17    0.06
  -6   5  24    0.01    0.05
  -5   5  24   15.49    0.52
   5   5 -24   13.76    0.53
   4   5 -24   12.33    0.45
  -4   5  24   12.59    0.45
   3  -5 -24    1.76    0.18
  -3   5  24    1.50    0.12
   3   5 -24    1.58    0.14
  -2   5  24    0.24    0.06
   2   5 -24    0.45    0.09
  -1   5  24    1.69    0.13
   0   5  24    1.30    0.11
   1   5  24    0.97    0.15
   2   5  24    0.24    0.06
 -10   0  25    0.03    0.06
  10   0 -25    0.00    0.06
   9   0 -25   14.46    0.51
  -9   0  25   13.69    0.52
   8   0 -25   -0.02    0.07
  -8   0  25   -0.08    0.07
  -7   0  25    9.16    0.40
   7   0 -25    9.96    0.39
   6   0 -25   -0.04    0.08
   5   0 -25   21.72    0.76
  -5   0  25   20.15    0.77
  -4   0  25   -0.03    0.09
   4   0 -25   -0.10    0.09
  -3   0  25   -0.13    0.08
   3   0 -25    0.17    0.11
   2   0 -25   -0.06    0.12
  -2   0  25   -0.02    0.09
  -1   0  25    4.35    0.26
  -1   0  25    4.64    0.35
   0   0  25    0.11    0.09
   1   0  25   52.93    1.73
   1   0  25   50.36    1.71
   2   0  25   -0.01    0.07
   2   0  25   -0.07    0.10
   3   0  25    2.37    0.18
   4   0  25    0.03    0.08
   5   0  25    0.13    0.09
   6   0  25    0.00    0.05
  10  -1 -25    0.38    0.08
 -10  -1  25    0.27    0.08
 -10   1  25    0.28    0.07
   9  -1 -25    1.09    0.12
  -9  -1  25    1.07    0.13
  -9   1  25    1.12    0.13
   9   1 -25    1.06    0.12
   8  -1 -25    1.07    0.13
  -8  -1  25    0.89    0.15
  -8   1  25    1.24    0.15
   8   1 -25    1.26    0.13
  -7  -1  25    9.69    0.40
   7  -1 -25    9.81    0.39
  -7   1  25    9.62    0.40
   7   1 -25    9.45    0.39
  -7   1  25    9.38    0.40
   6  -1 -25    0.29    0.09
  -6  -1  25    0.36    0.09
   6   1 -25    0.21    0.08
  -6   1  25    0.17    0.09
  -6   1  25    0.27    0.11
  -5  -1  25    0.40    0.10
  -5   1  25    0.36    0.11
  -5   1  25    0.64    0.15
   5   1 -25    0.95    0.23
  -4  -1  25    4.62    0.26
   4  -1 -25    4.58    0.26
  -4   1  25    4.19    0.26
  -4   1  25    4.49    0.36
   4   1 -25    4.96    0.26
  -3  -1  25    0.39    0.10
   3  -1 -25    0.32    0.11
  -3   1  25    0.37    0.11
  -3   1  25    0.40    0.11
  -2  -1  25    1.38    0.17
   2   1 -25    0.96    0.20
  -2   1  25    1.32    0.18
  -2   1  25    1.51    0.19
  -1  -1  25   13.02    0.51
  -1   1  25   13.39    0.51
  -1   1  25   12.56    0.50
   0  -1  25    5.66    0.28
   0   1  25    5.78    0.34
   0   1  25    5.47    0.29
   1   1  25    0.67    0.15
   1   1  25    0.80    0.16
   2   1  25    5.26    0.26
   2   1  25    5.05    0.25
   3   1  25    9.96    0.38
  -3   1 -25    9.81    0.44
   3   1  25    9.63    0.39
  -4   1 -25    0.72    0.16
   4   1  25    0.70    0.12
   4   1  25    0.56    0.11
   5   1  25    0.03    0.06
   5   1  25    0.04    0.07
   6   1  25    1.35    0.12
   6   1  25    1.63    0.14
  10  -2 -25    5.82    0.24
 -10   2  25    5.95    0.24
  10   2 -25    5.82    0.24
   9  -2 -25    0.09    0.06
  -9  -2  25   -0.02    0.10
  -9   2  25    0.13    0.09
   9   2 -25   -0.01    0.06
  -9   2  25    0.02    0.07
  -8  -2  25    0.02    0.09
   8  -2 -25    0.14    0.06
   8   2 -25    0.11    0.06
  -8   2  25    0.01    0.08
  -8   2  25    0.11    0.07
  -7  -2  25   18.31    0.66
   7  -2 -25   18.48    0.66
   7   2 -25   18.02    0.65
  -7   2  25   17.90    0.66
  -7   2  25   18.75    0.65
  -6  -2  25    1.57    0.18
   6  -2 -25    1.55    0.15
  -6   2  25    1.50    0.17
  -6   2  25    1.59    0.17
   6   2 -25    1.54    0.15
  -5  -2  25    0.02    0.09
   5  -2 -25   -0.02    0.07
  -5   2  25    0.03    0.09
   5   2 -25    0.00    0.08
  -5   2  25   -0.05    0.07
   4  -2 -25    3.57    0.22
  -4  -2  25    3.68    0.23
  -4   2  25    3.19    0.21
   4   2 -25    3.32    0.21
  -4   2  25    3.22    0.22
   3  -2 -25    9.20    0.38
   3   2 -25    9.07    0.39
  -3   2  25    8.94    0.48
   2  -2 -25    1.11    0.20
  -2  -2  25    0.88    0.18
  -2   2  25    1.14    0.26
   2   2 -25    1.35    0.19
  -1   2  25    8.09    0.36
   0  -2  25   32.57    1.14
   0   2  25   33.03    1.13
   0   2  25   33.83    1.14
   1  -2  25    4.56    0.24
   1   2  25    4.59    0.23
  -1   2 -25    4.14    0.40
   1   2  25    4.70    0.25
   2  -2  25    0.58    0.12
   2   2  25    0.52    0.10
  -2   2 -25    0.65    0.15
   2   2  25    0.50    0.12
   3   2  25    3.00    0.17
  -3   2 -25    3.13    0.24
   3   2  25    2.97    0.19
   4   2  25    0.08    0.09
  -4   2 -25   -0.03    0.13
   4   2  25    0.06    0.06
   5   2  25    4.62    0.23
   9  -3 -25    2.22    0.13
  -9   3  25    1.91    0.15
   9   3 -25    2.05    0.13
  -9   3  25    2.05    0.14
   8  -3 -25   12.16    0.44
  -8   3  25   12.46    0.43
   8   3 -25   11.99    0.43
  -8   3  25   11.05    0.46
   7  -3 -25    0.06    0.06
  -7   3  25    0.09    0.08
  -7   3  25    0.17    0.07
   7   3 -25    0.03    0.06
  -6  -3  25    0.19    0.14
   6  -3 -25    0.21    0.08
  -6   3  25    0.10    0.07
   6   3 -25    0.08    0.06
  -6   3  25    0.09    0.09
  -5  -3  25    2.83    0.24
   5  -3 -25    2.93    0.19
   5   3 -25    2.92    0.18
  -5   3  25    2.99    0.21
  -5   3  25    3.00    0.18
  -4  -3  25    0.05    0.10
   4  -3 -25    0.22    0.09
  -4   3  25    0.26    0.11
  -4   3  25    0.07    0.07
   4   3 -25    0.04    0.08
   3  -3 -25    0.87    0.15
  -3  -3  25    0.99    0.18
  -3   3  25    0.96    0.18
  -3   3  25    1.18    0.14
   3   3 -25    0.89    0.15
  -2  -3  25    0.26    0.10
   2  -3 -25    0.60    0.19
   2   3 -25    0.12    0.10
  -2   3  25    0.24    0.07
  -2   3  25    0.16    0.11
  -1  -3  25    2.20    0.19
  -1   3  25    2.33    0.17
  -1   3  25    2.49    0.21
   0  -3  25   20.65    0.72
   0   3  25   19.16    0.71
   0   3  25   20.43    0.71
   0   3 -25   19.90    0.74
   1  -3  25    2.45    0.18
  -1   3 -25    2.25    0.23
   1   3  25    2.30    0.16
   2  -3  25    0.01    0.08
  -2   3 -25    0.18    0.13
   2   3  25    0.10    0.06
   3  -3  25    5.44    0.24
   3   3  25    5.33    0.23
  -3   3 -25    5.11    0.29
   4  -3  25    0.39    0.08
   4   3  25    0.25    0.06
   5  -3  25    3.38    0.18
   8  -4 -25    0.48    0.08
  -8   4  25    0.35    0.09
   7   4 -25    0.42    0.09
   6  -4 -25    2.18    0.14
   6   4 -25    2.09    0.14
  -6   4  25    1.96    0.13
   5  -4 -25    2.22    0.16
  -5   4  25    2.34    0.15
   5   4 -25    2.29    0.15
   4  -4 -25   13.16    0.47
  -4   4  25   13.15    0.48
   4   4 -25   12.60    0.47
   3  -4 -25    2.98    0.19
  -3   4  25    3.18    0.17
   3   4 -25    3.17    0.18
   2   4 -25    0.62    0.10
  -2   4  25    0.53    0.11
  -1   4  25   -0.06    0.05
   0   4  25    3.68    0.19
   0   4 -25    4.05    0.29
   1   4  25    1.71    0.12
  -1   4 -25    1.26    0.23
   2   4  25   -0.01    0.05
   3   4  25    1.13    0.10
   5  -5 -25    1.46    0.13
   5   5 -25    1.42    0.11
   4   5 -25    2.10    0.14
  -4   5  25    1.93    0.12
   3   5 -25   -0.01    0.07
  -1   5  25    1.11    0.11
   0   5  25   21.58    0.73
   1   5  25    7.53    0.28
  10   0 -26    3.56    0.17
 -10   0  26    3.55    0.18
  -9   0  26    0.06    0.06
   9   0 -26   -0.01    0.06
  -8   0  26    2.23    0.17
   8   0 -26    2.24    0.15
  -7   0  26    0.06    0.07
   7   0 -26   -0.05    0.07
  -6   0  26   33.61    1.16
   6   0 -26   33.66    1.15
   5   0 -26   -0.07    0.08
  -5   0  26   -0.12    0.08
   4   0 -26    4.41    0.24
   3   0 -26   -0.07    0.10
  -3   0  26   -0.07    0.09
   2   0 -26    2.21    0.23
  -2   0  26    2.53    0.20
   0   0  26    0.09    0.08
   1   0  26   -0.05    0.07
   1   0  26   -0.06    0.13
   2   0  26    8.28    0.35
   2   0  26    8.22    0.34
   3   0  26    0.15    0.11
   3   0  26    0.09    0.07
   4   0  26   -0.03    0.06
   5   0  26    0.02    0.07
 -10  -1  26    0.40    0.08
  10  -1 -26    0.47    0.09
 -10   1  26    0.43    0.09
  10   1 -26    0.51    0.09
   9  -1 -26    5.49    0.23
  -9  -1  26    5.08    0.23
  -9   1  26    5.32    0.24
   9   1 -26    5.22    0.23
  -8  -1  26    8.18    0.34
   8  -1 -26    8.74    0.34
   8   1 -26    8.67    0.34
  -8   1  26    8.23    0.35
   7  -1 -26    1.25    0.14
  -7  -1  26    1.30    0.15
  -7   1  26    1.07    0.14
   7   1 -26    1.26    0.13
   6  -1 -26    6.48    0.29
  -6  -1  26    6.31    0.29
   6   1 -26    6.29    0.28
  -6   1  26    5.99    0.29
  -6   1  26    6.28    0.31
   5  -1 -26    6.30    0.29
  -5  -1  26    6.02    0.29
  -5   1  26    6.10    0.30
  -5   1  26    6.09    0.31
   5   1 -26    6.37    0.29
  -4  -1  26    0.36    0.10
   4  -1 -26    0.25    0.09
  -4   1  26    0.37    0.09
  -4   1  26    0.43    0.11
   4   1 -26    0.31    0.09
   3  -1 -26   -0.18    0.09
  -3   1  26   -0.10    0.10
  -3   1  26    0.07    0.11
   3   1 -26    0.13    0.10
   2  -1 -26   14.45    0.54
  -2   1  26   13.12    0.62
   2   1 -26   14.27    0.54
  -2   1  26   14.59    0.53
  -1  -1  26    4.94    0.29
  -1   1  26    4.82    0.26
  -1   1  26    5.23    0.26
   0  -1  26    8.73    0.37
   0   1  26    8.77    0.36
   0   1  26    8.30    0.36
   1  -1  26    0.86    0.13
   1   1  26    1.09    0.15
   1   1  26    0.90    0.14
   2  -1  26    3.26    0.19
   2   1  26    3.56    0.19
   2   1  26    3.37    0.20
   3  -1  26    0.29    0.07
   3   1  26    0.22    0.08
   3   1  26    0.20    0.08
   4  -1  26    7.45    0.30
   4   1  26    7.68    0.30
   4   1  26    7.94    0.31
   5  -1  26    5.19    0.23
   5   1  26    5.27    0.22
   5   1  26    5.25    0.23
  -9  -2  26   12.34    0.50
  -9   2  26   13.87    0.47
  -8  -2  26    0.88    0.22
   8  -2 -26    0.69    0.10
   8   2 -26    0.54    0.10
  -8   2  26    0.80    0.14
  -8   2  26    0.63    0.11
   7  -2 -26    2.16    0.15
  -7  -2  26    2.15    0.18
  -7   2  26    2.09    0.17
  -7   2  26    2.12    0.17
   7   2 -26    2.03    0.15
  -6  -2  26    2.97    0.20
   6  -2 -26    2.88    0.18
  -6   2  26    2.71    0.19
   6   2 -26    2.79    0.18
  -6   2  26    2.88    0.19
   5  -2 -26    5.48    0.26
  -5  -2  26    5.47    0.27
  -5   2  26    5.77    0.26
   5   2 -26    5.45    0.26
  -5   2  26    5.22    0.27
  -4  -2  26    3.36    0.22
   4  -2 -26    3.14    0.21
  -4   2  26    3.34    0.21
   4   2 -26    3.43    0.21
  -4   2  26    3.37    0.20
   3  -2 -26    4.91    0.26
  -3  -2  26    4.93    0.26
   3   2 -26    5.13    0.26
  -3   2  26    4.99    0.25
  -3   2  26    5.17    0.26
  -2  -2  26    0.54    0.14
  -2   2  26    0.42    0.09
  -2   2  26    0.68    0.15
   2   2 -26    0.47    0.12
  -1  -2  26    4.91    0.25
  -1   2  26    4.34    0.25
  -1   2  26    4.30    0.23
   0  -2  26    6.69    0.30
   0   2  26    6.32    0.29
   0   2  26    6.52    0.30
   1  -2  26    0.88    0.13
   1   2  26    0.81    0.12
   1   2  26    0.97    0.15
   2  -2  26    5.57    0.26
   2   2  26    5.77    0.25
   2   2  26    5.55    0.26
   3  -2  26    3.71    0.18
   3   2  26    3.52    0.18
   4  -2  26   16.31    0.55
   4   2  26   14.84    0.56
   5  -2  26    2.10    0.13
   5   2  26    1.90    0.12
  -8   3  26    2.33    0.17
  -8   3  26    2.53    0.15
   7  -3 -26    0.46    0.10
  -7   3  26    0.18    0.09
  -7   3  26    0.55    0.11
   7   3 -26    0.39    0.09
   6  -3 -26    1.10    0.12
  -6   3  26    1.33    0.15
  -6   3  26    1.08    0.13
   6   3 -26    1.09    0.12
   5  -3 -26    1.06    0.13
  -5  -3  26    0.99    0.19
  -5   3  26    1.21    0.13
   5   3 -26    1.02    0.13
  -5   3  26    1.02    0.16
  -4  -3  26   -0.17    0.10
   4  -3 -26    0.00    0.08
  -4   3  26    0.09    0.10
   4   3 -26    0.01    0.07
  -4   3  26    0.07    0.07
  -3  -3  26    0.75    0.17
   3  -3 -26    0.47    0.11
   3   3 -26    0.81    0.14
  -3   3  26    0.31    0.10
  -3   3  26    0.32    0.08
  -2  -3  26    9.67    0.39
   2   3 -26    9.78    0.39
  -2   3  26    9.49    0.39
  -2   3  26    9.88    0.38
  -1  -3  26    8.11    0.34
  -1   3  26    7.89    0.35
  -1   3  26    8.05    0.32
   0  -3  26    0.08    0.08
   0   3  26    0.12    0.06
   1  -3  26    6.70    0.29
   1   3  26    6.65    0.28
   2  -3  26    0.04    0.08
   2   3  26    0.12    0.06
   3  -3  26    3.69    0.18
   3   3  26    3.36    0.16
   4  -3  26    0.56    0.13
   4   3  26    0.50    0.09
   7  -4 -26   -0.01    0.05
   7   4 -26    0.00    0.05
  -7   4  26   -0.08    0.05
   6  -4 -26    0.02    0.06
   6   4 -26    0.08    0.06
  -6   4  26   -0.09    0.07
   5  -4 -26    2.66    0.15
  -5   4  26    2.46    0.15
   5   4 -26    2.73    0.15
   4  -4 -26    3.16    0.18
   4   4 -26    3.23    0.17
  -4   4  26    3.21    0.17
  -3   4  26   17.83    0.62
   2   4 -26    3.74    0.22
  -2   4  26    3.43    0.18
  -1   4  26    4.99    0.22
   0   4  26    2.32    0.14
   1   4  26   -0.01    0.05
   2   4  26    1.11    0.10
   9   0 -27    0.08    0.08
  -8   0  27    0.02    0.06
   8   0 -27   -0.01    0.06
   7   0 -27   26.53    0.89
  -7   0  27   25.28    0.90
   6   0 -27   -0.04    0.07
  -6   0  27    0.08    0.08
  -5   0  27   13.67    0.51
   5   0 -27   13.16    0.50
   4   0 -27   -0.02    0.09
  -4   0  27   -0.05    0.07
  -3   0  27   16.67    0.63
   3   0 -27   17.37    0.62
  -2   0  27    0.03    0.07
  -1   0  27   62.92    2.09
   0   0  27   -0.03    0.07
   1   0  27    0.09    0.07
   2   0  27   -0.01    0.07
   3   0  27    1.98    0.14
   4   0  27    0.00    0.07
  -9  -1  27    1.56    0.13
   9  -1 -27    1.34    0.11
   9   1 -27    1.58    0.12
  -9   1  27    1.51    0.12
  -8  -1  27    7.12    0.29
   8  -1 -27    7.00    0.28
  -8   1  27    6.88    0.29
   8   1 -27    7.00    0.28
  -7  -1  27   10.81    0.42
   7  -1 -27   11.21    0.42
  -7   1  27   10.60    0.42
   7   1 -27   11.24    0.41
  -6  -1  27    0.84    0.13
   6  -1 -27    0.84    0.12
   6   1 -27    0.80    0.12
  -6   1  27    0.80    0.13
   5  -1 -27    3.02    0.18
  -5  -1  27    2.94    0.19
  -5   1  27    2.87    0.19
  -5   1  27    2.90    0.30
   5   1 -27    2.69    0.19
   4  -1 -27    1.36    0.16
  -4  -1  27    1.43    0.16
  -4   1  27    1.71    0.20
   4   1 -27    1.42    0.16
  -4   1  27    1.57    0.16
   3  -1 -27    2.60    0.20
  -3  -1  27    2.51    0.18
   3   1 -27    2.37    0.20
  -3   1  27    2.53    0.21
  -3   1  27    2.58    0.18
  -2  -1  27    0.34    0.09
  -2   1  27    0.53    0.14
  -2   1  27    0.34    0.10
   2   1 -27    0.32    0.14
  -1  -1  27    1.03    0.14
  -1   1  27    1.02    0.16
  -1   1  27    0.97    0.14
   0  -1  27    1.10    0.14
   0   1  27    0.97    0.16
   0   1  27    1.09    0.14
   1  -1  27   -0.01    0.07
   1   1  27    0.13    0.07
   1   1  27    0.15    0.08
   2  -1  27    0.18    0.07
   2   1  27    0.31    0.08
   2   1  27    0.39    0.08
   3  -1  27   19.04    0.69
   3   1  27   19.74    0.69
   3   1  27   20.68    0.73
   4  -1  27    0.88    0.14
   4   1  27    0.89    0.12
   4   1  27    1.05    0.14
   9  -2 -27    0.65    0.09
   9   2 -27    0.35    0.09
  -9   2  27    0.44    0.10
  -8  -2  27    0.46    0.10
   8  -2 -27    0.38    0.09
  -8   2  27    0.41    0.11
   8   2 -27    0.37    0.09
   7  -2 -27    8.93    0.33
  -7  -2  27    8.06    0.38
  -7   2  27    8.71    0.34
  -7   2  27    8.10    0.33
   7   2 -27    8.56    0.33
   6  -2 -27    0.26    0.07
  -6  -2  27    0.32    0.09
  -6   2  27    0.27    0.08
  -6   2  27    0.33    0.08
   6   2 -27    0.32    0.07
  -5  -2  27    0.21    0.09
   5  -2 -27    0.28    0.08
  -5   2  27    0.47    0.12
  -5   2  27    0.30    0.09
   5   2 -27    0.60    0.12
   4  -2 -27   11.44    0.44
  -4  -2  27   11.96    0.46
  -4   2  27   11.81    0.45
   4   2 -27   12.08    0.45
  -4   2  27   11.36    0.44
  -3  -2  27    1.11    0.15
   3  -2 -27    1.31    0.17
   3   2 -27    1.00    0.16
  -3   2  27    1.06    0.15
  -3   2  27    1.12    0.14
  -2  -2  27    1.52    0.16
  -2   2  27    1.55    0.15
  -2   2  27    1.61    0.16
   2   2 -27    1.65    0.19
  -1  -2  27   11.28    0.44
  -1   2  27   11.49    0.42
  -1   2  27   10.67    0.43
   0  -2  27    9.05    0.37
   0   2  27    9.33    0.37
   0   2  27    9.10    0.36
   1  -2  27    0.12    0.07
   1   2  27    0.14    0.07
   1   2  27    0.19    0.09
   2  -2  27    3.48    0.18
   2   2  27    3.44    0.17
   2   2  27    3.23    0.27
   3  -2  27    0.34    0.07
   3   2  27    0.20    0.11
   3   2  27    0.19    0.07
   4  -2  27    5.35    0.22
   4   2  27    5.53    0.22
   7  -3 -27    4.55    0.20
  -7   3  27    4.63    0.20
  -7   3  27    4.55    0.22
   6  -3 -27    0.20    0.06
  -6   3  27    0.13    0.09
  -6   3  27    0.09    0.07
   6   3 -27    0.26    0.06
   5  -3 -27    1.98    0.14
   5   3 -27    1.94    0.14
  -5   3  27    2.20    0.19
  -5   3  27    1.89    0.14
  -4  -3  27    2.77    0.33
   4  -3 -27    2.72    0.18
  -4   3  27    2.57    0.24
  -4   3  27    2.83    0.16
   4   3 -27    2.91    0.17
  -3  -3  27    1.14    0.16
  -3   3  27    1.02    0.12
   3   3 -27    1.05    0.15
  -3   3  27    1.01    0.24
  -2  -3  27    4.02    0.22
  -2   3  27    3.27    0.30
  -2   3  27    3.60    0.19
  -1  -3  27    0.65    0.15
  -1   3  27    0.64    0.11
   0  -3  27    6.60    0.28
   0   3  27    6.66    0.27
   1  -3  27    0.05    0.09
   1   3  27   -0.03    0.05
   2  -3  27    2.56    0.16
   3  -3  27    5.10    0.23
   3   3  27    5.45    0.21
   5  -4 -27    0.80    0.13
  -5   4  27    0.80    0.10
   5   4 -27    0.55    0.10
  -4   4  27   24.68    0.84
   4   4 -27   23.31    0.80
   3   4 -27    2.52    0.18
  -3   4  27    2.55    0.14
  -2   4  27    1.25    0.11
   0   4  27   22.92    0.77
   1   4  27    1.15    0.10
  -9   0  28   -0.14    0.06
   9   0 -28    0.02    0.05
   8   0 -28    1.11    0.11
  -8   0  28    1.22    0.11
  -7   0  28    0.09    0.06
   7   0 -28   -0.01    0.06
   6   0 -28   35.15    1.18
  -6   0  28   35.43    1.19
   5   0 -28   -0.04    0.07
  -5   0  28    0.01    0.06
  -4   0  28    0.46    0.12
   4   0 -28    0.18    0.09
  -3   0  28    0.03    0.08
   3   0 -28    0.06    0.10
  -2   0  28    6.75    0.30
  -1   0  28   -0.06    0.07
   0   0  28    1.94    0.15
   1   0  28    0.08    0.06
   2   0  28    4.61    0.21
   3   0  28    0.02    0.08
   4   0  28   30.13    1.00
  -8  -1  28    0.43    0.11
   7  -1 -28    0.00    0.06
  -7  -1  28   -0.03    0.06
  -7   1  28    0.02    0.06
   7   1 -28    0.09    0.06
   6  -1 -28    4.33    0.21
  -6  -1  28    4.44    0.22
  -6   1  28    4.17    0.22
   6   1 -28    4.50    0.21
  -5  -1  28    4.41    0.22
   5  -1 -28    4.30    0.22
  -5   1  28    4.16    0.22
   5   1 -28    4.36    0.21
  -4  -1  28    0.82    0.13
   4  -1 -28    0.60    0.10
  -4   1  28    0.52    0.12
   4   1 -28    0.41    0.09
  -3  -1  28   11.35    0.43
   3  -1 -28   10.48    0.43
  -3   1  28   11.13    0.43
   3   1 -28   11.02    0.42
  -3   1  28   10.75    0.45
  -2  -1  28    2.02    0.16
  -2   1  28    1.61    0.19
  -2   1  28    1.74    0.15
  -1  -1  28    0.11    0.07
  -1   1  28    0.17    0.08
  -1   1  28    0.38    0.11
   0  -1  28   20.54    0.70
   0   1  28   19.68    0.70
   0   1  28   19.28    0.69
   1  -1  28    4.30    0.21
   1   1  28    4.11    0.21
   2  -1  28    0.75    0.11
   2   1  28    0.58    0.11
   2   1  28    0.47    0.10
   3   1  28    1.19    0.23
   3   1  28    0.96    0.12
   8  -2 -28    3.90    0.17
  -8   2  28    3.82    0.18
   8   2 -28    3.84    0.17
  -7  -2  28    1.95    0.17
  -7   2  28    2.29    0.14
   7   2 -28    2.08    0.17
   6  -2 -28    7.74    0.31
  -6   2  28    7.73    0.38
  -6   2  28    8.18    0.32
   6   2 -28    8.11    0.31
   5  -2 -28    1.91    0.15
  -5  -2  28    1.75    0.16
   5   2 -28    1.84    0.15
  -5   2  28    1.81    0.21
  -5   2  28    2.13    0.16
   4  -2 -28    0.15    0.09
  -4  -2  28    0.08    0.07
  -4   2  28    0.21    0.08
  -4   2  28    0.25    0.08
   4   2 -28    0.24    0.08
  -3  -2  28    5.86    0.27
   3   2 -28    5.54    0.26
  -3   2  28    5.08    0.25
  -3   2  28    5.41    0.25
  -2  -2  28    0.19    0.08
  -2   2  28    0.28    0.07
  -2   2  28    0.10    0.08
  -1  -2  28    0.55    0.12
  -1   2  28    0.44    0.08
  -1   2  28    0.34    0.08
   0  -2  28    0.63    0.12
   0   2  28    0.45    0.09
   0   2  28    0.40    0.08
   1  -2  28    0.87    0.12
   1   2  28    0.73    0.14
   1   2  28    0.77    0.13
   2   2  28    0.21    0.07
   2   2  28    0.27    0.10
   3  -2  28    2.61    0.14
   3   2  28    2.61    0.15
   6  -3 -28    1.14    0.11
   6   3 -28    0.75    0.11
  -6   3  28    1.21    0.12
   5  -3 -28    6.83    0.27
  -5   3  28    6.47    0.29
  -5   3  28    6.59    0.27
   5   3 -28    7.25    0.27
   4  -3 -28    0.37    0.11
  -4   3  28    0.26    0.07
  -4   3  28    0.21    0.11
   4   3 -28    0.30    0.08
  -3  -3  28    0.30    0.11
  -3   3  28    0.17    0.06
  -3   3  28    0.28    0.12
   3   3 -28    0.10    0.10
  -2  -3  28    4.65    0.24
  -2   3  28    5.16    0.22
  -1  -3  28    2.28    0.17
  -1   3  28    2.04    0.13
   0  -3  28    0.24    0.09
   1  -3  28    4.08    0.21
   1   3  28    3.60    0.17
  -3   4  28   10.76    0.38
  -2   4  28    1.13    0.10
  -8   0  29   -0.07    0.05
   8   0 -29    0.02    0.05
   7   0 -29    1.58    0.12
  -7   0  29    1.67    0.13
  -6   0  29   -0.03    0.06
   6   0 -29   -0.02    0.06
   5   0 -29    4.43    0.21
  -5   0  29    4.25    0.21
   4   0 -29    0.05    0.09
  -4   0  29   -0.07    0.06
  -3   0  29    0.06    0.07
  -2   0  29    0.01    0.06
  -1   0  29    8.39    0.34
   0   0  29    0.01    0.06
   1   0  29    0.84    0.11
   2   0  29   -0.08    0.06
   7  -1 -29    1.23    0.11
  -7  -1  29    1.05    0.12
   7   1 -29    1.32    0.11
  -7   1  29    1.28    0.12
  -6  -1  29    0.11    0.07
  -6   1  29    0.13    0.06
   6   1 -29    0.06    0.07
  -5  -1  29    6.32    0.27
   5  -1 -29    6.26    0.31
  -5   1  29    6.18    0.27
   5   1 -29    6.37    0.26
  -4  -1  29    1.21    0.12
   4  -1 -29    0.88    0.16
  -4   1  29    1.27    0.13
  -3  -1  29    0.05    0.07
  -3   1  29    0.03    0.07
  -2  -1  29    0.30    0.07
  -2   1  29    0.20    0.07
  -1  -1  29    2.01    0.15
  -1   1  29    2.22    0.15
   0  -1  29    0.57    0.10
   0   1  29    0.66    0.12
   1  -1  29    0.90    0.11
   2  -1  29    4.21    0.19
   2   1  29    3.82    0.19
   7  -2 -29    9.24    0.33
   7   2 -29    9.13    0.33
  -7   2  29    8.64    0.33
  -6  -2  29    5.21    0.24
   6  -2 -29    5.53    0.23
   6   2 -29    5.55    0.23
  -6   2  29    5.54    0.24
   5  -2 -29    1.34    0.14
  -5  -2  29    1.69    0.14
  -5   2  29    1.59    0.13
   5   2 -29    1.51    0.13
  -5   2  29    1.31    0.19
   4  -2 -29    3.30    0.21
  -4  -2  29    2.77    0.22
  -4   2  29    3.14    0.20
  -4   2  29    3.30    0.20
   4   2 -29    3.31    0.18
  -3  -2  29    0.70    0.11
  -3   2  29    1.06    0.14
  -3   2  29    0.95    0.12
  -2  -2  29    0.05    0.07
  -2   2  29    0.03    0.08
  -1  -2  29   14.03    0.50
  -1   2  29   13.57    0.50
  -1   2  29   14.04    0.49
   0   2  29    0.86    0.13
   0   2  29    0.67    0.14
   1  -2  29    4.20    0.20
   1   2  29    4.43    0.20
  -5   3  29    0.73    0.13
   5   3 -29    0.81    0.12
  -4   3  29   -0.06    0.07
  -3   3  29    0.92    0.11
  -2   3  29    2.08    0.13
  -1   3  29    0.06    0.06
   0   3  29   10.23    0.37
   6   0 -30    3.82    0.18
  -6   0  30    4.08    0.18
  -5   0  30    0.02    0.06
   5   0 -30    0.01    0.08
  -4   0  30    2.30    0.15
   4   0 -30    2.79    0.27
  -3   0  30   -0.02    0.06
  -2   0  30    3.84    0.19
  -1   0  30    0.04    0.06
   0   0  30   25.03    0.87
   1   0  30    0.06    0.06
  -6  -1  30    0.65    0.11
   6  -1 -30    0.89    0.12
   6   1 -30    0.48    0.11
  -6   1  30    0.90    0.10
  -5  -1  30    0.57    0.11
   5  -1 -30    0.38    0.09
   5   1 -30    0.79    0.12
  -5   1  30    0.61    0.15
  -4  -1  30    3.27    0.17
   4   1 -30    3.17    0.21
  -4   1  30    3.64    0.18
  -3  -1  30    2.39    0.15
  -3   1  30    2.49    0.15
  -2  -1  30    0.01    0.06
  -2   1  30   -0.06    0.06
  -1  -1  30    7.59    0.30
   0  -1  30   22.42    0.78
   0   1  30   23.67    0.78
   1  -1  30    0.06    0.06
   1   1  30    0.18    0.07
  -5  -2  30    0.10    0.09
  -5   2  30    0.22    0.07
  -4  -2  30    6.02    0.25
  -4   2  30    5.76    0.24
  -3  -2  30    6.59    0.26
  -3   2  30    6.29    0.26
  -2  -2  30    0.20    0.07
  -2   2  30    0.13    0.08
  -1  -2  30    1.85    0.14
  -1   2  30    2.01    0.16
   0  -2  30    6.32    0.25
  -5   0  31    0.06    0.06
  -4   0  31   -0.05    0.05
  -3   0  31   10.29    0.38
  -2   0  31   -0.03    0.05
  -1   0  31    1.61    0.12
  -4  -1  31    0.10    0.06
  -3  -1  31    0.11    0.06
  -3   1  31   -0.03    0.06
  -2  -1  31    0.38    0.09
  -2   1  31    0.60    0.10
  -1  -1  31    0.07    0.06
  -1   1  31    0.00    0.06
   0   0   0    0.00    0.00
;
_shelx_hkl_checksum              89469
_shelx_res_file
;
    SKM188_0m.res created by SHELXL-2014/7
TITL SKM188_0m_a.res in P2(1)/n
REM Old TITL SKM188_0m in P2(1)/n
REM SHELXT solution in P2(1)/n
REM R1 0.110,  Rweak 0.003,  Alpha 0.026,  Orientation as input
REM Formula found by SHELXT:  C24 N5 O2 S Cl
CELL  1.54178  11.8562   7.1984  25.4331   90.000  101.045   90.000
ZERR    4.000   0.0003   0.0002   0.0005    0.000    0.001    0.000
LATT  1
SYMM 1/2-X, 1/2+Y, 1/2-Z
SFAC C H N O S CL
UNIT 96 68 16 12 4 4
TEMP -123
SIZE 0.06 0.171 0.223
L.S. 5
BOND $H
LIST 4
FMAP 2
ACTA 135
EADP C8 C8a
EADP C9 C9a
SADI 0.003 O3 C8 O3 C8a
PLAN 5
CONF
EQIV $1 -x+1/2, y+1/2, -z+3/2
HTAB C8 O2_$1
MPLA C16 C17 C18 N2 N3 N4
MPLA C4 C5 C16 C17 S1
MPLA C1 > C5 N1
MPLA C10 > C15
WGHT    0.044500    1.008800
EXTI    0.001833
FVAR       0.15064   0.56724
CL1   6    0.719982    0.292166    0.562185    11.00000    0.01424    0.04336 =
         0.03156    0.00109    0.00669    0.00137
S1    5   -0.076383    0.194057    0.462905    11.00000    0.01390    0.02804 =
         0.02085    0.00103    0.00243   -0.00149
O1    4   -0.054650    0.036631    0.349425    11.00000    0.02297    0.03597 =
         0.02394   -0.00334    0.00057   -0.00741
O2    4    0.299946    0.355124    0.690096    11.00000    0.03831    0.04086 =
         0.02839    0.00506   -0.00774   -0.00207
O3    4    0.253760    0.637988    0.655083    11.00000    0.04398    0.03098 =
         0.02319   -0.00605   -0.00398   -0.00010
N1    3   -0.024710    0.318091    0.564083    11.00000    0.01670    0.02694 =
         0.02140    0.00163    0.00575    0.00126
N2    3    0.242934    0.219586    0.442310    11.00000    0.01853    0.02897 =
         0.01864   -0.00120    0.00550   -0.00208
N3    3    0.238895    0.176425    0.393280    11.00000    0.01877    0.03077 =
         0.02036   -0.00138    0.00373   -0.00246
N4    3    0.137747    0.118427    0.361234    11.00000    0.01930    0.02668 =
         0.01840   -0.00076    0.00321   -0.00132
C1    1    0.052288    0.375532    0.606343    11.00000    0.01898    0.02444 =
         0.02125    0.00216    0.00623    0.00205
C2    1    0.170990    0.385464    0.605561    11.00000    0.01807    0.02368 =
         0.01874    0.00138    0.00404    0.00187
C3    1    0.213890    0.330978    0.560763    11.00000    0.01687    0.02143 =
         0.01864    0.00238    0.00404    0.00039
C4    1    0.132380    0.275125    0.515664    11.00000    0.01553    0.02062 =
         0.01956    0.00274    0.00421    0.00059
C5    1    0.016528    0.271717    0.520705    11.00000    0.01602    0.02135 =
         0.02055    0.00242    0.00252    0.00034
C6    1    0.006730    0.421730    0.655995    11.00000    0.02274    0.03831 =
         0.02353   -0.00285    0.00940    0.00174
AFIX 137
H6A   2   -0.076549    0.440763    0.646589    11.00000   -1.50000
H6B   2    0.043610    0.535400    0.672133    11.00000   -1.50000
H6C   2    0.023421    0.319153    0.681642    11.00000   -1.50000
AFIX   0
C7    1    0.249940    0.453553    0.655255    11.00000    0.01818    0.03254 =
         0.01852   -0.00063    0.00623   -0.00014
PART 1
C8    1    0.310054    0.742393    0.702766    21.00000    0.03432    0.03415 =
         0.02440   -0.01523    0.00066    0.00636
AFIX  23
H8A   2    0.254024    0.768379    0.726116    21.00000   -1.20000
H8B   2    0.373639    0.667954    0.723443    21.00000   -1.20000
AFIX   0
C9    1    0.354074    0.913831    0.685965    21.00000    0.05743    0.04678 =
         0.04789   -0.00122   -0.01593   -0.01315
AFIX 137
H9A   2    0.403341    0.887751    0.659998    21.00000   -1.50000
H9B   2    0.398967    0.977534    0.717137    21.00000   -1.50000
H9C   2    0.289948    0.993168    0.669299    21.00000   -1.50000
AFIX   0
PART 2
SAME 0.002 C8 C9
C8A   1    0.332032    0.715948    0.701899   -21.00000    0.03432    0.03415 =
         0.02440   -0.01523    0.00066    0.00636
AFIX  23
H8C   2    0.287215    0.761248    0.728398   -21.00000   -1.20000
H8D   2    0.385445    0.618411    0.719155   -21.00000   -1.20000
AFIX   0
C9A   1    0.396057    0.866648    0.684983   -21.00000    0.05743    0.04678 =
         0.04789   -0.00122   -0.01593   -0.01315
AFIX 137
H9D   2    0.461219    0.816977    0.670847   -21.00000   -1.50000
H9E   2    0.424507    0.947782    0.715594   -21.00000   -1.50000
H9F   2    0.346125    0.938001    0.656965   -21.00000   -1.50000
AFIX   0
PART 0
C10   1    0.339824    0.324701    0.561266    11.00000    0.01573    0.02879 =
         0.01487    0.00012    0.00366    0.00012
C11   1    0.405845    0.485401    0.565972    11.00000    0.01902    0.02607 =
         0.01981   -0.00004    0.00460    0.00054
AFIX  43
H11   2    0.370681    0.602440    0.569081    11.00000   -1.20000
AFIX   0
C12   1    0.523352    0.476079    0.566161    11.00000    0.01896    0.03099 =
         0.02279    0.00043    0.00402   -0.00463
AFIX  43
H12   2    0.568415    0.586032    0.568891    11.00000   -1.20000
AFIX   0
C13   1    0.573200    0.304597    0.562322    11.00000    0.01489    0.03679 =
         0.01789    0.00088    0.00375    0.00009
C14   1    0.509435    0.142062    0.558334    11.00000    0.02039    0.02957 =
         0.02762   -0.00222    0.00420    0.00367
AFIX  43
H14   2    0.545385    0.024970    0.556410    11.00000   -1.20000
AFIX   0
C15   1    0.392098    0.153425    0.557201    11.00000    0.01913    0.02653 =
         0.02772   -0.00262    0.00414   -0.00154
AFIX  43
H15   2    0.347059    0.043363    0.553620    11.00000   -1.20000
AFIX   0
C16   1    0.143026    0.218189    0.462561    11.00000    0.01709    0.02050 =
         0.01939    0.00181    0.00352   -0.00120
C17   1    0.039164    0.168834    0.431518    11.00000    0.01807    0.02184 =
         0.02003    0.00196    0.00318   -0.00159
C18   1    0.031113    0.100537    0.377880    11.00000    0.02097    0.02220 =
         0.02071    0.00193    0.00288   -0.00124
C19   1    0.151609    0.079526    0.307017    11.00000    0.02865    0.02456 =
         0.01943   -0.00127    0.00568   -0.00105
C20   1    0.061886    0.111404    0.263926    11.00000    0.02688    0.03466 =
         0.02366   -0.00270    0.00357   -0.00284
AFIX  43
H20   2   -0.011337    0.149986    0.269781    11.00000   -1.20000
AFIX   0
C21   1    0.081187    0.085868    0.212222    11.00000    0.03574    0.04438 =
         0.02135   -0.00303    0.00192   -0.00373
AFIX  43
H21   2    0.020282    0.105862    0.182561    11.00000   -1.20000
AFIX   0
C22   1    0.188003    0.031674    0.203372    11.00000    0.04525    0.04204 =
         0.02142   -0.00582    0.00910    0.00094
AFIX  43
H22   2    0.200675    0.016004    0.167871    11.00000   -1.20000
AFIX   0
C23   1    0.276187    0.000510    0.246680    11.00000    0.03846    0.04058 =
         0.02866   -0.00352    0.01149    0.01032
AFIX  43
H23   2    0.349718   -0.035920    0.240715    11.00000   -1.20000
AFIX   0
C24   1    0.258480    0.021835    0.298681    11.00000    0.03335    0.03372 =
         0.02404   -0.00036    0.00593    0.00785
AFIX  43
H24   2    0.318808   -0.002764    0.328253    11.00000   -1.20000
REM #####
AFIX   0
HKLF 4
REM  SKM188_0m_a.res in P2(1)/n
REM R1 =  0.0313 for    3824 Fo > 4sig(Fo)  and  0.0335 for all    4116 data
REM    309 parameters refined using      2 restraints
END
WGHT      0.0445      1.0087
REM Highest difference peak  0.268,  deepest hole -0.253,  1-sigma level  0.048
Q1    1   0.0924  0.2180  0.4459  11.00000  0.05    0.27
Q2    1   0.1967  0.3614  0.5798  11.00000  0.05    0.23
Q3    1   0.2834  0.3340  0.5594  11.00000  0.05    0.22
Q4    1   0.2044  0.4134  0.6279  11.00000  0.05    0.21
Q5    1   0.1206  0.3845  0.6050  11.00000  0.05    0.20
;
_shelx_res_checksum              94280
loop_
_space_group_symop_operation_xyz
'x, y, z'
'-x+1/2, y+1/2, -z+1/2'
'-x, -y, -z'
'x-1/2, -y-1/2, z-1/2'
loop_
_atom_site_type_symbol
_atom_site_label
_atom_site_fract_x
_atom_site_fract_y
_atom_site_fract_z
_atom_site_U_iso_or_equiv
_atom_site_adp_type
_atom_site_calc_flag
_atom_site_occupancy
_atom_site_disorder_assembly
_atom_site_disorder_group
Cl Cl1 0.71998(3) 0.29217(6) 0.56218(2) 0.02941(11) Uani d 1 . .
S S1 -0.07638(3) 0.19406(5) 0.46290(2) 0.02105(11) Uani d 1 . .
O O1 -0.05465(9) 0.03663(16) 0.34942(4) 0.0281(2) Uani d 1 . .
O O2 0.29995(10) 0.35512(17) 0.69010(5) 0.0377(3) Uani d 1 . .
O O3 0.25376(10) 0.63799(16) 0.65508(4) 0.0341(3) Uani d 1 . .
N N1 -0.02471(10) 0.31809(17) 0.56408(5) 0.0214(3) Uani d 1 . .
N N2 0.24293(10) 0.21959(17) 0.44231(5) 0.0218(3) Uani d 1 . .
N N3 0.23889(10) 0.17642(18) 0.39328(5) 0.0233(3) Uani d 1 . .
N N4 0.13775(10) 0.11843(17) 0.36123(5) 0.0215(3) Uani d 1 . .
C C1 0.05229(12) 0.3755(2) 0.60634(5) 0.0212(3) Uani d 1 . .
C C2 0.17099(11) 0.3855(2) 0.60556(5) 0.0201(3) Uani d 1 . .
C C3 0.21389(11) 0.33098(19) 0.56076(5) 0.0189(3) Uani d 1 . .
C C4 0.13238(11) 0.27512(19) 0.51566(5) 0.0185(3) Uani d 1 . .
C C5 0.01653(11) 0.27172(19) 0.52070(5) 0.0194(3) Uani d 1 . .
C C6 0.00673(13) 0.4217(2) 0.65600(6) 0.0275(3) Uani d 1 . .
H H6A -0.0765 0.4408 0.6466 0.041 Uiso calc 1 . .
H H6B 0.0436 0.5354 0.6721 0.041 Uiso calc 1 . .
H H6C 0.0234 0.3192 0.6816 0.041 Uiso calc 1 . .
C C7 0.24994(11) 0.4536(2) 0.65525(5) 0.0227(3) Uani d 1 . .
C C8 0.3101(7) 0.7424(11) 0.70277(19) 0.0316(14) Uani d 0.567(11) A 1
H H8A 0.2540 0.7684 0.7261 0.038 Uiso calc 0.567(11) A 1
H H8B 0.3736 0.6680 0.7234 0.038 Uiso calc 0.567(11) A 1
C C9 0.3541(7) 0.9138(10) 0.6860(3) 0.0541(14) Uani d 0.567(11) A 1
H H9A 0.4033 0.8878 0.6600 0.081 Uiso calc 0.567(11) A 1
H H9B 0.3990 0.9775 0.7171 0.081 Uiso calc 0.567(11) A 1
H H9C 0.2899 0.9932 0.6693 0.081 Uiso calc 0.567(11) A 1
C C8A 0.3320(9) 0.7159(15) 0.7019(3) 0.0316(14) Uani d 0.433(11) A 2
H H8C 0.2872 0.7612 0.7284 0.038 Uiso calc 0.433(11) A 2
H H8D 0.3854 0.6184 0.7192 0.038 Uiso calc 0.433(11) A 2
C C9A 0.3961(9) 0.8666(14) 0.6850(4) 0.0541(14) Uani d 0.433(11) A 2
H H9D 0.4612 0.8170 0.6708 0.081 Uiso calc 0.433(11) A 2
H H9E 0.4245 0.9478 0.7156 0.081 Uiso calc 0.433(11) A 2
H H9F 0.3461 0.9380 0.6570 0.081 Uiso calc 0.433(11) A 2
C C10 0.33982(11) 0.3247(2) 0.56127(5) 0.0197(3) Uani d 1 . .
C C11 0.40585(12) 0.4854(2) 0.56597(5) 0.0215(3) Uani d 1 . .
H H11 0.3707 0.6024 0.5691 0.026 Uiso calc 1 . .
C C12 0.52335(12) 0.4761(2) 0.56616(6) 0.0242(3) Uani d 1 . .
H H12 0.5684 0.5860 0.5689 0.029 Uiso calc 1 . .
C C13 0.57320(12) 0.3046(2) 0.56232(5) 0.0231(3) Uani d 1 . .
C C14 0.50944(12) 0.1421(2) 0.55833(6) 0.0259(3) Uani d 1 . .
H H14 0.5454 0.0250 0.5564 0.031 Uiso calc 1 . .
C C15 0.39210(12) 0.1534(2) 0.55720(6) 0.0245(3) Uani d 1 . .
H H15 0.3471 0.0434 0.5536 0.029 Uiso calc 1 . .
C C16 0.14303(11) 0.21819(19) 0.46256(5) 0.0190(3) Uani d 1 . .
C C17 0.03916(12) 0.1688(2) 0.43152(5) 0.0200(3) Uani d 1 . .
C C18 0.03111(12) 0.1005(2) 0.37788(5) 0.0214(3) Uani d 1 . .
C C19 0.15161(13) 0.0795(2) 0.30702(6) 0.0241(3) Uani d 1 . .
C C20 0.06189(13) 0.1114(2) 0.26393(6) 0.0286(3) Uani d 1 . .
H H20 -0.0113 0.1500 0.2698 0.034 Uiso calc 1 . .
C C21 0.08119(15) 0.0859(3) 0.21222(6) 0.0343(4) Uani d 1 . .
H H21 0.0203 0.1059 0.1826 0.041 Uiso calc 1 . .
C C22 0.18800(15) 0.0317(2) 0.20337(6) 0.0359(4) Uani d 1 . .
H H22 0.2007 0.0160 0.1679 0.043 Uiso calc 1 . .
C C23 0.27619(15) 0.0005(3) 0.24668(6) 0.0352(4) Uani d 1 . .
H H23 0.3497 -0.0359 0.2407 0.042 Uiso calc 1 . .
C C24 0.25848(14) 0.0218(2) 0.29868(6) 0.0303(3) Uani d 1 . .
H H24 0.3188 -0.0028 0.3283 0.036 Uiso calc 1 . .
loop_
_atom_site_aniso_label
_atom_site_aniso_U_11
_atom_site_aniso_U_22
_atom_site_aniso_U_33
_atom_site_aniso_U_12
_atom_site_aniso_U_13
_atom_site_aniso_U_23
Cl1 0.01424(17) 0.0434(2) 0.0316(2) 0.00137(14) 0.00669(13) 0.00109(15)
S1 0.01390(17) 0.02804(19) 0.02085(18) -0.00149(12) 0.00243(12) 0.00103(13)
O1 0.0230(5) 0.0360(6) 0.0239(5) -0.0074(4) 0.0006(4) -0.0033(4)
O2 0.0383(6) 0.0409(7) 0.0284(6) -0.0021(5) -0.0077(5) 0.0051(5)
O3 0.0440(7) 0.0310(6) 0.0232(5) -0.0001(5) -0.0040(5) -0.0060(5)
N1 0.0167(5) 0.0269(6) 0.0214(6) 0.0013(5) 0.0058(4) 0.0016(5)
N2 0.0185(6) 0.0290(6) 0.0186(6) -0.0021(5) 0.0055(4) -0.0012(5)
N3 0.0188(6) 0.0308(6) 0.0204(6) -0.0025(5) 0.0037(4) -0.0014(5)
N4 0.0193(6) 0.0267(6) 0.0184(6) -0.0013(5) 0.0032(4) -0.0008(5)
C1 0.0190(6) 0.0244(7) 0.0213(7) 0.0021(5) 0.0062(5) 0.0022(6)
C2 0.0181(6) 0.0237(7) 0.0187(6) 0.0019(5) 0.0040(5) 0.0014(5)
C3 0.0169(6) 0.0214(7) 0.0186(6) 0.0004(5) 0.0040(5) 0.0024(5)
C4 0.0155(6) 0.0206(7) 0.0196(6) 0.0006(5) 0.0042(5) 0.0027(5)
C5 0.0160(6) 0.0213(7) 0.0205(6) 0.0003(5) 0.0025(5) 0.0024(5)
C6 0.0227(7) 0.0383(8) 0.0235(7) 0.0017(6) 0.0094(6) -0.0028(6)
C7 0.0182(6) 0.0325(8) 0.0185(6) -0.0001(6) 0.0062(5) -0.0006(6)
C8 0.034(3) 0.034(2) 0.0244(8) 0.006(2) 0.0007(11) -0.0152(9)
C9 0.057(4) 0.047(3) 0.0479(14) -0.013(2) -0.016(3) -0.001(2)
C8A 0.034(3) 0.034(2) 0.0244(8) 0.006(2) 0.0007(11) -0.0152(9)
C9A 0.057(4) 0.047(3) 0.0479(14) -0.013(2) -0.016(3) -0.001(2)
C10 0.0157(6) 0.0288(7) 0.0149(6) 0.0001(5) 0.0037(5) 0.0001(5)
C11 0.0190(6) 0.0261(7) 0.0198(6) 0.0005(5) 0.0046(5) 0.0000(5)
C12 0.0190(7) 0.0310(8) 0.0228(7) -0.0046(6) 0.0040(5) 0.0004(6)
C13 0.0149(6) 0.0368(8) 0.0179(6) 0.0001(6) 0.0038(5) 0.0009(6)
C14 0.0204(7) 0.0296(8) 0.0276(7) 0.0037(6) 0.0042(5) -0.0022(6)
C15 0.0191(7) 0.0265(7) 0.0277(7) -0.0015(6) 0.0041(5) -0.0026(6)
C16 0.0171(6) 0.0205(7) 0.0194(6) -0.0012(5) 0.0035(5) 0.0018(5)
C17 0.0181(6) 0.0218(7) 0.0200(7) -0.0016(5) 0.0032(5) 0.0020(5)
C18 0.0210(7) 0.0222(7) 0.0207(7) -0.0012(6) 0.0029(5) 0.0019(5)
C19 0.0287(7) 0.0246(7) 0.0194(7) -0.0010(6) 0.0057(5) -0.0013(6)
C20 0.0269(7) 0.0347(8) 0.0237(7) -0.0028(6) 0.0036(6) -0.0027(6)
C21 0.0357(8) 0.0444(10) 0.0213(7) -0.0037(8) 0.0019(6) -0.0030(7)
C22 0.0452(9) 0.0420(10) 0.0214(7) 0.0009(8) 0.0091(7) -0.0058(7)
C23 0.0385(9) 0.0406(9) 0.0287(8) 0.0103(7) 0.0115(7) -0.0035(7)
C24 0.0333(8) 0.0337(8) 0.0240(7) 0.0079(7) 0.0059(6) -0.0004(6)
loop_
_atom_type_symbol
_atom_type_description
_atom_type_scat_dispersion_real
_atom_type_scat_dispersion_imag
_atom_type_scat_source
C C 0.0181 0.0091 'International Tables Vol C Tables 4.2.6.8 and 6.1.1.4'
H H 0.0000 0.0000 'International Tables Vol C Tables 4.2.6.8 and 6.1.1.4'
N N 0.0311 0.0180 'International Tables Vol C Tables 4.2.6.8 and 6.1.1.4'
O O 0.0492 0.0322 'International Tables Vol C Tables 4.2.6.8 and 6.1.1.4'
S S 0.3331 0.5567 'International Tables Vol C Tables 4.2.6.8 and 6.1.1.4'
Cl Cl 0.3639 0.7018 'International Tables Vol C Tables 4.2.6.8 and 6.1.1.4'
loop_
_geom_angle_atom_site_label_1
_geom_angle_atom_site_label_2
_geom_angle_atom_site_label_3
_geom_angle
C17 S1 C5 89.68(7)
C7 O3 C8A 113.2(5)
C7 O3 C8 121.2(3)
C5 N1 C1 116.19(12)
N3 N2 C16 119.25(12)
N2 N3 N4 121.09(11)
N3 N4 C18 125.22(11)
N3 N4 C19 112.15(11)
C18 N4 C19 122.62(11)
N1 C1 C2 122.24(12)
N1 C1 C6 116.39(12)
C2 C1 C6 121.32(13)
C3 C2 C1 121.26(13)
C3 C2 C7 120.95(12)
C1 C2 C7 117.78(12)
C2 C3 C4 116.48(12)
C2 C3 C10 121.63(12)
C4 C3 C10 121.84(12)
C5 C4 C3 117.45(12)
C5 C4 C16 110.11(12)
C3 C4 C16 132.44(12)
N1 C5 C4 126.30(13)
N1 C5 S1 120.24(10)
C4 C5 S1 113.45(10)
C1 C6 H6A 109.5
C1 C6 H6B 109.5
H6A C6 H6B 109.5
C1 C6 H6C 109.5
H6A C6 H6C 109.5
H6B C6 H6C 109.5
O2 C7 O3 125.50(14)
O2 C7 C2 124.66(14)
O3 C7 C2 109.83(12)
C9 C8 O3 109.1(5)
C9 C8 H8A 109.9
O3 C8 H8A 109.9
C9 C8 H8B 109.9
O3 C8 H8B 109.9
H8A C8 H8B 108.3
C8 C9 H9A 109.5
C8 C9 H9B 109.5
H9A C9 H9B 109.5
C8 C9 H9C 109.5
H9A C9 H9C 109.5
H9B C9 H9C 109.5
C9A C8A O3 109.4(7)
C9A C8A H8C 109.8
O3 C8A H8C 109.8
C9A C8A H8D 109.8
O3 C8A H8D 109.8
H8C C8A H8D 108.2
C8A C9A H9D 109.5
C8A C9A H9E 109.5
H9D C9A H9E 109.5
C8A C9A H9F 109.5
H9D C9A H9F 109.5
H9E C9A H9F 109.5
C11 C10 C15 119.49(12)
C11 C10 C3 121.48(13)
C15 C10 C3 119.03(13)
C10 C11 C12 120.44(13)
C10 C11 H11 119.8
C12 C11 H11 119.8
C13 C12 C11 118.95(13)
C13 C12 H12 120.5
C11 C12 H12 120.5
C12 C13 C14 121.68(13)
C12 C13 Cl1 119.16(11)
C14 C13 Cl1 119.16(11)
C13 C14 C15 118.82(14)
C13 C14 H14 120.6
C15 C14 H14 120.6
C14 C15 C10 120.60(14)
C14 C15 H15 119.7
C10 C15 H15 119.7
C17 C16 N2 121.72(13)
C17 C16 C4 112.46(12)
N2 C16 C4 125.74(12)
C16 C17 C18 121.52(12)
C16 C17 S1 114.25(11)
C18 C17 S1 124.22(10)
O1 C18 N4 123.25(13)
O1 C18 C17 126.09(13)
N4 C18 C17 110.66(12)
C24 C19 C20 120.75(13)
C24 C19 N4 118.50(13)
C20 C19 N4 120.60(13)
C21 C20 C19 118.92(14)
C21 C20 H20 120.5
C19 C20 H20 120.5
C22 C21 C20 120.86(15)
C22 C21 H21 119.6
C20 C21 H21 119.6
C23 C22 C21 119.44(15)
C23 C22 H22 120.3
C21 C22 H22 120.3
C22 C23 C24 120.78(15)
C22 C23 H23 119.6
C24 C23 H23 119.6
C23 C24 C19 119.23(15)
C23 C24 H24 120.4
C19 C24 H24 120.4
loop_
_geom_bond_atom_site_label_1
_geom_bond_atom_site_label_2
_geom_bond_distance
Cl1 C13 1.7433(14)
S1 C17 1.7222(14)
S1 C5 1.7511(14)
O1 C18 1.2196(17)
O2 C7 1.1989(18)
O3 C7 1.3284(19)
O3 C8A 1.473(3)
O3 C8 1.473(3)
N1 C5 1.3320(18)
N1 C1 1.3355(18)
N2 N3 1.2771(17)
N2 C16 1.3792(17)
N3 N4 1.3792(16)
N4 C18 1.4140(18)
N4 C19 1.4470(17)
C1 C2 1.4131(18)
C1 C6 1.5028(18)
C2 C3 1.3902(18)
C2 C7 1.5035(19)
C3 C4 1.4094(19)
C3 C10 1.4914(18)
C4 C5 1.4040(18)
C4 C16 1.4399(18)
C6 H6A 0.9800
C6 H6B 0.9800
C6 H6C 0.9800
C8 C9 1.436(3)
C8 H8A 0.9900
C8 H8B 0.9900
C9 H9A 0.9800
C9 H9B 0.9800
C9 H9C 0.9800
C8A C9A 1.436(4)
C8A H8C 0.9900
C8A H8D 0.9900
C9A H9D 0.9800
C9A H9E 0.9800
C9A H9F 0.9800
C10 C11 1.389(2)
C10 C15 1.393(2)
C11 C12 1.3939(19)
C11 H11 0.9500
C12 C13 1.380(2)
C12 H12 0.9500
C13 C14 1.386(2)
C14 C15 1.388(2)
C14 H14 0.9500
C15 H15 0.9500
C16 C17 1.3760(19)
C17 C18 1.4360(19)
C19 C24 1.388(2)
C19 C20 1.392(2)
C20 C21 1.389(2)
C20 H20 0.9500
C21 C22 1.384(2)
C21 H21 0.9500
C22 C23 1.384(2)
C22 H22 0.9500
C23 C24 1.387(2)
C23 H23 0.9500
C24 H24 0.9500
loop_
_geom_hbond_atom_site_label_D
_geom_hbond_atom_site_label_H
_geom_hbond_atom_site_label_A
_geom_hbond_site_symmetry_A
_geom_hbond_distance_DH
_geom_hbond_distance_HA
_geom_hbond_distance_DA
_geom_hbond_angle_DHA
C8 H8A O2 2_556 0.99 2.42 3.339(7) 154
loop_
_geom_torsion_atom_site_label_1
_geom_torsion_atom_site_label_2
_geom_torsion_atom_site_label_3
_geom_torsion_atom_site_label_4
_geom_torsion
C16 N2 N3 N4 -3.7(2)
N2 N3 N4 C18 0.0(2)
N2 N3 N4 C19 179.04(13)
C5 N1 C1 C2 -0.5(2)
C5 N1 C1 C6 -177.96(13)
N1 C1 C2 C3 -1.6(2)
C6 C1 C2 C3 175.69(14)
N1 C1 C2 C7 179.53(13)
C6 C1 C2 C7 -3.1(2)
C1 C2 C3 C4 3.2(2)
C7 C2 C3 C4 -178.00(13)
C1 C2 C3 C10 -174.38(13)
C7 C2 C3 C10 4.4(2)
C2 C3 C4 C5 -2.70(19)
C10 C3 C4 C5 174.87(12)
C2 C3 C4 C16 177.08(14)
C10 C3 C4 C16 -5.3(2)
C1 N1 C5 C4 1.0(2)
C1 N1 C5 S1 179.90(10)
C3 C4 C5 N1 0.7(2)
C16 C4 C5 N1 -179.14(13)
C3 C4 C5 S1 -178.30(10)
C16 C4 C5 S1 1.87(15)
C17 S1 C5 N1 -179.80(12)
C17 S1 C5 C4 -0.75(11)
C8A O3 C7 O2 2.9(6)
C8 O3 C7 O2 -8.4(4)
C8A O3 C7 C2 -178.4(5)
C8 O3 C7 C2 170.3(4)
C3 C2 C7 O2 -85.10(19)
C1 C2 C7 O2 93.74(18)
C3 C2 C7 O3 96.17(16)
C1 C2 C7 O3 -84.98(16)
C7 O3 C8 C9 150.7(4)
C7 O3 C8A C9A 138.1(7)
C2 C3 C10 C11 -66.39(18)
C4 C3 C10 C11 116.16(15)
C2 C3 C10 C15 113.26(16)
C4 C3 C10 C15 -64.19(18)
C15 C10 C11 C12 0.6(2)
C3 C10 C11 C12 -179.78(12)
C10 C11 C12 C13 -0.9(2)
C11 C12 C13 C14 0.0(2)
C11 C12 C13 Cl1 179.67(10)
C12 C13 C14 C15 1.2(2)
Cl1 C13 C14 C15 -178.50(11)
C13 C14 C15 C10 -1.5(2)
C11 C10 C15 C14 0.6(2)
C3 C10 C15 C14 -179.04(13)
N3 N2 C16 C17 1.0(2)
N3 N2 C16 C4 -175.58(13)
C5 C4 C16 C17 -2.35(17)
C3 C4 C16 C17 177.86(15)
C5 C4 C16 N2 174.47(13)
C3 C4 C16 N2 -5.3(2)
N2 C16 C17 C18 5.6(2)
C4 C16 C17 C18 -177.44(13)
N2 C16 C17 S1 -175.10(11)
C4 C16 C17 S1 1.87(16)
C5 S1 C17 C16 -0.66(12)
C5 S1 C17 C18 178.62(13)
N3 N4 C18 O1 -174.77(14)
C19 N4 C18 O1 6.3(2)
N3 N4 C18 C17 5.79(19)
C19 N4 C18 C17 -173.12(13)
C16 C17 C18 O1 172.31(14)
S1 C17 C18 O1 -6.9(2)
C16 C17 C18 N4 -8.27(19)
S1 C17 C18 N4 172.50(10)
N3 N4 C19 C24 28.53(19)
C18 N4 C19 C24 -152.44(14)
N3 N4 C19 C20 -147.19(14)
C18 N4 C19 C20 31.8(2)
C24 C19 C20 C21 -0.5(2)
N4 C19 C20 C21 175.14(15)
C19 C20 C21 C22 -0.7(3)
C20 C21 C22 C23 0.8(3)
C21 C22 C23 C24 0.4(3)
C22 C23 C24 C19 -1.6(3)
C20 C19 C24 C23 1.6(2)
N4 C19 C24 C23 -174.09(15)

_cod_database_fobs_code 1543256
