#------------------------------------------------------------------------------
#$Date: 2016-04-06 04:58:46 +0300 (Wed, 06 Apr 2016) $
#$Revision: 181833 $
#$URL: svn://www.crystallography.net/cod/cif/1/54/30/1543040.cif $
#------------------------------------------------------------------------------
#
# This file is available in the Crystallography Open Database (COD),
# http://www.crystallography.net/
#
# All data on this site have been placed in the public domain by the
# contributors.
#
data_1543040
loop_
_publ_author_name
'Mague, Joel T.'
'Mohamed, Shaaban K.'
'Akkurt, Mehmet'
'Ahmed, Gamal A.-W.'
'Albayati, Mustafa R.'
_publ_section_title
;
 5-Acetyl-2-{[(1<i>H</i>-benzimidazol-2-yl)methyl]sulfanyl}-4-(4-methoxyphenyl)-6-methylpyridine-3-carbonitrile
;
_journal_coeditor_code           SJ4017
_journal_issue                   4
_journal_name_full               IUCrData
_journal_page_first              x160492
_journal_paper_doi               10.1107/S2414314616004922
_journal_volume                  1
_journal_year                    2016
_chemical_formula_iupac          'C24 H20 N4 O2 S'
_chemical_formula_moiety         'C24 H20 N4 O2 S'
_chemical_formula_sum            'C24 H20 N4 O2 S'
_chemical_formula_weight         428.50
_chemical_name_systematic
5-Acetyl-2-{[(1<i>H</i>-benzimidazol-2-yl)methyl]sulfanyl}-4-(4-methoxyphenyl)-6-methylpyridine-3-carbonitrile
_space_group_crystal_system      orthorhombic
_space_group_IT_number           61
_space_group_name_Hall           '-P 2ac 2ab'
_space_group_name_H-M_alt        'P b c a'
_symmetry_space_group_name_Hall  '-P 2ac 2ab'
_symmetry_space_group_name_H-M   'P b c a'
_atom_sites_solution_hydrogens   mixed
_atom_sites_solution_primary     direct
_atom_sites_solution_secondary   difmap
_audit_creation_method           SHELXL-2014/7
_cell_angle_alpha                90
_cell_angle_beta                 90
_cell_angle_gamma                90
_cell_formula_units_Z            8
_cell_length_a                   9.8513(2)
_cell_length_b                   15.0619(2)
_cell_length_c                   28.9310(4)
_cell_measurement_reflns_used    9822
_cell_measurement_temperature    150(2)
_cell_measurement_theta_max      74.3854
_cell_measurement_theta_min      4.2375
_cell_volume                     4292.76(12)
_computing_cell_refinement
;
<i>SAINT</i> (Bruker, 2015)
;
_computing_data_collection
;
<i>APEX2</i> (Bruker, 2015)
;
_computing_data_reduction
;
<i>SAINT</i>  (Bruker, 2015)
;
_computing_molecular_graphics
;
<i>DIAMOND</i> (Brandenburg & Putz, 2012)
;
_computing_publication_material
;
<i>SHELXTL</i> (Sheldrick, 2008)
;
_computing_structure_refinement
;
<i>SHELXL</i> (Sheldrick, 2015b)
;
_computing_structure_solution
;
<i>SHELXT</i> (Sheldrick, 2015a)
;
_diffrn_ambient_temperature      150(2)
_diffrn_detector_area_resol_mean 10.4167
_diffrn_measured_fraction_theta_full 0.992
_diffrn_measured_fraction_theta_max 0.975
_diffrn_measurement_device_type  'Bruker D8 VENTURE PHOTON 100 CMOS'
_diffrn_measurement_method       '\w scans'
_diffrn_radiation_monochromator  mirror
_diffrn_radiation_type           CuK\a
_diffrn_radiation_wavelength     1.54178
_diffrn_reflns_av_R_equivalents  0.0373
_diffrn_reflns_limit_h_max       11
_diffrn_reflns_limit_h_min       -11
_diffrn_reflns_limit_k_max       15
_diffrn_reflns_limit_k_min       -17
_diffrn_reflns_limit_l_max       36
_diffrn_reflns_limit_l_min       -36
_diffrn_reflns_number            31421
_diffrn_reflns_theta_full        70.000
_diffrn_reflns_theta_max         74.535
_diffrn_reflns_theta_min         3.055
_exptl_absorpt_coefficient_mu    1.573
_exptl_absorpt_correction_T_max  0.92
_exptl_absorpt_correction_T_min  0.79
_exptl_absorpt_correction_type   multi-scan
_exptl_absorpt_process_details
;
(<i>SADABS</i>; Bruker, 2015)
;
_exptl_crystal_colour            colourless
_exptl_crystal_density_diffrn    1.326
_exptl_crystal_density_method    'not measured'
_exptl_crystal_description       plate
_exptl_crystal_F_000             1792
_exptl_crystal_size_max          0.243
_exptl_crystal_size_mid          0.145
_exptl_crystal_size_min          0.056
_refine_diff_density_max         0.222
_refine_diff_density_min         -0.400
_refine_ls_extinction_coef       0.00051(6)
_refine_ls_extinction_expression Fc^*^=kFc[1+0.001xFc^2^\l^3^/sin(2\q)]^-1/4^
_refine_ls_extinction_method
;
SHELXL2014 (Sheldrick 2015b)
;
_refine_ls_goodness_of_fit_ref   1.023
_refine_ls_hydrogen_treatment    mixed
_refine_ls_matrix_type           full
_refine_ls_number_parameters     288
_refine_ls_number_reflns         4292
_refine_ls_number_restraints     0
_refine_ls_restrained_S_all      1.023
_refine_ls_R_factor_all          0.0393
_refine_ls_R_factor_gt           0.0339
_refine_ls_shift/su_max          0.001
_refine_ls_shift/su_mean         0.000
_refine_ls_structure_factor_coef Fsqd
_refine_ls_weighting_details
'w=1/[\s^2^(Fo^2^)+(0.0459P)^2^+1.5046P] where P=(Fo^2^+2Fc^2^)/3'
_refine_ls_weighting_scheme      calc
_refine_ls_wR_factor_gt          0.0869
_refine_ls_wR_factor_ref         0.0909
_reflns_number_gt                3787
_reflns_number_total             4292
_reflns_threshold_expression     'I > 2\s(I)'
_cod_data_source_file            sj4017sup1.cif
_cod_data_source_block           I
_cod_database_code               1543040
_shelx_space_group_comment
;
The symmetry employed for this shelxl refinement is uniquely defined
by the following loop, which should always be used as a source of
symmetry information in preference to the above space-group names.
They are only intended as comments.
;
_shelx_estimated_absorpt_t_min   0.701
_shelx_estimated_absorpt_t_max   0.917
_shelx_hkl_file
;
   1   0   0  -10.20    0.10
  -1   0   0  -10.00    0.10
  -2   0   0 6996.10  216.88
   2   0   0 6705.33  216.88
   3   0   0   -0.20    0.30
  -3   0   0    0.50    0.30
   4   0   0  650.13   22.20
   4   0   0  693.53   22.40
  -4   0   0  738.93   22.40
  -5   0   0   -1.30    1.00
   5   0   0   -1.00    0.80
   5   0   0   -0.70    0.60
   6   0   0   21.20    1.40
   7   0   0    1.10    0.80
   8   0   0  149.69    5.60
   9   0   0   -0.20    0.80
  10   0   0  102.29    4.10
 -10   0   0  103.99    4.10
  11   0   0   -0.80    0.80
   0   1   0  -12.30    0.10
  -1  -1   0   -2.00    0.10
  -1   1   0   -2.00    0.10
   1   1   0   -2.10    0.10
   2   1   0  582.14   19.70
  -2  -1   0  622.04   19.80
   2  -1   0  625.94   19.60
  -2   1   0  643.34   19.70
  -3  -1   0   -0.50    0.40
   3  -1   0    0.00    0.30
  -3   1   0    0.10    0.30
   3   1   0   -0.30    0.30
   4  -1   0 1070.49   33.40
  -4   1   0 1066.09   33.40
   4   1   0 1062.49   33.50
   4   1   0 1000.50   33.30
  -4  -1   0 1050.09   33.50
   4  -1   0 1025.90   33.30
   5   1   0    1.10    0.90
  -5   1   0    0.50    0.90
   5  -1   0    0.00    0.80
   5   1   0    0.30    0.70
   5  -1   0    0.20    0.60
   6   1   0    5.30    1.80
   6   1   0    4.60    1.10
   6  -1   0    6.30    1.00
   7   1   0   -0.80    0.70
   7  -1   0   -0.30    0.70
  -7  -1   0    0.80    1.60
   7  -1   0   -0.70    1.30
   8  -1   0   69.49    3.00
  -8  -1   0   60.59    3.50
   8   1   0   72.29    3.10
   9  -1   0    0.90    0.80
   9   1   0    1.00    0.90
  -9  -1   0    1.00    1.20
  10   1   0    5.50    1.40
  10  -1   0    5.40    1.30
 -10   1   0    4.90    1.10
  11   1   0    0.20    0.90
 -11   1   0   -2.00    1.00
  11  -1   0    0.70    0.80
   0   2   0 8244.17  260.77
   1  -2   0    0.10    0.10
   1   2   0    0.20    0.20
  -1   2   0    0.40    0.10
   2   2   0 1340.17   44.00
  -2   2   0 1433.96   43.80
  -2  -2   0 1388.46   44.00
   2  -2   0 1375.46   43.80
   3   2   0   -1.50    0.40
  -3   2   0   -1.80    0.30
   3  -2   0   -1.70    0.30
   4   2   0    3.30    1.10
   4  -2   0    1.90    0.70
  -4   2   0    1.70    0.60
   4  -2   0    2.60    0.80
   4   2   0    3.00    1.00
   5   2   0   -1.20    0.60
   5   2   0    1.40    1.00
   5  -2   0    0.90    0.60
   5  -2   0    0.50    0.80
   6   2   0  317.07   10.20
   6   2   0  292.97   11.10
   6  -2   0  289.37   10.40
   6  -2   0  303.17   10.10
  -7  -2   0    1.30    1.40
   7  -2   0    0.90    1.30
   7  -2   0   -0.20    0.70
   7   2   0   -0.90    0.70
  -8  -2   0  372.56   13.30
   8   2   0  410.56   13.30
  -8  -2   0  380.06   13.20
   8  -2   0  415.86   13.30
  -9  -2   0    1.10    1.40
   9   2   0    0.10    0.80
   9  -2   0    0.10    0.80
  10  -2   0    3.10    0.90
  10   2   0    4.60    1.10
  11   2   0   -2.10    0.90
  11  -2   0   -1.30    0.80
 -11   2   0   -0.60    0.80
   0   3   0    0.20    0.30
  -1   3   0    0.10    0.20
   1   3   0   -0.40    0.30
   1  -3   0    0.40    0.20
   2   3   0 2456.75   82.69
  -2   3   0 2802.52   83.09
   2  -3   0 2579.44   82.89
   3  -3   0    0.40    0.30
   3   3   0    0.00    0.50
  -3   3   0    0.20    0.40
   4   3   0  680.63   21.90
   4  -3   0  700.13   21.80
   4  -3   0  707.93   21.80
  -4   3   0  731.43   21.80
   4   3   0  575.54   22.60
   5  -3   0    0.40    0.60
   5   3   0    0.80    0.80
  -5   3   0   -0.50    0.90
   5   3   0    0.30    1.10
   5  -3   0    0.50    0.80
   6   3   0    9.30    1.20
   6   3   0    5.90    2.50
  -6  -3   0    8.80    2.10
   6  -3   0    6.70    1.00
   6  -3   0    9.80    2.10
   7  -3   0    1.40    0.70
   7  -3   0    1.10    1.30
  -7  -3   0   -1.20    1.10
   7  -3   0    1.30    1.40
   7   3   0   -0.20    0.80
   8  -3   0   46.20    2.30
   8  -3   0   41.40    3.00
   8  -3   0   43.70    2.70
   8   3   0   47.80    2.40
  -8  -3   0   41.00    2.70
   9   3   0    1.60    0.90
  -9  -3   0    0.80    1.20
   9  -3   0   -0.80    0.70
  10   3   0    2.00    1.00
  10  -3   0    2.00    0.90
 -10  -3   0    2.60    1.40
  11   3   0    0.90    1.00
 -11   3   0   -0.10    0.70
  11  -3   0   -0.20    0.80
   0   4   0  232.98    7.80
  -1   4   0    0.00    0.30
   1   4   0    0.00    0.30
   1   4   0   -0.30    0.40
   2   4   0   19.90    1.30
  -2   4   0   20.40    1.10
   2  -4   0   21.30    1.10
   3   4   0   -0.50    0.60
   3  -4   0    0.50    0.40
   3  -4   0    0.70    0.60
  -3   4   0   -0.10    0.40
   4  -4   0  670.73   21.70
   4   4   0  643.84   21.70
   4   4   0  706.13   22.30
  -4   4   0  688.93   21.70
   4  -4   0  665.73   21.60
   5  -4   0   -0.30    0.60
   5   4   0    0.30    0.70
   5   4   0   -0.60    1.40
   6   4   0 1032.70   32.20
   6  -4   0 1010.30   32.40
   6  -4   0  970.00   32.20
  -6  -4   0  995.70   32.20
   6  -4   0  997.30   32.10
   7  -4   0   -1.20    1.10
   7  -4   0    2.20    1.20
   7  -4   0   -0.30    0.70
   7   4   0   -0.80    0.90
  -7  -4   0    0.30    1.00
   8  -4   0  498.25   15.70
   8  -4   0  464.35   15.80
  -8  -4   0  457.95   15.70
   8   4   0  480.45   15.80
   8  -4   0  456.45   15.60
   9  -4   0    0.00    0.80
  -9  -4   0   -0.50    1.10
   9  -4   0    0.20    1.50
   9   4   0   -0.40    0.90
 -10  -4   0   55.69    2.80
  10  -4   0   55.19    2.60
  10   4   0   55.89    2.70
  11   4   0    1.80    1.10
  11  -4   0   -0.40    0.80
 -11   4   0   -0.70    0.70
   0   5   0   -0.60    0.40
   1   5   0    0.20    0.40
   1   5   0   -0.30    0.50
  -1   5   0    0.30    0.40
   2   5   0  866.81   28.60
  -2   5   0  906.31   28.40
   3  -5   0    0.20    0.60
  -3   5   0    0.40    0.60
   3   5   0   -0.60    0.80
   3  -5   0    0.20    0.50
   4  -5   0  194.18    6.40
  -4   5   0  182.48    6.50
   4   5   0  185.08    7.10
   4  -5   0  180.98    6.40
   5   5   0   -0.90    1.90
   5   5   0   -0.50    0.70
   5  -5   0    1.60    1.40
   5  -5   0   -0.30    0.60
   6  -5   0    4.10    1.10
   6   5   0    4.50    1.00
  -6  -5   0    5.70    1.50
   6  -5   0    5.10    1.20
  -6  -5   0    7.50    1.60
   6  -5   0    4.40    1.20
   7  -5   0    0.40    1.00
   7  -5   0    0.00    0.80
  -7  -5   0   -0.60    1.00
   7   5   0    0.20    0.90
   7  -5   0    0.20    1.20
  -7  -5   0    1.60    1.60
   8  -5   0    0.10    1.10
   8  -5   0    2.90    1.20
  -8  -5   0   -1.40    1.00
   8  -5   0    1.40    1.10
   8   5   0   -0.90    0.90
   9  -5   0   -1.00    1.10
   9   5   0    1.00    1.00
   9  -5   0    0.70    0.80
  -9  -5   0    0.70    1.00
  10  -5   0   13.90    1.40
 -10  -5   0   10.30    1.60
  10   5   0   13.00    1.70
 -11   5   0    0.20    0.60
  11  -5   0   -0.20    0.80
  11   5   0   -1.10    1.40
   0   6   0    6.10    1.10
   0   6   0    8.50    1.30
  -1   6   0    1.00    0.60
   1   6   0    0.40    0.80
   1   6   0   -0.70    0.60
  -2   6   0   23.00    1.60
   2   6   0   20.80    2.40
  -2  -6   0   19.60    1.50
   2   6   0   21.40    1.70
   2  -6   0   18.60    1.30
   3   6   0    1.60    1.10
  -3   6   0    0.90    0.90
   3  -6   0    0.50    0.60
   4  -6   0    1.70    0.60
   4   6   0    3.50    1.70
  -5  -6   0    0.60    1.20
   5  -6   0   -1.50    1.30
   5  -6   0    0.20    0.70
   5  -6   0   -0.50    1.10
  -5  -6   0    0.00    1.00
   5   6   0   -1.10    0.80
   6  -6   0    7.60    1.10
   6  -6   0    7.20    1.70
   6  -6   0   10.30    2.00
  -6  -6   0    7.10    1.40
  -6  -6   0    6.70    1.60
   6   6   0    7.80    1.40
  -7  -6   0    0.80    1.00
   7  -6   0   -1.40    1.10
   7  -6   0   -0.40    0.80
   7   6   0    0.80    1.00
   7  -6   0    0.10    0.90
   8   6   0  104.09    4.40
   8  -6   0  108.89    4.30
   8  -6   0  110.99    4.60
  -8  -6   0  105.99    4.30
  -8  -6   0  104.59    4.50
   8  -6   0  105.09    4.30
   9  -6   0    0.10    0.80
   9  -6   0   -0.80    1.00
   9   6   0   -0.90    1.00
  -9  -6   0   -1.10    0.90
  10   6   0  199.68    7.10
  10  -6   0  195.48    7.00
 -10  -6   0  197.38    6.80
  11  -6   0   -0.60    0.90
 -11   6   0   -0.30    0.60
   0  -7   0    0.90    0.70
   0   7   0   -0.20    0.90
   0   7   0    1.00    0.80
   1   7   0    1.70    1.10
   1   7   0   -0.30    0.70
   1  -7   0    0.40    0.70
  -1  -7   0   -0.40    0.80
  -1   7   0   -0.30    1.00
  -2   7   0   -0.10    1.00
   2   7   0    3.10    1.10
  -2  -7   0    2.80    0.90
   2  -7   0    4.20    1.00
  -3   7   0    0.70    1.20
   3  -7   0    1.50    0.70
  -3  -7   0   -0.10    0.80
   3   7   0    0.40    1.30
  -4  -7   0  542.35   17.60
   4  -7   0  522.55   17.50
   4  -7   0  556.94   17.40
   4  -7   0  528.95   17.70
  -4  -7   0  520.55   17.50
   5   7   0    1.90    0.90
  -5  -7   0    0.50    1.10
  -5  -7   0    0.70    0.90
   5  -7   0    0.10    0.70
   5  -7   0   -0.80    1.30
   5  -7   0   -0.80    1.00
  -6  -7   0  149.79    5.70
   6  -7   0  153.48    5.70
   6   7   0  162.58    5.90
   6  -7   0  154.18    6.00
   6  -7   0  152.08    5.60
  -6  -7   0  156.18    5.80
  -7  -7   0    0.10    1.00
   7   7   0    0.60    1.00
   7  -7   0   -0.20    0.80
   7  -7   0    0.00    1.00
  -7  -7   0    0.90    1.20
   7  -7   0   -0.40    1.00
   8  -7   0  310.47   10.50
   8  -7   0  274.97   10.20
   8   7   0  287.87   10.30
  -8  -7   0  310.17   10.30
   8  -7   0  308.57   10.20
  -8  -7   0  297.27   10.30
   9  -7   0   -0.20    0.80
   9   7   0    1.50    1.10
   9  -7   0    0.50    0.90
  10  -7   0   10.70    1.70
  10   7   0   13.50    2.10
  10  -7   0   13.40    1.50
 -10  -7   0   14.20    1.30
 -11   7   0    0.10    0.50
   0  -8   0  305.07   10.20
   0   8   0  324.77   11.00
   0   8   0  302.07   11.10
  -1   8   0    1.20    1.10
  -1   8   0   -1.20    1.50
  -1  -8   0   -0.60    0.80
   1  -8   0    1.60    0.70
   1   8   0    1.50    1.20
   2  -8   0   14.80    1.20
  -2  -8   0   17.80    1.50
  -2   8   0   13.80    2.30
   2   8   0   14.70    2.80
  -2   8   0   15.40    2.90
  -3   8   0   -2.00    1.70
  -3  -8   0   -1.60    1.20
  -3  -8   0   -0.10    0.90
   3  -8   0    2.10    1.10
   3  -8   0   -0.30    1.10
  -3  -8   0   -0.50    1.00
  -4  -8   0  164.48    5.90
  -4  -8   0  158.28    5.90
   4  -8   0  158.08    6.20
   4  -8   0  163.88    5.70
   4  -8   0  158.98    5.90
  -5  -8   0    0.40    1.00
   5  -8   0   -0.20    1.20
   5  -8   0   -1.20    0.90
   5  -8   0    0.50    0.80
   5   8   0   -0.90    0.90
  -5  -8   0   -0.70    0.90
   6  -8   0    3.20    0.90
   6   8   0    1.40    1.10
   6  -8   0    2.10    1.20
  -6  -8   0    0.10    1.00
   6  -8   0    0.80    1.00
  -6  -8   0    0.70    0.90
   7  -8   0   -2.50    1.00
  -7  -8   0   -0.70    1.10
   7  -8   0    1.10    0.90
  -7  -8   0    0.40    0.90
   7  -8   0    0.00    1.10
   7   8   0    1.80    1.40
  -8  -8   0   90.39    3.70
   8   8   0   82.59    3.80
   8  -8   0   82.29    3.70
  -8  -8   0   89.39    3.80
   8  -8   0   90.79    3.90
   8  -8   0   90.09    3.70
   9   8   0   -0.40    1.20
   9  -8   0   -0.60    0.80
   9  -8   0    0.10    0.80
  -9  -8   0   -0.20    0.70
 -10  -8   0    9.40    1.20
  10  -8   0    9.20    1.40
  10  -8   0   12.00    1.40
 -11   8   0   -0.90    0.50
   0  -9   0    1.40    0.80
   0   9   0   -0.70    1.50
   1   9   0    3.50    1.60
  -1  -9   0    0.90    0.90
  -1   9   0   -0.90    1.60
   1  -9   0   -0.40    0.70
  -2   9   0   49.40    4.10
  -2  -9   0   54.49    2.50
  -2  -9   0   47.70    2.90
   2  -9   0   58.39    3.40
   2  -9   0   51.89    2.30
  -2  -9   0   52.49    2.70
   3  -9   0    0.00    1.20
  -3  -9   0    2.60    1.00
   3  -9   0   -0.60    1.60
  -3  -9   0    0.60    1.10
  -3  -9   0   -0.30    1.00
   3  -9   0   -0.30    0.70
   4  -9   0   81.79    4.10
   4  -9   0   91.79    3.60
  -4  -9   0   89.79    3.70
  -4  -9   0   95.29    3.80
   4  -9   0   90.89    3.80
   5   9   0    1.10    1.10
   5  -9   0    0.90    0.90
   5  -9   0    0.50    0.90
  -5  -9   0    1.80    1.10
   6  -9   0   67.49    3.50
  -6  -9   0   72.19    3.20
   6   9   0   78.89    3.50
   6  -9   0   72.99    3.20
   6  -9   0   70.99    3.20
  -6  -9   0   64.99    3.20
  -7  -9   0   -1.40    1.00
  -7  -9   0   -0.30    0.80
   7  -9   0    1.10    0.90
   7  -9   0   -0.10    0.90
   7   9   0   -2.20    1.10
   7  -9   0   -1.10    1.00
   8  -9   0  131.29    4.90
   8  -9   0  122.39    4.90
   8   9   0  118.29    5.10
   8  -9   0  130.99    5.10
  -8  -9   0  131.29    4.90
  -8  -9   0  140.49    5.30
   9  -9   0   -0.60    0.90
   9  -9   0    0.00    0.70
  -9  -9   0    1.00    0.70
   9   9   0   -0.60    1.50
  -9  -9   0   -0.90    1.20
  10  -9   0    1.00    0.90
 -10  -9   0    0.80    0.60
  10  -9   0    1.50    0.70
   0 -10   0  115.89    4.20
   0 -10   0  106.59    4.60
  -1 -10   0    0.70    1.20
   1 -10   0   -0.40    0.80
   1 -10   0   -1.60    1.60
  -1 -10   0    0.50    0.90
  -1 -10   0    0.80    1.50
  -2 -10   0   11.30    1.90
   2 -10   0    8.20    2.10
  -2 -10   0    7.30    1.60
  -2 -10   0    9.30    1.50
   2 -10   0   11.80    1.30
   2 -10   0   10.20    1.50
   3 -10   0    0.50    0.80
  -3 -10   0   -0.40    0.90
  -3 -10   0   -0.70    1.00
   3 -10   0   -1.90    1.10
   3 -10   0   -1.00    1.60
   4 -10   0  139.29    5.40
   4 -10   0  138.99    5.00
  -4 -10   0  118.99    5.70
   5  10   0    1.40    1.20
  -5 -10   0   -0.60    0.90
  -5 -10   0    0.50    0.90
   5 -10   0   -0.40    0.80
   5 -10   0    0.60    0.90
   5 -10   0   -0.60    1.30
  -6 -10   0    8.00    1.50
   6 -10   0   10.90    1.50
   6  10   0    8.40    1.60
   6 -10   0    9.10    1.40
  -6 -10   0    8.60    1.60
   6 -10   0   10.10    1.90
  -7 -10   0    1.80    0.90
   7 -10   0   -0.50    0.80
   7  10   0    0.40    1.30
   7 -10   0   -1.00    1.00
  -7 -10   0    0.60    0.90
   7 -10   0   -1.10    0.70
  -8 -10   0    1.10    0.70
   8 -10   0    0.90    0.70
   8 -10   0    2.20    0.90
  -8 -10   0   -0.20    0.80
   8  10   0    0.20    1.40
   8 -10   0    1.70    0.90
  -9 -10   0    0.20    0.60
  -9 -10   0   -1.20    1.00
   9 -10   0    0.40    0.90
   9 -10   0    0.40    0.60
  10 -10   0   12.00    1.10
 -10 -10   0   13.70    1.10
   0 -11   0    1.10    1.50
   0 -11   0   -0.60    0.90
   1 -11   0   -0.20    0.90
   1 -11   0    0.10    1.50
  -1 -11   0   -0.30    1.10
  -1 -11   0    0.30    1.00
  -1 -11   0    3.10    1.50
   2 -11   0    2.70    2.10
   2 -11   0    1.10    1.20
   2 -11   0    1.30    0.80
  -2 -11   0    0.50    1.00
  -2 -11   0    0.40    1.10
  -2 -11   0    1.20    1.20
  -3 -11   0   -0.60    0.90
   3 -11   0    0.30    0.90
  -3 -11   0   -1.60    1.70
   3 -11   0   -0.80    1.50
   3 -11   0    0.60    1.80
  -4 -11   0   19.90    1.70
   4 -11   0   18.70    2.30
   4 -11   0   18.80    1.70
   4 -11   0   19.00    1.90
  -4 -11   0   21.50    1.80
  -5 -11   0   -0.80    0.80
   5  11   0   -1.80    1.50
   5 -11   0   -0.20    1.00
   5 -11   0    0.20    0.90
  -5 -11   0    0.60    0.90
   5 -11   0    0.60    1.20
  -6 -11   0   23.50    1.90
   6 -11   0   25.70    1.80
   6 -11   0   22.00    2.00
   6 -11   0   23.70    1.90
   6  11   0   25.50    2.40
  -6 -11   0   23.90    1.80
   7 -11   0    0.10    1.10
   7 -11   0   -0.60    0.90
  -7 -11   0    0.50    0.70
   7 -11   0   -0.80    0.70
  -7 -11   0   -0.60    0.80
   7  11   0   -1.30    1.50
   8 -11   0   12.20    1.20
  -8 -11   0   15.00    1.30
  -8 -11   0   17.10    1.40
  -9 -11   0   -0.40    1.00
   9 -11   0    1.10    1.00
   9 -11   0   -0.30    0.50
  -9 -11   0   -0.20    0.60
   0 -12   0   10.10    1.60
   0 -12   0    9.00    1.60
   1 -12   0    0.00    1.00
  -1 -12   0   -1.00    1.50
  -1 -12   0   -1.40    1.10
  -1 -12   0    0.80    1.10
   2 -12   0   10.30    1.60
  -2 -12   0   10.50    1.60
   2 -12   0    9.60    2.00
  -2 -12   0   10.30    2.00
  -2 -12   0   11.70    1.80
   3 -12   0    0.80    1.60
   3 -12   0   -1.00    0.90
  -3 -12   0    0.70    1.10
   3 -12   0    1.00    1.00
  -3 -12   0   -1.90    0.90
   4 -12   0   30.70    2.00
  -4 -12   0   26.60    1.90
  -4 -12   0   25.90    2.00
   4 -12   0   26.10    2.50
   4 -12   0   29.40    2.00
   5  12   0   -0.40    1.40
  -5 -12   0   -0.20    0.90
   5 -12   0    1.20    0.80
   5 -12   0   -1.60    1.20
  -5 -12   0    0.60    0.90
   5 -12   0   -0.80    1.00
   6 -12   0   11.90    1.80
   6  12   0   11.30    2.40
   6 -12   0   13.40    1.40
  -6 -12   0   11.40    1.50
  -6 -12   0   11.60    1.40
   6 -12   0   11.90    1.50
  -7 -12   0    0.90    0.70
   7 -12   0    1.10    0.90
   7 -12   0    0.60    0.70
  -7 -12   0   -0.10    0.60
   7 -12   0    1.20    1.00
   8 -12   0   44.00    2.30
   8 -12   0   43.80    1.90
  -8 -12   0   42.30    2.00
  -8 -12   0   40.20    2.00
  -9 -12   0    0.10    0.50
   9 -12   0    0.00    0.50
   0 -13   0    0.70    1.40
   0 -13   0   -0.30    1.10
  -1 -13   0   -3.20    1.40
   1 -13   0   -2.00    1.00
  -1 -13   0   -0.40    1.20
  -1 -13   0    1.60    1.20
  -2 -13   0   15.30    2.00
   2 -13   0   16.40    2.10
  -2 -13   0   16.10    1.70
   3 -13   0    1.60    1.10
   3 -13   0   -0.10    1.00
  -3 -13   0    0.30    1.10
   3 -13   0   -3.70    1.70
  -3 -13   0    0.20    0.90
   4  13   0   57.99    3.40
   4 -13   0   60.69    3.30
   4 -13   0   58.09    2.80
   4 -13   0   56.29    2.90
  -4 -13   0   60.59    2.90
  -4 -13   0   63.69    2.90
   5 -13   0   -1.10    0.80
  -5 -13   0    0.40    0.80
  -5 -13   0   -0.20    0.80
   5 -13   0    0.50    1.00
   5 -13   0   -1.60    1.40
   6 -13   0    0.20    1.00
   6 -13   0    0.60    0.70
   6 -13   0    1.30    1.00
  -6 -13   0    1.20    0.70
  -6 -13   0    1.10    0.70
   7 -13   0    1.60    1.10
   7 -13   0   -0.90    0.50
  -7 -13   0    0.70    0.60
  -7 -13   0   -0.40    0.60
  -8 -13   0    5.20    1.00
   8 -13   0    4.20    0.80
  -8 -13   0    4.20    0.90
   0 -14   0   85.39    3.80
   0 -14   0   84.39    3.80
  -1 -14   0   -0.30    1.10
  -1 -14   0   -1.40    1.30
   1 -14   0   -0.40    1.20
  -2 -14   0   27.80    2.30
   2 -14   0   30.00    2.40
  -2 -14   0   32.60    2.10
   2 -14   0   29.90    2.20
  -3 -14   0    0.70    1.00
  -3 -14   0   -0.80    0.80
   3 -14   0   -0.10    1.00
   3 -14   0   -2.40    1.10
  -4 -14   0   39.30    2.20
   4 -14   0   41.90    2.80
   4 -14   0   38.70    2.40
   5 -14   0   -0.40    0.70
   5 -14   0    0.30    1.20
  -5 -14   0    0.60    0.70
  -5 -14   0   -0.20    0.80
   5 -14   0    1.10    1.20
   6 -14   0   12.50    2.00
   6 -14   0   16.50    1.70
   6 -14   0   15.70    1.30
  -6 -14   0   13.80    1.30
  -6 -14   0   14.80    1.30
   7 -14   0    0.50    0.50
  -7 -14   0   -0.20    0.60
  -7 -14   0    0.20    0.60
  -8 -14   0   11.90    0.90
  -8 -14   0   13.90    0.90
   1 -15   0   -0.50    1.50
   2 -15   0   -0.90    1.40
  -2 -15   0    1.20    1.10
  -2 -15   0    0.90    1.30
  -3 -15   0   -0.30    0.70
   3 -15   0    0.10    1.40
  -3 -15   0    0.70    1.00
   3 -15   0    1.60    1.00
  -4 -15   0   27.60    1.70
   4 -15   0   24.30    2.40
  -4 -15   0   25.50    1.70
   4 -15   0   27.40    1.70
   5 -15   0    0.10    0.60
  -5 -15   0    0.30    0.70
  -5 -15   0    0.00    0.60
   5 -15   0    0.10    1.60
  -6 -15   0   10.40    1.00
   6 -15   0    8.20    1.00
  -6 -15   0    8.50    0.90
   7 -15   0   -0.30    0.50
  -7 -15   0    0.90    0.50
  -7 -15   0    0.70    0.60
  -1 -16   0    1.60    1.10
  -2 -16   0   28.10    1.80
  -3 -16   0    1.10    0.70
  -3 -16   0   -0.70    1.00
  -4 -16   0    2.20    0.70
   4 -16   0    6.00    1.40
  -4 -16   0    2.70    0.90
   5 -16   0    1.00    0.70
  -5 -16   0    0.10    0.60
  -5 -16   0   -0.40    0.70
  -6 -16   0    8.40    1.10
  -6 -16   0    9.50    0.80
   6 -16   0   11.60    1.00
  -2 -17   0  110.29    4.30
  -3 -17   0    1.10    0.90
  -4 -17   0   54.59    2.20
  -5 -17   0    1.10    0.50
   1   0  -1   -0.40    0.10
  -1   0   1   -0.30    0.10
   1   0   1   -0.20    0.10
  -1   0  -1   -0.20    0.10
  -2   0  -1    2.30    0.40
   3   0   1   -0.90    0.30
  -3   0   1   -1.00    0.30
   3   0  -1   -1.00    0.30
  -3   0  -1   -1.20    0.30
   4   0  -1    0.00    0.50
   4   0  -1    1.10    0.70
   4   0   1   -0.90    0.50
   4   0   1    0.10    0.60
  -4   0  -1   -0.40    0.50
  -4   0   1   -0.10    0.60
   5   0   1   -0.80    0.60
   5   0  -1    0.10    0.80
  -5   0   1   -0.30    1.00
   5   0   1    0.60    0.80
   5   0  -1    0.20    0.60
   6   0   1    0.20    0.70
   6   0  -1    1.20    0.70
   6   0  -1    2.70    1.60
   7   0   1    0.40    0.70
   7   0  -1    0.30    0.70
  -7   0  -1   -0.30    1.70
   8   0   1    0.60    0.70
   8   0  -1   -0.20    0.80
   9   0   1   -0.10    0.90
   9   0  -1    0.50    0.80
  -9   0   1    0.10    1.00
  10   0   1    0.70    0.80
 -10   0   1   -0.80    0.90
 -10   0  -1    0.80    1.10
  10   0  -1    0.30    0.90
  11   0   1   -0.10    0.80
  11   0  -1    0.80    0.90
   0  -1  -1   -0.50    0.10
   0   1   1   -0.70    0.10
   0  -1   1   -0.60    0.10
   1  -1   1  829.62   25.10
  -1   1   1  779.62   25.10
   1   1  -1  780.22   25.10
   1   1   1  739.13   25.10
  -1  -1   1  820.92   25.10
  -1   1  -1  862.91   25.10
   1  -1  -1  735.73   25.10
   2  -1   1  261.77    8.20
   2   1  -1  226.38    8.30
  -2   1   1  262.27    8.30
  -2  -1  -1  266.77    8.30
  -2   1  -1  262.17    8.20
  -2  -1   1  270.37    8.40
   2   1   1  249.08    8.30
   2  -1  -1  243.98    8.30
   3   1  -1   10.40    0.90
  -3   1   1   10.70    0.80
  -3  -1  -1   10.40    0.80
   3  -1   1   10.30    0.70
   3   1   1   10.60    0.80
  -3   1  -1   10.20    0.70
  -3  -1   1   10.10    0.90
   3  -1  -1   10.30    0.80
   4  -1   1    0.30    0.60
  -4   1   1    2.40    0.70
   4   1  -1    0.40    0.60
   4   1  -1    0.00    0.60
   4  -1   1   -0.60    0.40
   4  -1  -1    0.70    0.60
   4  -1  -1    0.70    0.50
  -4  -1   1    0.00    0.60
   4   1   1   -0.10    0.50
   4   1   1   -0.10    0.60
  -4   1  -1    0.60    0.40
  -5   1   1  104.19    4.40
   5  -1   1  112.69    4.20
   5   1  -1  110.59    4.10
   5   1  -1  113.09    4.50
   5  -1   1  111.19    4.00
   5   1   1  109.89    4.40
   5  -1  -1  109.99    4.30
  -5  -1   1  107.09    4.60
   5   1   1  112.59    4.10
   5  -1  -1  112.39    4.00
   6   1  -1   41.80    3.60
   6   1  -1   39.90    2.00
   6  -1   1   41.60    2.00
   6   1   1   40.00    3.50
   6   1   1   40.50    2.00
   6  -1  -1   43.40    2.00
   7   1  -1    6.60    1.20
   7  -1   1    8.80    1.70
   7  -1   1    5.40    1.10
  -7  -1  -1    7.30    1.70
   7   1   1    6.10    1.20
   7  -1  -1    6.30    1.10
  -7  -1   1    6.70    1.80
   8  -1   1   14.10    1.40
  -8  -1  -1   15.20    2.60
   8   1  -1   13.60    1.50
   8   1   1   13.10    1.50
   8  -1  -1   17.80    1.50
   9   1  -1   46.80    2.40
  -9  -1  -1   48.20    3.70
   9  -1   1   42.00    2.30
  -9  -1  -1   41.30    2.70
   9  -1  -1   42.20    2.30
   9   1   1   40.20    2.30
  -9  -1   1   47.80    2.60
  10   1  -1    5.80    1.40
 -10   1   1    7.80    1.40
  10  -1   1    8.90    1.30
 -10  -1   1   12.00    1.80
  10  -1  -1    8.50    1.40
 -10   1  -1    9.80    1.60
  10   1   1    8.10    1.40
 -11   1   1    1.00    0.90
  11  -1   1   -0.40    0.80
  11   1  -1   -0.30    0.90
  11   1   1    0.60    0.90
  11  -1  -1    1.70    0.80
   0   2  -1  304.77   10.20
   0   2   1  333.67   10.20
   0  -2  -1  311.57   10.20
  -1   2   1   79.09    2.80
   1   2  -1   74.69    2.80
   1  -2   1   78.79    2.70
  -1   2  -1   81.09    2.70
   1  -2  -1   76.19    2.80
  -1  -2   1   81.59    2.90
   2   2  -1    0.60    0.30
   2  -2   1    1.60    0.30
  -2   2   1    0.70    0.20
   2  -2  -1    0.80    0.30
   2   2   1    0.40    0.30
  -2   2  -1    0.30    0.20
  -2  -2   1    0.20    0.30
   3   2  -1  144.09    5.40
  -3   2   1  154.58    5.20
   3  -2   1  152.48    5.10
   3  -2  -1  156.28    5.20
  -3  -2   1  158.88    5.40
   3   2   1  151.48    5.40
  -3   2  -1  160.98    5.10
   4   2  -1  143.59    5.20
   4  -2   1  135.29    4.90
   4   2  -1  137.19    4.90
  -4   2   1  142.29    5.00
   4  -2   1  142.49    4.80
   4  -2  -1  144.39    4.90
   4   2   1  133.99    4.90
   4  -2  -1  136.89    4.90
  -4   2  -1  150.18    4.80
  -4  -2   1  138.79    5.20
   4   2   1  143.69    5.20
   5   2  -1   11.00    1.20
   5  -2   1   10.10    1.40
   5  -2   1   10.20    1.00
  -5   2   1   12.10    1.80
   5   2  -1   12.00    2.10
   5   2   1   10.00    1.90
  -5   2  -1    9.80    1.50
   5  -2  -1   10.60    1.60
   5   2   1   12.20    1.10
   5  -2  -1    9.20    1.10
   6  -2   1   47.20    3.00
   6   2  -1   45.10    4.20
   6   2  -1   47.40    2.20
   6  -2   1   45.40    2.10
   6   2   1   44.30    4.00
   6  -2  -1   50.19    2.20
   6   2   1   49.20    2.20
   6  -2  -1   43.10    2.80
   7  -2   1    4.20    1.40
   7   2  -1    3.30    0.90
   7  -2   1    3.30    0.80
  -7  -2  -1    5.00    1.50
   7  -2  -1    7.00    1.40
   7   2   1    5.30    1.20
   7  -2  -1    5.00    1.10
  -7  -2   1    6.90    1.50
   8  -2   1    3.60    0.90
  -8  -2  -1    5.00    1.30
   8   2  -1    6.10    1.30
   8  -2  -1    5.60    1.20
  -8  -2   1    6.40    1.40
   8   2   1    8.50    1.40
  -8  -2   1    5.60    1.70
   9   2  -1    9.30    1.50
   9  -2   1   12.50    1.40
  -9  -2  -1   17.30    2.20
  -9  -2   1   12.10    2.40
   9   2   1   10.50    1.50
   9  -2  -1    9.90    1.40
  -9  -2   1   10.00    2.10
  10   2  -1   20.70    1.80
 -10   2   1   23.10    1.70
  10  -2   1   20.30    1.70
  10   2   1   21.90    1.70
  10  -2  -1   22.00    1.70
  11   2  -1   20.80    1.80
  11  -2   1   22.50    1.60
 -11   2   1   23.10    1.60
  11  -2  -1   22.70    1.60
  11   2   1   24.30    1.70
 -11   2  -1   22.50    1.60
   0   3  -1    0.00    0.20
   0   3  -1    0.10    0.20
   0   3   1    0.20    0.30
   1   3  -1  280.17    9.30
  -1   3   1  273.27    9.20
  -1   3  -1  294.67    9.10
   1   3   1  293.77    9.30
   1  -3  -1  272.27    9.20
   2   3  -1    0.40    0.40
  -2   3   1    0.70    0.30
   2  -3   1    1.70    0.40
   2   3   1    0.60    0.40
  -2   3  -1    0.70    0.20
   2  -3  -1    0.80    0.30
   3   3  -1  808.12   27.90
   3  -3   1  878.21   27.50
  -3   3   1  875.71   27.70
   3   3   1  871.41   27.90
  -3   3  -1  900.81   27.60
   3  -3  -1  872.31   27.70
   4  -3   1  120.59    4.30
   4  -3   1  124.69    4.20
   4   3  -1  116.29    4.70
  -4   3   1  119.49    4.40
   4   3  -1  118.39    4.30
   4   3   1  117.79    4.90
  -4   3  -1  125.49    4.20
   4   3   1  123.89    4.40
   4  -3  -1  124.09    4.30
   4  -3  -1  124.59    4.30
   5   3  -1    4.80    1.30
   5   3  -1    0.00    0.60
  -5   3   1    2.60    1.10
   5  -3   1   -0.60    0.60
   5  -3   1    0.00    0.60
   5   3   1   -0.80    0.70
  -5   3  -1    0.10    0.80
   5  -3  -1    0.90    0.60
   5   3   1   -0.20    1.10
   5  -3  -1    1.20    0.90
  -6  -3  -1   40.10    2.50
   6   3  -1   42.50    2.10
   6   3  -1   38.60    4.70
   6  -3   1   38.20    2.70
   6  -3   1   40.60    2.00
  -6  -3   1   40.60    2.70
   6  -3  -1   43.60    2.00
   6   3   1   41.40    2.10
   6  -3  -1   41.60    2.70
   6   3   1   36.90    4.70
   7  -3   1    8.10    1.50
  -7  -3  -1    9.00    1.90
   7   3  -1    6.30    1.30
   7  -3   1    7.10    1.50
   7  -3   1    8.20    1.20
   7  -3  -1    5.80    1.10
  -7  -3   1    7.80    1.40
   7  -3  -1    7.60    1.90
   7  -3  -1    7.00    1.60
   7   3   1    6.70    1.30
   8  -3   1    2.40    1.50
   8   3  -1    0.50    0.90
   8  -3   1   -1.00    1.10
  -8  -3  -1   -1.40    1.10
   8  -3   1    1.00    0.80
  -8  -3   1   -0.60    1.20
   8   3   1    1.60    0.90
   8  -3  -1    1.10    1.40
   8  -3  -1    1.00    0.80
  -9  -3  -1   10.50    2.00
   9   3  -1   14.00    1.60
   9  -3   1   15.60    1.50
   9   3   1   10.70    1.60
  -9  -3   1   17.00    2.20
   9  -3  -1   12.90    1.50
  10   3  -1   48.70    2.50
 -10  -3  -1   50.29    2.90
  10  -3   1   48.90    2.40
  10  -3  -1   43.80    2.40
  10   3   1   48.30    2.50
  11   3  -1   -1.70    1.10
  11  -3   1    0.70    0.80
 -11   3   1    0.60    0.70
 -11   3  -1    0.80    0.80
  11  -3  -1   -0.10    0.80
  11   3   1    1.90    0.90
   0   4  -1  413.56   12.80
   0   4   1  388.36   12.80
   0   4  -1  377.86   12.80
  -1   4   1  603.34   18.80
   1   4  -1  583.84   18.90
  -1   4  -1  595.94   18.70
   1   4   1  562.54   18.90
   1   4   1  600.84   19.00
   1  -4  -1  558.44   18.80
   2   4  -1    1.90    0.50
  -2   4   1    3.60    0.70
   2  -4  -1    2.60    0.70
  -2   4  -1    3.60    0.60
   2   4   1    3.10    0.80
  -3   4   1  222.68    7.40
   3  -4   1  221.78    7.30
   3   4  -1  230.38    7.80
   3  -4  -1  208.18    7.30
   3  -4  -1  206.28    7.60
  -3   4  -1  232.38    7.30
   3   4   1  223.58    7.70
   4   4  -1  613.34   20.00
  -4   4   1  623.44   20.10
   4  -4   1  625.54   20.00
   4   4  -1  600.54   20.60
   4  -4   1  642.44   19.80
   4  -4  -1  614.64   20.00
   4  -4  -1  616.44   20.00
  -4   4  -1  637.44   19.90
   4   4   1  609.84   20.50
   5   4  -1    9.00    1.30
   5   4  -1    8.30    1.70
   5  -4   1   10.40    1.00
   5   4   1   11.20    2.80
   5  -4  -1   10.40    1.10
   5   4   1   10.20    1.20
  -6  -4  -1  527.75   17.80
   6  -4   1  551.14   17.70
   6  -4   1  543.25   18.00
   6   4  -1  566.94   17.80
   6  -4   1  523.65   17.80
   6  -4  -1  530.85   17.90
  -6  -4   1  538.25   17.80
   6  -4  -1  546.55   17.70
   6   4   1  559.14   17.80
   6  -4  -1  529.25   17.80
  -7  -4  -1    0.30    1.00
   7   4  -1   -1.00    0.80
   7  -4   1    0.00    0.70
   7  -4   1    0.80    1.20
   7  -4   1   -0.50    1.20
   7  -4  -1    0.80    1.20
   7   4   1    1.60    0.90
   7  -4  -1    0.80    0.70
   7  -4  -1   -1.30    1.10
  -7  -4   1   -0.90    1.10
   8  -4   1    1.20    1.20
   8  -4   1    0.80    1.20
   8  -4   1    1.60    0.80
   8   4  -1    3.80    1.10
  -8  -4  -1    1.10    1.10
   8  -4  -1    1.90    1.10
   8   4   1    0.60    0.80
   8  -4  -1    2.60    0.90
   8  -4  -1    1.40    1.20
  -8  -4   1    1.80    1.20
   9  -4   1    0.50    0.80
   9   4  -1    1.10    1.00
   9  -4   1    0.30    2.00
  -9  -4  -1    0.60    1.10
   9  -4  -1    0.90    0.80
  -9  -4   1    2.20    1.20
   9   4   1    0.30    0.90
   9  -4  -1    2.70    1.40
  10  -4   1    1.60    0.80
 -10  -4  -1    3.10    1.10
  10   4  -1    3.60    1.10
 -10  -4   1    3.50    1.20
  10   4   1    2.50    1.00
  10  -4  -1    2.60    0.80
 -11   4   1    0.10    0.60
  11  -4   1   -0.30    0.80
  11   4  -1    1.00    1.20
 -11   4  -1    0.40    0.70
  11   4   1   -0.80    1.00
  11  -4  -1   -0.90    0.80
   0   5  -1   -0.50    0.40
   0   5   1   -0.20    0.40
   1   5  -1  681.73   21.80
  -1   5   1  669.33   21.70
   1   5  -1  687.03   21.80
  -1   5  -1  678.63   21.60
   1   5   1  677.43   21.80
   1   5   1  633.74   21.70
  -2   5   1  126.19    4.40
   2   5  -1  121.69    4.60
   2  -5  -1  119.09    4.40
  -2   5  -1  124.59    4.30
   2   5   1  122.39    4.80
   2   5   1  119.99    4.60
  -3   5   1  118.49    4.30
   3  -5   1  113.09    4.10
   3   5  -1  122.39    4.70
   3  -5  -1  117.79    4.30
   3  -5  -1  117.09    4.10
   3   5   1  115.09    5.00
  -3   5  -1  119.59    4.20
   3   5   1  114.89    4.70
   4  -5   1  268.47    8.50
   4   5  -1  251.57    9.30
  -4   5   1  214.88    9.10
  -4   5  -1  259.97    8.40
   4  -5  -1  265.97    8.50
   4   5   1  261.37    9.30
   4  -5  -1  261.17    8.70
  -5  -5  -1   68.29    3.40
   5  -5   1   70.39    2.80
   5   5  -1   66.19    2.90
   5   5  -1   68.29    4.70
   5  -5   1   64.29    3.40
   5  -5  -1   64.19    3.50
   5   5   1   67.29    3.00
   5   5   1   69.39    4.80
   5  -5  -1   68.09    2.80
   6  -5   1    0.80    0.70
   6  -5   1    1.00    1.30
   6  -5   1    0.90    1.20
  -6  -5  -1   -1.50    1.40
   6   5  -1   -1.50    0.80
  -6  -5  -1   -0.40    1.00
   6  -5  -1    0.50    0.70
  -6  -5   1    1.10    1.50
   6  -5  -1    0.40    1.20
   6   5   1    1.20    0.90
   6  -5  -1    1.70    1.10
  -6  -5   1    0.50    1.10
   7   5  -1    6.60    1.40
   7  -5   1    3.30    1.40
  -7  -5  -1    2.00    1.60
   7  -5   1    3.80    1.20
  -7  -5  -1    3.50    1.30
   7  -5   1    8.30    1.30
  -7  -5   1    6.10    1.70
   7  -5  -1    2.60    1.20
   7  -5  -1    7.40    1.20
   7   5   1    5.80    1.20
   7  -5  -1    4.30    1.30
  -7  -5   1    4.70    1.20
   8   5  -1   35.70    2.30
  -8  -5  -1   33.70    2.20
   8  -5   1   33.10    2.40
   8  -5   1   36.50    2.50
   8   5   1   35.90    2.20
   8  -5  -1   29.80    2.30
   8  -5  -1   31.70    2.40
  -8  -5   1   34.30    2.30
   9  -5   1    9.40    1.30
  -9  -5  -1   10.70    1.70
   9   5  -1    7.00    1.60
   9  -5   1    9.10    2.00
   9  -5  -1    9.70    1.90
   9   5   1    8.00    1.60
  -9  -5   1    8.60    1.80
   9  -5  -1    8.50    1.30
 -10  -5  -1   54.59    2.60
  10  -5   1   49.99    2.50
  10   5  -1   52.79    2.70
  10  -5  -1   52.59    2.50
 -10  -5   1   49.20    2.60
  10   5   1   53.19    2.60
 -11   5   1    8.50    1.00
  11  -5   1    8.20    1.40
 -11   5  -1   10.00    1.10
  11  -5  -1    8.90    1.30
  11   5   1   11.70    1.80
   0   6  -1    2.10    0.70
   0   6   1    1.70    0.70
   0   6  -1    1.30    0.60
   1   6  -1    1.90    0.70
  -1   6   1    1.10    0.70
   1   6  -1    0.70    0.80
  -1   6  -1    1.50    0.70
   1   6   1    0.10    0.60
  -1   6  -1    0.90    0.50
   1   6   1    1.60    0.90
  -2   6   1  362.96   12.20
   2   6  -1  361.16   12.60
   2   6  -1  380.36   12.50
   2  -6   1  350.66   11.90
  -2  -6  -1  356.66   12.00
   2   6   1  391.06   12.50
   2  -6  -1  360.06   11.90
  -2   6  -1  369.36   12.40
  -3  -6  -1   42.80    2.00
   3  -6   1   38.90    1.80
   3   6  -1   41.70    2.80
  -3   6   1   39.50    2.40
   3  -6  -1   38.90    1.80
  -3   6  -1   39.10    2.20
   3  -6  -1   40.10    2.20
   3   6   1   40.80    2.70
   4   6  -1  473.45   16.30
   4  -6   1  484.35   15.30
  -4   6   1  446.26   15.60
   4  -6  -1  485.35   15.30
   4   6   1  481.05   16.30
   4  -6  -1  445.36   15.50
  -5  -6  -1    5.40    1.20
   5  -6   1    4.90    0.80
   5  -6   1    2.90    1.40
  -5  -6  -1    6.10    1.60
   5   6  -1    4.90    1.30
   5  -6   1    3.40    1.10
   5  -6  -1    3.60    1.10
   5  -6  -1    3.30    0.70
  -5  -6   1    2.60    1.20
  -5  -6   1    5.80    1.10
   5  -6  -1    4.10    1.40
   5   6   1    3.80    0.90
   6   6  -1  117.29    4.40
  -6  -6  -1  110.49    4.40
  -6  -6  -1  111.89    4.60
   6  -6   1  111.29    4.50
   6  -6   1  109.69    4.70
   6  -6   1  111.39    4.30
   6  -6  -1  114.39    4.50
   6  -6  -1  117.59    4.30
  -6  -6   1  108.59    4.60
   6   6   1  116.99    4.50
  -6  -6   1  110.19    4.40
   6  -6  -1  110.59    4.70
  -7  -6  -1    3.30    2.20
   7  -6   1    4.40    1.30
   7  -6   1    2.30    1.00
   7  -6   1    5.20    1.20
   7   6  -1    3.00    1.10
  -7  -6  -1    6.50    1.50
   7   6   1    3.50    1.10
  -7  -6   1    3.10    2.30
  -7  -6   1    4.10    1.10
   7  -6  -1    4.70    1.30
   7  -6  -1    2.60    1.00
   7  -6  -1    5.60    1.20
   8  -6   1    1.30    1.20
  -8  -6  -1   -0.30    1.60
   8  -6   1   -1.80    1.00
   8   6  -1    1.00    1.00
  -8  -6  -1    1.00    1.00
   8  -6   1    1.20    0.90
   8  -6  -1    1.90    0.80
  -8  -6   1    1.50    1.00
   8  -6  -1    1.60    1.20
  -8  -6   1   -1.00    1.40
   8  -6  -1   -0.80    1.00
   8   6   1    2.50    1.10
   9   6  -1   32.70    2.30
  -9  -6  -1   39.70    2.20
   9  -6   1   37.60    2.30
   9  -6   1   33.70    2.10
  -9  -6   1   36.10    2.20
   9  -6  -1   39.80    2.20
   9  -6  -1   32.00    2.00
   9   6   1   32.30    2.30
  10   6  -1   46.50    2.60
 -10  -6  -1   46.00    2.30
  10  -6   1   47.00    2.30
  10  -6  -1   46.60    2.60
  10  -6  -1   46.30    2.30
 -10  -6   1   44.40    2.30
 -11   6   1   20.70    1.30
  11  -6   1   23.60    1.70
  11  -6  -1   25.00    1.70
 -11   6  -1   21.80    1.80
   0   7   1   -0.30    0.70
   0  -7  -1    0.10    0.70
   0  -7   1   -0.50    0.80
   0   7  -1    2.60    1.00
   0   7   1    0.20    1.00
   0   7  -1    0.10    0.70
  -1  -7  -1  485.35   15.80
   1   7  -1  484.85   16.30
  -1   7   1  483.55   16.20
   1   7  -1  497.35   16.50
   1  -7   1  480.05   15.70
   1  -7  -1  503.05   15.80
   1   7   1  474.55   16.40
  -1  -7   1  461.25   15.70
  -1   7  -1  488.95   16.10
   1   7   1  507.95   16.40
  -1   7  -1  487.75   16.20
   2  -7   1   64.49    2.50
  -2   7   1   63.09    3.20
  -2  -7  -1   62.39    2.60
   2   7  -1   65.69    3.40
   2  -7  -1   62.79    2.50
  -2   7  -1   59.89    3.10
  -2   7  -1   64.29    2.90
  -2  -7   1   60.99    2.70
   2   7   1   61.79    3.30
  -3  -7  -1    1.40    0.80
  -3   7   1    1.60    1.40
   3  -7   1    0.80    0.70
   3   7  -1   -3.10    1.40
  -3   7  -1    0.30    1.20
   3  -7  -1    0.80    0.70
   3   7   1   -0.80    1.20
   4  -7   1  129.39    4.50
   4  -7   1  115.89    5.10
   4  -7   1  117.79    4.80
  -4  -7  -1  121.39    4.70
  -4  -7  -1  124.59    4.80
   4  -7  -1  123.29    4.80
   4  -7  -1  122.89    5.10
   4  -7  -1  131.99    4.50
  -4  -7   1  124.49    4.80
  -4  -7   1  118.29    4.70
   5  -7   1   35.80    2.60
   5  -7   1   36.30    1.90
   5   7  -1   37.10    2.10
  -5  -7  -1   33.40    2.20
  -5  -7  -1   32.60    2.20
   5  -7   1   34.30    2.30
  -5  -7   1   36.00    2.20
  -5  -7   1   33.10    2.20
   5  -7  -1   37.10    1.90
   5  -7  -1   35.30    2.30
   5  -7  -1   35.00    2.60
   5   7   1   35.90    2.10
  -6  -7  -1  148.09    5.70
   6  -7   1  149.59    5.70
  -6  -7  -1  149.39    5.80
   6  -7   1  153.58    6.00
   6   7  -1  158.68    5.80
   6  -7   1  158.08    5.60
   6  -7  -1  153.88    5.70
   6   7   1  156.68    5.80
   6  -7  -1  149.69    6.00
  -6  -7   1  152.38    5.70
  -6  -7   1  154.08    5.80
   6  -7  -1  158.68    5.60
   7  -7   1    9.30    1.90
  -7  -7  -1   10.00    1.70
   7   7  -1   12.90    1.80
   7  -7   1    9.10    1.30
  -7  -7  -1   11.80    1.60
   7  -7   1    9.70    1.70
  -7  -7   1    7.20    1.90
   7  -7  -1   10.30    1.40
   7   7   1    6.30    1.60
   7  -7  -1    7.60    1.70
  -7  -7   1    8.90    1.60
   7  -7  -1   11.40    1.90
   8  -7   1  120.69    4.90
  -8  -7  -1  126.39    4.70
  -8  -7  -1  111.89    4.70
   8  -7   1  111.49    4.60
   8   7  -1  118.79    4.80
   8  -7   1  123.09    4.60
   8  -7  -1  107.09    4.50
  -8  -7   1  118.79    4.70
   8  -7  -1  120.99    4.90
  -8  -7   1  114.89    4.60
   8  -7  -1  117.19    4.60
   8   7   1  114.89    4.70
   9  -7   1    1.20    0.90
   9   7  -1    2.00    1.20
   9  -7   1    0.10    0.90
   9  -7  -1    0.70    0.90
   9   7   1   -0.90    1.10
   9  -7  -1    1.30    0.90
  10  -7   1   68.59    3.00
  10  -7   1   73.19    3.10
 -10  -7  -1   72.49    2.90
  10   7  -1   68.89    3.50
  10  -7  -1   70.19    3.00
  10  -7  -1   72.29    3.00
  10   7   1   71.89    3.30
 -10  -7   1   71.99    2.90
 -11   7   1   51.99    2.10
 -11   7  -1   49.60    2.10
   0   8  -1   21.00    2.30
   0   8  -1   18.90    2.90
   0  -8   1   20.30    1.50
   0  -8  -1   20.00    1.40
   0   8   1   23.60    2.40
   1  -8   1    6.40    1.10
  -1   8   1    7.20    1.90
  -1  -8  -1    6.10    1.20
   1   8  -1    8.90    2.20
  -1  -8   1    6.30    1.30
  -1   8  -1    4.70    1.60
   1  -8  -1    5.10    1.00
  -1   8  -1    4.80    1.20
   1   8   1    7.60    1.50
   2   8  -1  499.55   16.70
  -2  -8  -1  476.85   15.70
  -2   8   1  432.06   16.30
   2  -8   1  491.15   15.70
  -2   8  -1  496.55   16.10
  -2   8  -1  459.15   16.20
  -2  -8   1  503.45   15.70
   2  -8  -1  500.75   15.70
   2   8   1  473.75   16.60
   3  -8   1   19.40    2.10
  -3  -8  -1   17.10    1.80
   3  -8   1   15.30    1.70
  -3  -8  -1   17.70    1.50
  -3  -8  -1   18.50    2.30
   3  -8  -1   16.00    2.10
  -3  -8   1   15.20    1.70
   3  -8  -1   19.10    1.40
  -3  -8   1   16.90    1.80
   4  -8   1  231.08    7.90
  -4  -8  -1  242.58    8.10
  -4  -8  -1  232.38    8.10
   4  -8   1  226.58    8.30
   4  -8   1  226.58    8.00
   4  -8  -1  228.18    8.00
   4  -8  -1  228.38    8.30
  -4  -8   1  225.38    8.00
  -4  -8   1  229.68    8.10
   4  -8  -1  235.08    7.90
   5  -8   1  114.49    4.60
   5  -8   1  110.39    4.80
  -5  -8  -1  113.79    4.60
   5  -8   1  119.79    4.40
  -5  -8  -1  116.59    4.60
   5   8  -1  117.89    4.60
   5  -8  -1  121.99    4.50
   5   8   1  117.39    4.60
   5  -8  -1  114.39    4.90
   5  -8  -1  115.29    4.50
  -5  -8   1  115.69    4.50
  -5  -8   1  117.19    4.60
  -6  -8  -1  422.76   13.90
   6  -8   1  413.26   14.10
  -6  -8  -1  405.06   13.90
   6   8  -1  429.46   14.00
   6  -8   1  420.06   13.80
   6  -8   1  406.76   13.80
   6   8   1  422.66   14.00
  -6  -8   1  405.66   13.90
   6  -8  -1  419.36   13.80
   6  -8  -1  409.96   14.10
  -6  -8   1  399.46   13.80
   6  -8  -1  407.06   13.80
   7  -8   1    2.20    1.10
   7  -8   1    5.80    1.10
   7  -8   1    3.00    1.10
  -7  -8  -1    6.70    1.70
  -7  -8  -1    2.20    1.00
   7   8  -1    4.90    1.60
   7  -8  -1    5.00    1.10
  -7  -8   1    5.10    1.10
  -7  -8   1    4.20    1.20
   7  -8  -1    5.30    1.30
   7  -8  -1    4.00    1.10
  -8  -8  -1  207.08    7.40
   8  -8   1  198.88    7.40
  -8  -8  -1  215.08    7.40
   8   8  -1  201.28    7.50
   8  -8   1  214.58    7.40
   8  -8   1  217.38    7.70
   8  -8  -1  217.28    7.60
   8  -8  -1  185.08    7.40
   8   8   1  202.78    7.50
  -8  -8   1  211.88    7.40
  -8  -8   1  213.58    7.50
   8  -8  -1  217.48    7.40
   9  -8   1   -0.40    0.80
   9  -8   1   -0.60    0.80
  -9  -8  -1    0.50    0.80
   9   8  -1    1.30    1.30
   9  -8  -1    0.70    0.90
   9   8   1    0.00    1.10
   9  -8  -1    0.40    0.80
  -9  -8   1    0.00    0.70
  10  -8   1    3.80    0.90
  10  -8   1    2.70    0.90
 -10  -8  -1    5.00    1.10
  10  -8  -1    6.30    1.30
 -10  -8   1    2.20    0.80
  10   8   1    4.10    1.60
  10  -8  -1    6.10    1.30
 -11   8   1   11.40    1.00
 -11   8  -1   12.70    1.00
   0   9  -1    0.70    1.50
   0  -9  -1    0.30    0.70
   0  -9   1    0.00    0.80
   0   9   1    1.40    1.70
  -1  -9  -1  181.08    6.40
   1  -9   1  182.58    6.30
   1   9  -1  177.08    7.70
  -1   9   1  179.38    7.50
  -1  -9   1  180.58    6.40
   1  -9  -1  183.98    6.30
  -1   9  -1  192.38    7.40
   1   9   1  185.58    7.70
   2  -9   1    3.30    1.30
  -2  -9  -1    2.60    1.10
  -2   9   1    6.00    2.00
   2  -9   1    3.90    1.10
  -2  -9   1    3.90    1.30
  -2   9  -1    4.60    2.00
  -2  -9   1    5.60    1.10
   2  -9  -1    2.60    1.50
  -2  -9   1    2.90    1.10
   2  -9  -1    4.00    1.10
   3  -9   1    0.50    0.80
  -3  -9  -1    0.60    1.10
   3  -9   1   -3.70    1.50
   3  -9   1    0.30    1.10
  -3  -9  -1    0.10    0.80
  -3  -9  -1    0.30    1.00
  -3  -9   1    0.00    1.00
   3  -9  -1   -0.20    1.80
   3  -9  -1    0.80    0.70
   3  -9  -1    0.10    1.10
  -3  -9   1    0.20    1.10
  -4  -9  -1  184.18    6.60
   4  -9   1  176.78    6.40
   4  -9   1  179.88    6.50
   4  -9   1  177.68    6.80
  -4  -9  -1  181.68    6.50
  -4  -9   1  184.78    6.60
   4  -9  -1  180.98    6.50
  -4  -9   1  178.48    6.50
   4  -9  -1  177.48    6.40
   4  -9  -1  180.98    6.80
   5  -9   1   23.10    1.70
  -5  -9  -1   20.50    2.40
   5   9  -1   18.20    2.00
  -5  -9  -1   21.30    1.80
   5  -9   1   24.20    1.90
  -5  -9   1   19.00    1.80
   5  -9  -1   23.10    1.70
  -5  -9   1   20.40    2.30
   5   9   1   21.00    2.00
   5  -9  -1   21.20    1.90
   6   9  -1    1.60    1.30
  -6  -9  -1    8.20    1.50
   6  -9   1    1.90    0.90
   6  -9   1    2.50    1.20
   6  -9   1    5.10    1.30
  -6  -9  -1    3.80    1.10
   6   9   1    1.20    1.20
   6  -9  -1    2.70    0.90
  -6  -9   1    1.40    1.00
   6  -9  -1    3.10    1.00
  -6  -9   1    3.90    1.10
   6  -9  -1    4.00    1.20
   7  -9   1   14.20    1.90
  -7  -9  -1   18.70    1.70
   7   9  -1   15.30    2.00
   7  -9   1   15.30    1.70
   7  -9   1   14.30    1.60
  -7  -9  -1   14.10    1.70
  -7  -9   1   16.20    1.70
   7  -9  -1   13.20    1.60
   7   9   1   12.70    1.90
  -7  -9   1   12.80    1.70
   7  -9  -1   13.10    1.60
   7  -9  -1   14.60    1.90
  -8  -9  -1   73.99    3.20
   8  -9   1   72.59    3.20
   8  -9   1   66.39    3.20
  -8  -9  -1   76.49    3.50
   8   9  -1   72.19    3.50
   8  -9   1   77.09    3.40
   8   9   1   65.79    3.40
   8  -9  -1   67.99    3.20
   8  -9  -1   75.19    3.20
  -8  -9   1   84.19    3.90
  -8  -9   1   71.99    3.20
   8  -9  -1   74.49    3.30
   9  -9   1   11.70    1.30
  -9  -9  -1   12.90    1.30
  -9  -9  -1   13.20    1.80
   9  -9   1   14.00    1.50
   9   9   1   15.00    2.00
  -9  -9   1   11.70    1.30
  -9  -9   1   10.50    1.80
   9  -9  -1   12.70    1.30
   9  -9  -1   13.80    1.40
  10  -9   1   56.49    2.60
 -10  -9  -1   55.59    2.30
  10  -9   1   52.59    2.30
  10  -9  -1   55.49    2.50
 -10  -9   1   55.59    2.30
  10  -9  -1   57.29    2.30
   0 -10  -1   -1.50    1.50
   0 -10  -1    1.70    0.80
   0 -10   1    1.40    0.90
   0 -10   1    0.90    1.60
  -1 -10  -1   55.09    3.30
  -1 -10  -1   62.79    2.70
  -1 -10  -1   62.99    3.00
   1 -10   1   60.59    3.60
   1 -10   1   61.99    2.60
  -1  10  -1   63.69    5.70
  -1 -10   1   59.19    3.20
  -1 -10   1   60.09    3.00
   1 -10  -1   52.29    3.40
   1 -10  -1   58.99    2.60
  -1 -10   1   60.49    2.70
  -2 -10  -1    5.80    1.40
   2 -10   1    4.40    1.20
   2 -10   1    2.50    1.40
  -2 -10  -1    4.40    1.10
  -2 -10  -1    7.50    1.60
   2 -10   1    3.40    1.90
  -2 -10   1    5.70    1.50
   2 -10  -1    6.50    2.70
  -2 -10   1    4.80    1.30
   2 -10  -1    4.20    1.10
   2 -10  -1    4.80    1.30
  -2 -10   1    2.50    1.10
  -3 -10  -1   55.39    2.70
   3 -10   1   55.59    2.60
   3 -10   1   54.89    2.90
  -3 -10  -1   55.99    2.80
  -3 -10  -1   57.19    2.70
   3 -10   1   54.19    3.30
  -3 -10   1   55.09    2.80
   3 -10  -1   59.09    3.60
   3 -10  -1   56.09    2.60
   3 -10  -1   56.89    2.80
  -3 -10   1   57.49    2.80
   4 -10   1  216.38    7.20
   4 -10   1  201.58    7.50
  -4 -10  -1  182.98    7.90
   4 -10  -1  202.18    7.10
   4 -10  -1  204.28    7.50
   5 -10   1   77.49    3.30
   5 -10   1   76.99    3.40
  -5 -10  -1   77.79    3.40
   5 -10   1   75.99    3.70
  -5 -10  -1   76.89    3.40
   5  10  -1   73.79    3.60
  -5 -10   1   77.99    3.40
   5  10   1   81.79    3.60
   5 -10  -1   70.09    3.30
  -5 -10   1   75.39    3.40
   5 -10  -1   80.09    3.30
   5 -10  -1   74.19    3.70
   6  10  -1   81.59    4.40
  -6 -10  -1   88.29    3.70
   6 -10   1   80.89    3.60
  -6 -10  -1   91.29    3.70
   6 -10   1   91.89    3.70
   6 -10   1   91.89    4.00
   6 -10  -1   81.49    3.60
  -6 -10   1   91.59    3.80
  -6 -10   1   89.89    3.70
   6 -10  -1   86.49    3.90
   6 -10  -1   88.29    3.70
   6  10   1   84.89    3.90
  -7 -10  -1    1.40    0.90
   7 -10   1    1.00    0.80
  -7 -10  -1   -0.40    0.90
   7 -10   1    1.00    1.10
   7 -10   1   -0.10    0.90
   7  10  -1    1.90    1.50
  -7 -10   1    1.50    1.00
   7 -10  -1   -1.10    0.80
   7  10   1    0.60    1.20
   7 -10  -1   -0.40    0.70
  -7 -10   1   -0.10    0.80
   7 -10  -1    0.70    1.00
  -8 -10  -1   20.00    1.60
   8 -10   1   15.80    1.70
  -8 -10  -1   15.60    1.50
   8 -10   1   18.30    1.70
   8 -10   1   19.00    1.50
   8  10   1   21.40    2.20
  -8 -10   1   18.90    1.50
   8 -10  -1   17.80    1.50
   8 -10  -1   20.30    1.70
   8 -10  -1   18.80    1.60
  -8 -10   1   20.00    1.60
  -9 -10  -1   17.80    1.70
  -9 -10  -1   16.80    1.30
   9 -10   1   18.00    1.30
   9 -10   1   16.90    1.50
  -9 -10   1   19.60    1.80
  -9 -10   1   17.60    1.30
   9 -10  -1   17.90    1.60
   9 -10  -1   16.20    1.30
  10 -10   1    0.30    0.70
 -10 -10  -1   -0.50    0.60
 -10 -10   1   -0.80    0.60
  10 -10  -1    0.10    0.60
   0 -11   1    0.50    1.40
   0 -11  -1    0.00    1.40
   0 -11  -1    0.50    0.80
   0 -11   1    0.10    1.00
   1 -11   1    5.60    1.40
  -1 -11  -1    7.20    1.40
  -1 -11  -1    8.20    1.40
   1 -11   1    7.60    1.70
  -1 -11  -1    5.70    1.60
   1 -11  -1    5.70    1.00
   1 -11  -1    6.40    1.60
  -1 -11   1   11.20    2.20
  -1 -11   1    6.20    1.30
  -1 -11   1    6.30    1.20
   2 -11   1   34.20    2.50
  -2 -11  -1   36.80    2.20
  -2 -11  -1   32.00    2.40
   2 -11   1   34.60    3.40
   2 -11   1   35.30    2.00
  -2 -11  -1   35.50    2.20
   2 -11  -1   34.80    1.90
  -2 -11   1   30.40    2.30
   2 -11  -1   29.10    2.40
  -2 -11   1   35.00    2.20
  -2 -11   1   33.60    2.20
  -3 -11  -1   15.30    1.60
   3 -11   1   16.10    1.50
   3 -11   1   14.80    2.50
   3 -11   1   13.00    2.80
  -3 -11   1   12.60    1.60
   3 -11  -1   12.40    1.40
   3 -11  -1   10.60    2.70
  -3 -11   1   16.50    2.10
   4 -11   1    0.50    1.30
   4 -11   1    0.30    0.90
  -4 -11  -1   -0.40    1.00
  -4 -11  -1   -0.20    0.90
   4 -11   1   -0.20    0.90
  -4 -11   1   -0.70    0.90
   4 -11  -1    0.10    0.90
  -4 -11   1    0.40    1.00
   4 -11  -1   -1.80    0.80
   4 -11  -1    0.90    1.40
   5 -11   1   26.00    2.00
  -5 -11  -1   28.70    2.00
   5 -11   1   30.60    2.00
   5 -11   1   26.80    2.40
  -5 -11  -1   28.30    1.90
   5  11  -1   27.30    2.50
   5 -11  -1   28.50    2.00
   5 -11  -1   30.70    2.00
   5  11   1   26.70    3.30
  -5 -11   1   28.10    2.00
  -5 -11   1   27.20    1.90
   5 -11  -1   26.10    2.30
   6 -11   1   95.09    4.10
   6 -11   1  106.89    4.10
  -6 -11  -1  101.29    4.10
  -6 -11  -1  106.79    4.20
   6 -11   1  107.59    4.40
   6  11  -1   96.49    4.50
   6 -11  -1   95.09    4.10
   6  11   1   98.99    4.40
   6 -11  -1  102.29    4.30
  -6 -11   1  106.19    4.20
  -6 -11   1  106.99    4.10
   6 -11  -1  105.49    4.10
   7 -11   1   57.69    2.90
  -7 -11  -1   60.59    2.80
  -7 -11  -1   65.99    2.90
   7 -11   1   68.89    3.30
   7 -11   1   62.19    2.80
   7 -11  -1   67.29    3.80
   7 -11  -1   62.19    2.80
   7  11   1   54.89    3.20
  -7 -11   1   69.79    2.90
   7 -11  -1   62.29    2.90
  -7 -11   1   61.59    2.80
   8 -11   1    2.00    0.60
   8 -11   1    3.70    1.40
   8 -11   1   -0.10    0.80
  -8 -11  -1    1.20    0.80
  -8 -11  -1    2.70    0.70
   8 -11  -1    3.30    1.10
   8 -11  -1    1.20    0.60
  -8 -11   1    1.70    0.80
  -8 -11   1    1.30    0.70
   8  11   1    4.70    2.50
   9 -11   1   40.00    1.80
  -9 -11  -1   36.20    2.00
  -9 -11  -1   40.70    1.80
   9 -11   1   44.70    2.20
   9 -11  -1   38.50    1.70
  -9 -11   1   34.00    2.00
   9 -11  -1   41.10    2.10
  -9 -11   1   37.60    1.80
   0 -12   1  106.19    4.50
   0 -12  -1  110.49    4.30
   0 -12   1  111.59    4.30
   0 -12  -1  104.39    4.50
  -1 -12  -1   10.10    1.70
   1 -12   1   10.20    1.60
  -1 -12  -1    9.60    2.40
  -1 -12  -1    9.30    1.60
   1 -12  -1    9.80    1.50
  -1 -12   1    6.90    1.40
  -1 -12   1    8.80    1.80
  -2 -12  -1    2.40    1.20
  -2 -12  -1    2.50    1.20
   2 -12   1    5.30    1.90
   2 -12   1    4.70    1.20
  -2 -12  -1    2.50    1.00
   2 -12   1    3.90    1.10
  -2 -12   1    3.10    1.30
  -2 -12   1    2.90    1.20
   2 -12  -1    2.70    1.00
  -2 -12   1    3.70    1.10
   2 -12  -1    2.50    1.20
   3 -12   1   12.30    1.60
  -3 -12  -1   10.30    1.50
  -3 -12  -1    9.20    1.80
   3 -12   1   12.20    2.50
   3 -12   1   10.70    1.70
  -3 -12   1    8.60    1.70
   3 -12  -1   13.00    1.50
   3 -12  -1   10.40    1.80
  -3 -12   1   11.40    1.60
   3 -12  -1   13.60    2.80
   4 -12   1   80.99    3.50
   4 -12   1   88.79    3.60
   4 -12   1   83.09    3.90
  -4 -12  -1   78.09    3.60
  -4 -12  -1   81.29    3.60
   4 -12  -1   83.79    4.00
  -4 -12   1   86.79    3.60
   4 -12  -1   85.29    3.50
   4 -12  -1   82.59    3.60
  -4 -12   1   84.19    3.60
   5 -12   1   18.40    1.60
   5  12  -1   11.80    2.50
   5 -12   1   12.00    1.70
  -5 -12  -1   11.10    1.50
  -5 -12  -1   12.60    1.60
   5 -12   1   17.60    2.00
  -5 -12   1   13.10    1.50
   5  12   1   14.00    2.10
   5 -12  -1   10.60    2.10
  -5 -12   1   16.50    1.60
   5 -12  -1   14.50    1.60
   5 -12  -1   10.50    1.50
   6 -12   1   43.60    2.50
   6 -12   1   50.89    2.40
  -6 -12  -1   46.00    2.40
  -6 -12  -1   54.79    2.50
   6 -12   1   48.80    2.60
   6  12   1   40.50    2.90
   6 -12  -1   45.00    2.50
  -6 -12   1   50.09    2.40
   6 -12  -1   46.90    2.70
  -6 -12   1   49.70    2.50
   6 -12  -1   50.79    2.40
  -7 -12  -1   16.90    1.40
   7 -12   1   18.40    1.70
   7 -12   1   17.60    1.40
   7 -12   1   14.80    1.70
  -7 -12  -1   18.40    1.40
  -7 -12   1   16.50    1.40
   7 -12  -1   15.60    1.70
   7 -12  -1   18.10    1.70
  -7 -12   1   17.00    1.40
   7 -12  -1   17.00    1.40
  -8 -12  -1   13.30    1.20
   8 -12   1   12.90    1.70
   8 -12   1   13.80    1.10
  -8 -12  -1   11.70    1.20
   8 -12  -1   11.50    1.50
   8 -12  -1   10.90    1.10
  -8 -12   1   12.70    1.20
  -8 -12   1   11.60    1.20
  -9 -12  -1    0.10    0.50
   9 -12   1    0.00    0.50
  -9 -12   1    1.30    0.60
   9 -12  -1    1.50    0.50
   0 -13  -1    0.50    1.10
   0 -13   1    0.50    1.30
   0 -13   1    0.40    1.30
   0 -13  -1    1.60    1.40
  -1 -13  -1    9.10    1.60
   1 -13   1   10.70    1.80
  -1 -13  -1    7.80    1.70
  -1 -13   1    8.60    1.70
  -1 -13   1   10.70    2.20
  -1 -13   1    8.40    2.00
   1 -13  -1    9.10    1.60
  -2 -13  -1   20.40    2.30
  -2 -13  -1   23.30    1.90
   2 -13   1   23.30    2.20
   2 -13  -1   20.70    2.20
  -2 -13   1   23.60    2.20
  -2 -13   1   22.30    1.80
   3 -13   1   13.30    1.80
  -3 -13  -1   12.50    1.50
  -3 -13  -1   12.10    1.90
   3 -13   1   12.40    1.80
   3 -13   1   11.30    1.80
  -3 -13   1   11.60    1.50
   3 -13  -1   14.60    1.70
  -3 -13   1   14.90    1.70
   3 -13  -1   12.00    1.80
   4 -13   1    9.30    1.70
  -4 -13  -1    9.90    1.40
   4 -13   1    9.20    1.50
  -4 -13  -1   11.70    1.70
   4 -13   1    8.90    1.60
   4 -13  -1    7.80    1.60
  -4 -13   1   11.00    1.40
  -4 -13   1    8.50    1.50
   4 -13  -1    8.40    1.60
   4 -13  -1    8.10    1.60
   5 -13   1   -1.40    0.80
   5 -13   1    0.50    1.20
   5 -13   1    0.70    1.10
  -5 -13  -1    0.10    0.70
  -5 -13  -1    0.40    0.90
   5  13   1    1.60    1.50
  -5 -13   1    0.20    0.80
  -5 -13   1    1.70    0.90
   5 -13  -1   -0.40    0.80
   5 -13  -1   -0.20    1.00
  -6 -13  -1    2.40    0.80
   6 -13   1    1.10    1.10
  -6 -13  -1    1.80    0.80
   6 -13   1    3.00    0.70
   6 -13   1    2.90    1.00
   6 -13  -1    2.00    0.80
  -6 -13   1    1.80    0.80
   6 -13  -1    3.40    1.00
  -6 -13   1    1.60    0.70
   6 -13  -1    3.60    1.10
  -7 -13  -1    1.90    0.70
   7 -13   1   -0.40    1.10
   7 -13   1    1.00    0.60
  -7 -13  -1    1.60    0.60
   7 -13   1    0.80    0.80
  -7 -13   1    0.90    0.60
   7 -13  -1    1.80    0.60
  -7 -13   1    0.60    0.70
   7 -13  -1    3.30    1.00
  -8 -13  -1    0.40    0.70
   8 -13   1    0.20    0.50
  -8 -13  -1    0.90    0.50
  -8 -13   1    0.20    0.50
   8 -13  -1    0.00    0.50
  -8 -13   1   -0.30    0.80
   0 -14   1   21.20    2.30
   0 -14  -1   15.50    1.90
   0 -14   1   13.00    2.10
   0 -14  -1   16.40    2.10
  -1 -14  -1   -0.50    1.20
   1 -14   1    0.50    1.40
  -1 -14  -1   -0.80    1.10
  -1 -14   1    0.00    1.00
  -1 -14   1   -1.30    1.40
   1 -14  -1    1.50    1.20
  -2 -14  -1    6.10    1.40
  -2 -14  -1    5.40    1.40
   2 -14   1    5.10    1.40
   2 -14   1    4.20    1.30
   2 -14  -1    2.90    1.10
  -2 -14   1    1.90    1.20
   2 -14  -1    4.20    1.30
  -2 -14   1    3.50    1.00
   3 -14   1   19.20    2.10
  -3 -14  -1   21.80    1.70
   3 -14   1   18.30    1.80
  -3 -14  -1   21.30    2.00
   3 -14  -1   19.20    1.90
  -3 -14   1   19.10    1.70
   3 -14  -1   20.40    1.90
  -3 -14   1   21.50    1.90
   4 -14   1   15.80    2.20
  -4 -14  -1   17.80    1.50
   4 -14   1   14.30    2.00
  -4 -14   1   15.30    1.50
   4 -14  -1   13.60    1.80
   4  14   1   13.50    2.40
   5 -14   1    2.60    1.20
   5 -14   1    0.30    1.40
  -5 -14  -1    1.20    0.80
  -5 -14  -1    1.30    0.70
   5 -14   1    0.30    0.70
   5 -14  -1    0.40    1.10
  -5 -14   1    0.10    0.80
   5 -14  -1    1.00    0.70
  -5 -14   1   -0.10    0.60
   5 -14  -1   -0.40    1.20
   6 -14   1    6.60    1.50
  -6 -14  -1    7.50    1.20
  -6 -14  -1    7.00    1.00
   6 -14   1    6.40    1.00
   6 -14   1    9.20    1.60
  -6 -14   1    7.80    1.00
   6 -14  -1    7.20    1.70
   6 -14  -1    7.30    1.10
  -6 -14   1    6.70    1.20
  -7 -14  -1   -0.30    0.60
  -7 -14  -1    0.20    0.50
   7 -14   1    0.40    0.50
  -7 -14   1    0.00    0.60
  -7 -14   1    0.40    0.50
   7 -14  -1    0.10    0.50
  -8 -14  -1    3.40    0.80
  -8 -14  -1    4.10    0.80
   8 -14   1    3.20    0.70
  -8 -14   1    2.30    0.60
   8 -14  -1    4.60    0.70
  -8 -14   1    5.30    0.80
   0 -15  -1    0.50    1.40
  -1 -15  -1   19.00    2.40
   1 -15  -1   22.70    2.10
  -2 -15  -1   25.40    2.60
  -2 -15   1   31.10    2.60
  -2 -15   1   33.20    2.20
   2 -15  -1   31.10    2.40
  -3 -15  -1   23.60    1.70
  -3 -15  -1   23.10    2.00
   3 -15   1   21.70    1.80
   3 -15  -1   24.60    2.10
  -3 -15   1   19.50    1.50
   3 -15  -1   20.20    1.80
  -3 -15   1   21.00    1.80
  -4 -15  -1   -0.40    0.60
   4 -15   1    0.60    0.80
  -4 -15  -1    0.70    0.90
  -4 -15   1    2.10    0.90
   4 -15  -1    0.10    1.20
  -4 -15   1    0.80    0.70
   4 -15  -1    0.50    0.80
  -5 -15  -1    1.80    0.80
   5 -15   1    2.30    0.70
  -5 -15  -1    2.30    0.60
  -5 -15   1    3.00    0.70
  -5 -15   1    4.60    1.10
   5 -15  -1    1.10    1.30
   5 -15  -1    4.50    1.10
  -6 -15  -1    5.30    0.90
  -6 -15  -1    7.40    1.10
   6 -15   1    6.50    0.90
   6 -15  -1    5.60    0.90
  -6 -15   1    8.10    1.00
  -6 -15   1    6.10    0.90
   7 -15   1    2.10    0.50
  -7 -15  -1    1.50    0.50
  -7 -15  -1    3.30    0.90
   7 -15  -1    2.40    0.50
  -7 -15   1    2.40    0.60
  -7 -15   1    2.80    0.70
  -1 -16  -1    0.50    1.00
  -1 -16   1    3.20    1.10
  -2 -16  -1   48.80    2.40
  -2 -16   1   52.99    2.40
  -3 -16  -1   14.30    1.30
  -3 -16   1   14.80    1.30
  -3 -16   1   14.80    1.70
  -4 -16  -1    0.60    1.30
   4 -16   1    0.70    0.80
  -4 -16  -1    0.50    0.60
  -4 -16   1    1.60    0.90
   4 -16  -1    0.90    1.00
  -4 -16   1   -0.70    0.60
   5 -16   1    5.20    1.10
  -5 -16  -1    5.80    0.90
  -5 -16  -1    5.60    1.20
  -5 -16   1    6.40    1.10
   5 -16  -1    5.60    1.10
  -5 -16   1    4.60    0.80
  -6 -16  -1    1.40    0.50
   6 -16   1    1.40    0.60
  -6 -16  -1    0.50    0.80
   6 -16  -1    2.50    0.60
  -6 -16   1    0.80    0.60
  -6 -16   1    2.60    0.70
  -2 -17  -1   38.70    2.20
  -2 -17   1   39.80    2.50
  -3 -17  -1   46.70    2.50
  -3 -17   1   44.60    2.60
  -4 -17  -1   18.10    1.10
  -4 -17   1   16.10    1.10
  -5 -17  -1    3.20    0.70
  -5 -17   1    4.50    0.80
   0   0   2  105.09    3.40
   1   0   2 1982.50   57.09
   1   0  -2 1660.23   56.89
  -1   0   2 1757.92   56.99
  -2   0   2  204.18    6.40
   2   0   2  196.28    6.30
   2   0  -2  178.58    6.40
   3   0  -2   20.20    1.20
  -3   0   2   22.10    1.20
   3   0   2   23.00    1.10
   4   0   2  583.74   19.20
  -4   0   2  611.94   19.40
   4   0  -2  586.54   19.20
   4   0   2  604.04   19.20
   4   0  -2  597.24   19.40
   5   0  -2   27.30    1.50
   5   0   2   25.30    1.50
   5   0   2   27.10    1.80
  -5   0   2   25.90    2.40
   6   0  -2  764.72   25.00
   6   0   2  795.32   25.10
   6   0  -2  767.72   25.60
  -7   0  -2  236.18    9.20
   7   0  -2  273.47    9.00
   7   0   2  270.77    9.00
   8   0  -2  336.87   11.50
  -8   0  -2  325.77   11.60
   8   0   2  353.66   11.60
   9   0   2   28.50    1.90
  -9   0   2   29.80    2.10
   9   0  -2   26.60    1.90
  10   0  -2   77.09    3.40
 -10   0   2   81.59    3.30
 -10   0  -2   82.29    3.40
  10   0   2   76.99    3.40
 -11   0   2   97.19    3.80
  11   0  -2  107.79    4.00
  11   0   2   97.99    3.90
   0  -1  -2    0.00    0.10
   0   1  -2    0.00    0.10
   0   1   2    0.10    0.10
   1   1  -2  272.97    9.50
  -1   1   2  283.97    9.40
   1   1   2  310.07    9.50
   1  -1  -2  293.87    9.40
  -1  -1   2  303.57    9.50
   2   1  -2   24.80    1.20
  -2   1   2   25.80    1.20
   2  -1  -2   25.30    1.10
  -2  -1   2   26.50    1.20
   2   1   2   24.40    1.10
  -2   1  -2   27.40    0.90
   3   1  -2  669.93   21.50
  -3   1   2  680.23   21.40
   3  -1   2  664.33   21.20
   3  -1  -2  643.84   21.40
  -3  -1   2  667.83   21.50
  -3   1  -2  687.73   21.20
   3   1   2  652.13   21.40
  -4   1   2  851.61   26.80
   4  -1   2  836.12   26.50
   4   1  -2  840.62   26.90
   4  -1   2  832.82   26.60
  -4  -1   2  831.72   26.90
   4  -1  -2  822.02   26.60
   4   1   2  820.72   26.70
   4   1   2  818.72   26.70
   4  -1  -2  842.02   26.80
   5   1  -2 1278.87   40.80
   5   1  -2 1236.88   40.40
  -5   1   2 1260.47   40.70
   5  -1   2 1288.47   40.50
   5  -1   2 1269.87   40.40
   5   1   2 1258.47   40.50
   5   1   2 1279.57   40.70
  -5  -1   2 1237.38   40.90
   5  -1  -2 1270.27   40.40
   5  -1  -2 1314.67   40.70
   6   1  -2  220.18    8.70
   6  -1   2  236.38    7.70
   6   1  -2  217.68    7.70
   6  -1  -2  233.68    7.70
   6   1   2  212.28    7.70
   7  -1   2  132.59    5.30
   7   1  -2  131.29    4.90
  -7  -1  -2  121.09    5.30
   7  -1   2  136.99    5.00
   7  -1  -2  139.29    4.90
   7   1   2  131.39    5.00
   8  -1   2    7.70    1.30
   8   1  -2    5.10    1.00
   8   1   2    6.30    1.20
   8  -1  -2    8.50    1.30
   9  -1   2  221.98    8.10
  -9  -1  -2  233.28    8.20
   9   1  -2  231.48    8.10
   9   1   2  231.98    8.20
  -9  -1   2  242.58    8.00
   9  -1  -2  217.18    8.10
  10  -1   2    1.40    0.80
 -10   1   2    0.30    0.80
  10   1  -2    0.50    0.90
 -10  -1   2    0.00    1.00
  10   1   2   -0.40    0.90
 -10   1  -2   -1.30    1.00
  10  -1  -2    0.10    0.90
  11  -1   2   13.80    1.40
 -11   1   2   11.80    1.50
  11   1  -2   13.50    1.50
  11  -1  -2   11.50    1.50
  11   1   2   14.60    1.40
   0   2  -2  417.56   13.90
   0  -2  -2  416.56   14.00
   0  -2   2  455.85   13.90
   0   2   2  455.45   14.00
  -1   2   2  782.52   24.00
   1   2  -2  743.53   24.10
  -1  -2   2  710.33   24.10
  -1   2  -2  795.92   23.90
   1   2   2  775.72   24.10
   1  -2  -2  726.63   24.00
   2   2  -2  104.19    4.10
   2  -2   2  128.09    3.80
  -2   2   2  119.89    4.00
  -2   2  -2  126.29    3.80
  -2  -2   2  110.89    4.10
   2   2   2  114.29    4.10
   2  -2  -2  116.79    4.00
   3   2  -2   68.19    2.70
   3  -2   2   65.79    2.30
  -3   2   2   69.09    2.60
  -3   2  -2   71.59    2.30
   3   2   2   65.29    2.60
   3  -2  -2   65.59    2.50
  -3  -2   2   64.89    2.70
   4   2  -2  185.58    6.40
   4  -2   2  172.68    6.00
  -4   2   2  148.99    6.30
   4   2  -2  167.98    6.00
   4  -2   2  186.28    5.80
  -4   2  -2  189.58    5.80
   4   2   2  181.08    6.30
  -4  -2   2  165.38    6.30
   4   2   2  176.68    6.00
   4  -2  -2  178.18    6.00
   4  -2  -2  181.08    6.10
   5   2  -2  253.27    9.30
   5   2  -2  262.57    8.70
   5  -2   2  273.97    8.70
  -5   2   2  250.87    9.10
   5  -2   2  261.17    8.50
   5   2   2  257.47    9.10
  -5  -2   2  247.18    9.40
   5  -2  -2  262.77    8.70
   5   2   2  271.17    8.80
   5  -2  -2  253.07    8.90
   6   2  -2   49.40    4.50
   6  -2   2   50.59    3.20
   6  -2   2   52.09    2.30
   6   2  -2   50.99    2.40
   6   2   2   50.99    2.40
   6   2   2   51.09    4.10
   6  -2  -2   52.09    3.00
   6  -2  -2   55.39    2.40
   7  -2   2   35.70    2.00
   7  -2   2   39.80    2.70
  -7  -2  -2   32.10    2.60
   7   2  -2   38.20    2.00
  -7  -2   2   32.50    2.80
   7  -2  -2   37.20    2.00
   7  -2  -2   37.60    2.50
   7   2   2   35.60    2.00
  -7  -2   2   33.80    2.60
   8  -2   2  150.68    5.60
   8  -2   2  150.18    5.80
  -8  -2  -2  149.59    5.70
   8   2  -2  155.88    5.60
   8   2   2  152.18    5.60
  -8  -2   2  144.29    5.60
  -8  -2   2  129.69    6.20
   8  -2  -2  158.28    5.60
   9   2  -2    2.30    1.00
   9  -2   2    1.60    0.90
  -9  -2  -2   -0.20    1.20
   9   2   2    0.90    0.90
  -9  -2   2    1.30    1.20
   9  -2  -2    1.10    0.80
 -10  -2  -2  154.58    5.80
  10   2  -2  142.09    5.80
  10  -2   2  144.29    5.40
 -10   2   2  148.89    5.30
  10   2   2  146.79    5.50
  10  -2  -2  137.19    5.40
  11  -2   2   44.20    2.20
 -11   2   2   43.30    2.10
  11   2  -2   47.20    2.40
  11   2   2   44.40    2.20
 -11   2  -2   43.80    2.20
  11  -2  -2   44.70    2.20
   1   3  -2 2050.89   68.69
  -1   3   2 2270.17   69.19
  -1   3  -2 2280.57   69.09
  -1  -3   2 2110.49   68.69
   1   3   2 2176.28   68.79
   1  -3  -2 2146.99   68.79
  -2   3   2 2718.43   85.79
   2   3  -2 2674.93   85.89
  -2   3  -2 3042.40   85.99
   2   3   2 2695.93   85.89
   2   3   2 2807.12   85.99
   2  -3  -2 2663.83   85.79
  -2  -3   2 2396.56   86.09
   3  -3   2   67.49    2.30
   3   3  -2   65.79    2.80
  -3   3   2   67.99    2.60
   3  -3  -2   67.09    2.60
   3   3   2   65.19    2.80
  -3  -3   2   63.39    2.80
  -3   3  -2   72.39    2.30
   4  -3   2  560.84   18.10
  -4   3   2  539.35   18.30
   4   3  -2  559.04   18.60
   4   3  -2  537.25   18.20
   4  -3  -2  569.74   18.20
   4   3   2  554.54   18.20
   4   3   2  566.74   18.50
  -4  -3   2  564.44   18.60
  -4   3  -2  607.24   17.90
   4  -3  -2  567.04   18.10
   5   3  -2  529.65   17.20
   5   3  -2  555.44   18.00
   5  -3   2  522.85   17.20
  -5   3   2  514.05   17.50
   5  -3  -2  535.25   17.40
   5  -3  -2  518.45   17.20
   5   3   2  530.05   17.20
   5   3   2  529.25   17.80
   6  -3   2  114.39    4.20
   6   3  -2  123.49    6.90
   6  -3   2  108.79    4.70
  -6  -3  -2  102.89    4.50
   6   3  -2  113.59    4.30
   6  -3  -2  112.79    4.20
   6   3   2  113.69    4.30
  -6  -3   2  116.69    4.80
   6   3   2  109.09    6.00
   6  -3  -2  105.89    4.60
   7  -3   2   94.49    4.30
   7  -3   2   96.09    4.20
  -7  -3  -2   96.99    4.10
   7   3  -2   94.69    3.90
   7  -3   2   97.89    3.80
   7  -3  -2   98.39    3.80
   7  -3  -2   97.79    4.10
   7   3   2   99.89    3.90
  -7  -3   2   96.59    4.20
   7  -3  -2   88.69    4.10
  -7  -3   2   93.39    4.10
  -8  -3  -2   21.90    2.10
   8  -3   2   22.20    1.70
   8  -3   2   20.90    2.20
   8  -3   2   18.40    3.00
   8   3  -2   24.50    1.80
   8  -3  -2   23.30    2.50
  -8  -3   2   18.80    2.30
   8   3   2   25.70    1.80
   8  -3  -2   25.50    1.70
  -8  -3   2   24.70    2.40
   9  -3   2   38.20    2.30
  -9  -3  -2   44.70    2.60
   9   3  -2   41.70    2.40
  -9  -3   2   40.10    2.80
   9  -3  -2   41.30    2.30
   9   3   2   46.40    2.40
  10  -3   2    5.60    1.30
  10   3  -2    6.60    1.60
 -10  -3  -2    4.40    1.30
  10  -3  -2    5.80    1.20
  10   3   2    3.50    1.00
 -11   3   2   37.50    1.90
  11  -3   2   37.60    1.90
  11   3  -2   35.60    2.30
 -11   3  -2   38.00    1.90
  11   3   2   36.10    2.10
  11  -3  -2   34.20    2.00
   0   4   2  602.24   18.70
   0   4  -2  552.64   18.50
  -1   4   2  298.97    9.30
   1   4  -2  270.67    9.40
   1  -4  -2  289.87    9.30
   1   4   2  257.97    9.60
  -1   4  -2  291.17    9.20
  -1   4  -2  281.67    9.20
  -2   4   2 2002.50   62.09
   2   4  -2 1855.51   62.19
   2  -4  -2 1893.61   61.99
  -2   4  -2 2032.20   61.89
   2   4   2 1921.41   62.19
   2   4   2 2042.30   62.29
   3   4  -2   16.30    1.60
  -3   4   2   16.10    1.20
   3  -4  -2   15.20    1.10
   3  -4  -2   16.20    1.20
  -3   4  -2   17.30    0.90
   3   4   2   13.40    1.80
   3   4   2   15.70    1.40
  -4   4   2   30.40    2.00
   4   4  -2   37.00    2.40
   4   4  -2   33.10    1.80
   4  -4   2   32.50    1.60
   4   4   2   33.60    3.00
   4  -4  -2   33.70    1.60
   4  -4  -2   33.80    1.90
   4   4   2   35.00    2.40
   5  -4   2   54.39    2.30
   5   4  -2   55.09    2.40
  -5   4   2   45.60    3.30
   5   4  -2   55.99    3.70
   5   4   2   55.19    3.70
   5  -4  -2   51.59    2.90
   5   4   2   52.29    2.40
   5  -4  -2   49.60    2.20
   6  -4   2    6.50    1.50
   6  -4   2    3.60    0.80
  -6  -4  -2    5.80    1.30
   6   4  -2    4.70    1.00
   6  -4   2    4.30    1.30
  -6  -4   2    8.40    1.90
   6  -4  -2    5.50    1.30
   6  -4  -2    4.80    1.00
   6   4   2    5.70    1.20
   6  -4  -2    2.40    1.20
   7   4  -2    2.00    1.00
  -7  -4  -2    2.80    1.20
   7  -4   2    1.60    1.30
   7  -4   2    1.60    0.70
   7  -4   2    1.70    1.30
   7   4   2    1.90    0.90
   7  -4  -2    1.90    0.80
  -7  -4   2    2.00    1.20
   7  -4  -2    1.80    1.20
   7  -4  -2    2.90    1.30
   8  -4   2   12.60    1.40
  -8  -4  -2   10.10    1.70
   8  -4   2   10.40    1.60
   8  -4   2   13.70    2.10
   8   4  -2   13.60    1.60
  -8  -4   2    7.50    1.40
   8  -4  -2    9.90    1.40
   8  -4  -2    8.30    2.00
   8   4   2   11.60    1.50
   9   4  -2   77.49    3.40
  -9  -4  -2   81.79    3.50
   9  -4   2   70.79    3.30
   9  -4  -2   74.69    3.60
   9  -4  -2   76.29    3.30
  -9  -4   2   75.89    3.50
   9   4   2   75.09    3.40
  10   4  -2   29.30    2.10
 -10  -4  -2   30.90    2.10
  10  -4   2   28.10    1.80
 -10  -4   2   30.90    2.30
  10  -4  -2   29.10    1.80
  10   4   2   30.00    2.00
  11  -4   2   10.00    1.40
 -11   4   2   11.30    1.10
  11   4  -2    9.80    2.10
  11   4   2    9.00    1.60
 -11   4  -2   12.00    1.30
  11  -4  -2   13.10    1.40
   0   5  -2   -0.10    0.50
   0   5  -2    0.10    0.40
   0   5   2   -0.20    0.50
   1   5  -2  166.18    5.90
  -1   5   2  166.38    5.90
  -1   5  -2  168.88    5.80
   1   5   2  178.38    6.10
  -1   5  -2  165.28    5.70
   1  -5  -2  158.88    5.80
   2   5  -2   88.19    3.50
  -2   5   2   81.59    3.20
   2   5   2   82.19    3.40
  -2   5  -2   84.69    3.00
   2  -5  -2   79.19    3.20
   2   5   2   79.19    3.50
   3   5  -2   65.09    3.10
  -3  -5  -2   67.09    2.70
  -3   5   2   65.69    2.90
   3  -5   2   66.59    2.60
   3  -5  -2   67.89    2.80
   3   5   2   62.99    3.40
  -3   5  -2   69.29    2.50
   3  -5  -2   65.99    2.60
   3   5   2   66.69    3.10
   4   5  -2    4.20    1.20
  -4   5   2    5.30    1.20
   4   5  -2    4.30    0.90
   4  -5   2    4.60    0.90
   4  -5  -2    3.40    0.90
   4   5   2    4.30    1.30
   4  -5  -2    5.50    0.90
   5  -5   2  100.49    4.60
   5  -5   2  115.59    4.00
   5   5  -2  111.59    5.90
   5   5  -2  107.29    4.10
  -5  -5  -2  104.69    4.30
   5   5   2  104.39    4.20
   5  -5  -2  114.19    4.00
   5   5   2  106.39    5.70
   5  -5  -2  102.39    4.50
  -6  -5  -2    0.00    1.40
   6  -5   2   -1.60    1.20
   6  -5   2    0.50    1.20
   6  -5   2    0.80    0.70
   6   5  -2    0.30    0.80
  -6  -5  -2    0.10    1.00
   6   5   2   -0.20    0.80
   6  -5  -2   -0.50    1.00
  -6  -5   2    0.20    1.40
   6  -5  -2   -0.60    1.20
   6  -5  -2    2.00    0.70
  -6  -5   2    0.00    1.10
   7  -5   2   12.40    2.00
   7  -5   2   10.10    1.90
   7  -5   2   13.70    1.40
  -7  -5  -2    8.00    1.70
   7   5  -2   12.50    1.60
   7   5   2   14.40    1.60
  -7  -5   2   10.50    1.80
   7  -5  -2    7.70    1.90
   7  -5  -2   13.80    1.40
   7  -5  -2   12.60    1.90
  -7  -5   2    7.30    1.80
   8   5  -2  197.78    7.10
   8  -5   2  192.68    7.00
  -8  -5  -2  187.98    7.00
   8  -5   2  192.78    7.20
  -8  -5   2  192.58    7.00
   8  -5  -2  192.38    7.00
   8   5   2  197.08    7.20
   8  -5  -2  195.28    7.20
   9   5  -2    7.40    1.60
   9  -5   2    8.60    2.00
  -9  -5  -2   11.30    1.60
   9  -5   2    7.70    1.30
   9   5   2    5.90    1.50
   9  -5  -2    9.50    1.90
  -9  -5   2    6.80    1.70
   9  -5  -2    9.40    1.30
 -10  -5  -2   16.00    1.70
  10  -5   2   15.50    1.50
  10   5  -2   17.80    1.90
  10   5   2   18.00    1.70
 -10  -5   2   17.40    1.80
  10  -5  -2   16.90    1.50
  11  -5   2    7.30    1.40
 -11   5   2    6.00    1.00
  11  -5  -2    5.90    1.30
 -11   5  -2    4.90    1.10
  11   5   2    8.60    1.30
   0   6  -2    0.80    0.60
   0   6   2    2.10    0.70
   0   6  -2    1.60    0.80
  -1   6   2  174.68    6.30
   1   6  -2  175.68    6.40
   1   6  -2  170.68    6.30
  -1   6  -2  180.78    6.10
   1  -6  -2  169.78    5.90
   1   6   2  170.08    6.40
  -1   6  -2  172.48    6.10
   2  -6   2   10.60    1.20
  -2   6   2   12.00    1.60
  -2  -6  -2   12.00    1.20
   2   6  -2   11.90    1.60
   2   6   2   14.50    1.60
  -2   6  -2   14.10    1.20
   2  -6  -2   12.40    1.10
   2  -6  -2   11.70    1.50
  -2   6  -2   13.70    1.30
   2   6   2   11.60    2.00
   3  -6   2  237.98    8.00
   3   6  -2  242.28    8.80
  -3  -6  -2  234.48    8.10
  -3   6   2  230.88    8.40
   3  -6  -2  229.18    8.30
  -3   6  -2  245.68    8.00
   3  -6  -2  240.28    8.00
  -3   6  -2  250.67    8.10
   3   6   2  249.58    8.80
  -4   6   2   97.59    4.80
   4   6  -2  110.59    5.30
   4  -6   2  110.39    4.00
   4  -6  -2  103.59    4.60
   4   6   2  111.09    5.30
   4  -6  -2  118.09    4.00
   5  -6   2   10.50    1.20
   5   6  -2    9.80    1.60
  -5  -6  -2   10.70    1.90
  -5  -6  -2   12.30    1.60
   5  -6   2   10.50    2.10
   5  -6   2   11.60    1.90
  -5  -6   2   11.00    1.70
   5  -6  -2   12.60    1.20
   5  -6  -2   12.10    2.20
   5  -6  -2    9.70    1.80
  -5  -6   2    7.50    1.80
   5   6   2   10.70    1.30
   6  -6   2   23.20    1.50
  -6  -6  -2   17.40    2.10
  -6  -6  -2   16.60    1.80
   6  -6   2   16.00    2.00
   6  -6   2   18.00    2.10
   6   6  -2   19.30    1.80
   6  -6  -2   20.20    1.50
   6  -6  -2   19.30    1.90
  -6  -6   2   18.00    1.90
   6   6   2   19.60    1.70
   6  -6  -2   17.50    2.00
  -6  -6   2   20.70    2.10
  -7  -6  -2    9.80    2.00
   7  -6   2   12.00    1.80
   7  -6   2   15.30    1.50
   7  -6   2   10.50    2.00
  -7  -6  -2   14.70    1.70
   7   6  -2   11.20    1.70
   7  -6  -2   11.60    2.00
   7  -6  -2   13.90    1.80
  -7  -6   2   13.70    1.80
   7   6   2   10.00    1.60
  -7  -6   2   13.20    1.80
   7  -6  -2   14.70    1.40
   8  -6   2   21.80    2.10
   8  -6   2   21.20    2.00
  -8  -6  -2   20.80    2.50
  -8  -6  -2   20.70    1.80
   8  -6   2   20.70    1.70
   8   6  -2   19.40    2.00
  -8  -6   2   21.80    2.60
   8  -6  -2   20.10    1.60
  -8  -6   2   22.20    1.90
   8  -6  -2   20.70    2.00
   8   6   2   18.50    1.80
   8  -6  -2   18.20    2.10
  -9  -6  -2    1.20    0.90
   9  -6   2    0.20    1.00
   9   6  -2    1.30    1.10
   9  -6   2    0.70    0.80
   9  -6  -2    0.70    0.80
   9   6   2   -0.10    1.00
  -9  -6   2   -0.90    0.90
   9  -6  -2   -0.40    1.00
  10   6  -2    1.20    1.40
 -10  -6  -2    2.50    0.90
  10  -6   2    2.40    0.90
  10  -6  -2    0.50    1.10
 -10  -6   2    3.00    0.90
  10  -6  -2    1.40    0.90
 -11  -6  -2   11.70    1.60
 -11   6   2   12.60    1.10
  11  -6   2   11.70    1.50
  11  -6  -2   10.40    1.40
 -11   6  -2   10.80    1.30
   0   7  -2    0.90    1.00
   0   7   2    0.20    1.10
   0  -7  -2   -0.10    0.60
   1   7  -2  162.88    6.50
   1  -7   2  160.48    5.70
  -1   7   2  163.68    6.30
  -1  -7  -2  167.88    5.80
   1   7  -2  174.68    6.40
  -1   7  -2  169.08    6.20
   1   7   2  158.38    6.50
   1   7   2  178.78    6.40
  -1   7  -2  168.48    6.10
   1  -7  -2  173.78    5.80
  -2   7   2   89.49    4.30
   2  -7   2   96.69    3.60
   2   7  -2  101.39    4.40
  -2  -7  -2   94.39    3.60
  -2  -7   2   95.69    3.70
   2  -7  -2  100.69    3.60
  -2   7  -2  101.99    3.90
  -2   7  -2   94.59    4.00
   2   7   2  102.59    4.40
  -3  -7  -2  305.57   10.40
   3  -7   2  309.87   10.30
   3   7  -2  312.67   11.30
  -3   7   2  302.07   11.00
  -3   7  -2  317.37   10.40
  -3   7  -2  310.67   10.50
   3  -7  -2  307.57   10.30
   3   7   2  322.67   11.30
   4  -7   2   94.69    4.40
   4  -7   2  112.09    3.90
  -4  -7  -2  100.29    4.20
   4  -7   2  105.29    4.20
  -4  -7  -2  107.39    4.20
   4  -7  -2   99.99    4.50
  -4  -7   2  100.39    4.10
   4  -7  -2   99.99    4.20
  -4  -7   2  103.29    4.10
   4  -7  -2  111.99    3.90
   5  -7   2   45.60    2.90
  -5  -7  -2   51.39    2.60
  -5  -7  -2   49.00    2.60
   5   7  -2   50.29    2.60
   5  -7   2   51.39    2.60
   5  -7   2   48.50    2.30
  -5  -7   2   46.80    2.60
   5   7   2   48.90    2.50
  -5  -7   2   49.30    2.60
   5  -7  -2   47.90    2.60
   5  -7  -2   48.10    2.30
   5  -7  -2   47.80    3.00
  -6  -7  -2   40.90    2.40
   6   7  -2   43.60    2.50
   6  -7   2   39.80    2.70
   6  -7   2   39.80    2.10
   6  -7   2   44.50    2.50
  -6  -7  -2   44.80    2.50
   6  -7  -2   44.20    2.20
  -6  -7   2   41.20    2.50
   6   7   2   43.00    2.40
   6  -7  -2   37.40    2.60
   6  -7  -2   39.70    2.40
  -6  -7   2   42.30    2.40
   7  -7   2    3.40    0.90
   7  -7   2    4.10    1.10
   7  -7   2    3.60    1.20
  -7  -7  -2    4.10    1.00
   7   7  -2    5.50    1.30
  -7  -7  -2    5.50    1.30
  -7  -7   2    4.80    1.10
   7   7   2    8.80    1.60
   7  -7  -2    5.90    1.30
  -7  -7   2    3.60    1.30
   7  -7  -2    5.60    1.30
   7  -7  -2    1.90    0.90
   8  -7   2   37.20    2.20
   8  -7   2   44.00    2.40
   8   7  -2   40.70    2.50
   8  -7   2   38.80    2.60
  -8  -7  -2   40.40    2.60
  -8  -7  -2   38.90    2.30
   8  -7  -2   37.60    2.20
   8  -7  -2   41.10    2.30
  -8  -7   2   36.50    2.60
   8   7   2   42.00    2.50
  -8  -7   2   43.50    2.40
   8  -7  -2   42.00    2.50
   9  -7   2    2.90    1.00
   9  -7   2    2.80    1.00
   9  -7   2    4.70    1.50
   9   7  -2    3.20    1.30
   9  -7  -2    2.70    0.90
   9   7   2    2.60    1.10
   9  -7  -2    3.40    1.00
  -9  -7   2    5.60    1.60
  10  -7   2   19.30    1.70
 -10  -7  -2   21.50    1.50
  10  -7   2   22.60    1.90
  10  -7  -2   19.60    1.60
  10   7   2   24.20    1.90
 -10  -7   2   19.60    1.50
  10  -7  -2   20.60    1.60
 -11  -7  -2    3.30    1.00
 -11   7   2    1.40    0.60
 -11   7  -2    1.60    0.60
   0  -8  -2    2.90    0.80
   0   8  -2    0.80    1.00
   0  -8   2    1.90    0.90
   0   8  -2    2.40    1.50
   0   8   2    1.90    1.10
   1  -8   2   45.40    2.10
   1   8  -2   49.70    3.20
  -1   8   2   40.60    3.50
  -1  -8  -2   45.50    2.10
  -1  -8   2   44.90    2.30
  -1   8  -2   46.90    2.90
   1   8   2   50.49    3.20
   1  -8  -2   47.60    2.10
  -1   8  -2   43.90    3.40
  -2  -8  -2   -0.40    0.80
  -2   8   2    0.60    1.70
   2  -8   2    0.00    0.70
   2   8   2   -1.50    1.40
  -2  -8   2   -1.90    0.90
  -2   8  -2   -2.00    1.50
  -2   8  -2    0.10    1.10
   2  -8  -2   -0.10    0.60
   3  -8   2  120.09    4.30
   3  -8   2  113.09    4.60
  -3  -8  -2  119.59    4.60
  -3  -8  -2  129.69    4.90
  -3  -8   2  114.79    4.60
  -3  -8   2  113.19    4.60
   3  -8  -2  120.09    4.30
   3  -8  -2  111.39    4.60
   4  -8   2   10.10    1.30
  -4  -8  -2   11.10    1.60
   4  -8   2    9.40    2.30
   4  -8   2   11.20    1.80
  -4  -8  -2   11.60    1.60
  -4  -8   2    9.60    1.50
  -4  -8   2    9.50    1.60
   4  -8  -2   11.00    1.70
   4  -8  -2   10.70    1.20
   4  -8  -2   10.40    2.40
   5   8  -2   24.70    2.00
   5  -8   2   26.60    1.70
  -5  -8  -2   25.60    1.90
   5  -8   2   25.80    2.10
   5  -8   2   24.50    2.30
  -5  -8  -2   27.70    2.00
   5  -8  -2   28.00    2.00
  -5  -8   2   23.70    2.00
   5  -8  -2   25.30    1.70
  -5  -8   2   27.10    2.00
   5  -8  -2   30.10    2.50
  -6  -8  -2   32.80    2.20
  -6  -8  -2   36.00    2.20
   6  -8   2   35.30    2.30
   6  -8   2   33.60    2.00
   6   8  -2   37.20    2.40
   6  -8   2   33.20    2.60
  -6  -8   2   31.00    2.20
   6  -8  -2   34.00    2.20
   6   8   2   34.10    2.30
   6  -8  -2   37.30    2.10
   6  -8  -2   36.40    2.50
  -6  -8   2   33.90    2.20
   7  -8   2    1.40    0.90
  -7  -8  -2    0.10    1.10
   7  -8   2    2.20    1.20
  -7  -8  -2   -1.10    0.90
   7  -8   2    0.50    0.80
   7   8  -2    1.90    1.80
   7  -8  -2   -1.80    1.00
  -7  -8   2   -2.40    1.10
   7  -8  -2    0.70    0.90
  -7  -8   2    1.10    0.90
   7  -8  -2    0.00    0.80
  -8  -8  -2   31.30    2.00
   8  -8   2   32.30    2.30
   8  -8   2   36.30    2.10
   8   8  -2   30.90    2.40
  -8  -8  -2   33.60    2.30
   8  -8   2   29.20    2.10
  -8  -8   2   29.60    2.00
   8  -8  -2   33.80    2.30
   8  -8  -2   31.50    2.00
   8  -8  -2   32.50    2.10
  -8  -8   2   29.30    2.20
   8   8   2   30.40    2.20
   9   8  -2   20.40    3.20
   9  -8   2   20.90    1.60
  -9  -8  -2   18.20    1.60
   9  -8   2   19.00    1.70
   9  -8  -2   18.20    1.60
   9   8   2   21.20    2.00
  -9  -8   2   20.60    1.50
   9  -8  -2   19.30    1.70
 -10  -8  -2    0.00    0.60
  10  -8   2   -0.50    0.90
  10  -8   2    1.10    0.90
  10  -8  -2    1.10    0.80
  10   8   2   -1.60    1.30
 -10  -8   2    0.30    0.70
  10  -8  -2    0.40    0.80
 -11   8   2    4.60    0.80
 -11   8  -2    6.50    0.90
   0   9   2   -0.80    1.50
   0   9  -2    1.50    1.70
   0  -9   2    0.60    0.90
   0  -9  -2   -1.00    0.70
   1  -9   2  240.88    8.20
   1   9  -2  240.08    9.50
  -1  -9  -2  244.78    8.20
  -1   9   2  239.18    9.30
  -1  -9   2  241.58    8.30
   1   9   2  257.27   10.00
  -1   9  -2  236.98    9.10
   2  -9   2   18.10    2.30
  -2  -9  -2   19.00    1.80
   2  -9   2   19.50    1.50
  -2  -9  -2   15.60    1.50
  -2  -9   2   19.20    1.90
  -2  -9   2   17.90    1.70
  -2  -9   2   17.50    2.00
   2  -9  -2   17.20    1.30
   2  -9  -2   13.10    2.20
   3  -9   2    9.30    2.50
  -3  -9  -2   11.10    1.50
   3  -9   2   13.60    1.40
  -3  -9  -2   12.20    1.40
  -3  -9  -2   12.70    1.90
   3  -9   2   11.10    1.90
   3  -9  -2   10.80    1.80
  -3  -9   2   13.80    1.60
   3  -9  -2    9.90    2.00
  -3  -9   2    9.90    1.70
   3  -9  -2   11.20    1.20
  -4  -9  -2    1.80    1.00
   4  -9   2    0.60    0.80
  -4  -9  -2    1.70    1.10
   4  -9   2    1.20    1.00
   4  -9   2    0.80    1.30
  -4  -9   2    2.10    0.90
   4  -9  -2    1.70    0.80
   4  -9  -2    1.00    0.90
   4  -9  -2    2.20    1.40
  -4  -9   2    1.30    1.00
   5  -9   2    9.80    1.70
   5   9  -2   11.30    1.90
  -5  -9  -2    9.30    1.60
   5  -9   2   13.00    2.10
   5  -9   2   13.00    1.50
  -5  -9  -2   10.90    1.50
   5  -9  -2   12.20    1.50
   5  -9  -2   12.40    1.60
  -5  -9   2   10.90    1.60
  -5  -9   2   11.90    1.60
   6   9  -2   75.49    3.60
   6  -9   2   70.99    3.30
  -6  -9  -2   70.29    3.30
  -6  -9  -2   73.19    3.30
   6  -9   2   76.59    3.30
   6  -9   2   74.19    3.60
   6  -9  -2   80.49    3.30
   6  -9  -2   72.79    3.50
   6  -9  -2   70.69    3.30
   6   9   2   80.89    3.60
  -6  -9   2   72.99    3.30
  -6  -9   2   68.59    3.30
   7  -9   2  306.67   10.40
   7   9  -2  284.77   10.30
  -7  -9  -2  300.27   10.20
  -7  -9  -2  295.67   10.20
   7  -9   2  299.17   10.20
   7  -9   2  284.87   10.20
  -7  -9   2  306.87   10.30
  -7  -9   2  307.07   10.20
   7  -9  -2  301.47   10.40
   7   9   2  281.87   10.30
   7  -9  -2  305.17   10.20
   7  -9  -2  290.37   10.20
   8  -9   2    3.90    0.90
   8  -9   2    2.60    1.00
  -8  -9  -2   -0.20    1.40
   8   9  -2    3.70    1.60
  -8  -9  -2    5.20    1.30
   8  -9   2    1.00    1.00
   8  -9  -2    3.70    1.00
   8  -9  -2    2.00    0.80
   8  -9  -2    2.70    1.00
  -8  -9   2    2.40    0.90
   8   9   2    1.60    1.20
  -9  -9  -2   46.20    2.50
   9  -9   2   46.60    2.20
  -9  -9  -2   49.99    2.30
   9  -9   2   47.90    3.40
   9  -9  -2   48.60    2.20
   9  -9  -2   46.80    2.30
   9   9   2   48.60    2.70
  -9  -9   2   39.10    2.50
  -9  -9   2   49.30    2.20
 -10  -9  -2    0.80    0.60
  10  -9   2    1.40    1.00
  10  -9   2   -0.20    0.70
  10  -9  -2   -0.90    0.90
  10  -9  -2   -0.50    0.70
   0 -10  -2   75.79    3.10
   0 -10   2   83.49    4.10
   0 -10  -2   70.99    3.60
   0 -10   2   79.19    3.20
   0 -10   2   67.89    3.50
  -1 -10  -2    0.70    0.80
   1 -10   2   -1.30    1.60
   1 -10   2    1.00    0.90
  -1 -10  -2    3.80    1.30
  -1 -10  -2    2.40    1.70
   1 -10   2    1.00    2.10
  -1 -10   2    1.90    1.40
  -1 -10   2   -0.50    1.10
  -1 -10   2    3.60    1.30
   1 -10  -2    0.20    0.70
   1 -10  -2    2.30    1.60
  -2 -10  -2   49.30    2.80
   2 -10   2   45.50    3.50
   2 -10   2   49.40    2.30
   2 -10   2   47.70    2.80
  -2 -10  -2   48.90    2.60
  -2 -10  -2   50.09    2.50
   2 -10  -2   46.70    2.80
   2 -10  -2   51.09    2.30
  -2 -10   2   47.60    2.60
  -2 -10   2   52.09    2.60
  -2 -10   2   50.79    2.60
  -3 -10  -2   89.69    3.70
  -3 -10  -2   87.29    3.70
   3 -10   2   90.99    4.30
  -3 -10  -2   89.79    3.80
   3 -10   2   93.79    3.60
   3 -10   2   86.59    3.80
  -3 -10   2   90.59    3.70
   3 -10  -2   90.49    3.60
   3 -10  -2   84.09    4.40
  -3 -10   2   86.79    3.70
   3 -10  -2   86.89    3.70
  -4 -10  -2   -0.20    1.10
   4 -10   2    0.70    1.40
   4 -10   2    1.00    0.90
  -4 -10   2   -0.40    1.20
   4 -10  -2    0.80    0.80
   4 -10  -2    2.50    1.50
   5 -10   2  173.58    6.20
   5  10  -2  164.48    6.30
   5 -10   2  169.98    6.50
  -5 -10  -2  171.68    6.20
  -5 -10  -2  169.18    6.30
   5 -10   2  159.28    6.20
   5 -10  -2  162.78    6.20
   5 -10  -2  175.88    6.20
   5 -10  -2  163.58    6.40
  -5 -10   2  167.38    6.30
   5  10   2  176.68    6.40
  -5 -10   2  170.78    6.20
   6 -10   2    2.20    1.00
   6  10  -2    5.30    1.90
  -6 -10  -2    2.20    1.00
   6 -10   2    1.30    0.90
   6 -10   2    1.50    1.20
  -6 -10  -2    0.10    1.00
   6  10   2    1.20    1.20
   6 -10  -2    1.60    0.90
  -6 -10   2    0.90    1.00
   6 -10  -2    1.00    1.10
  -6 -10   2    1.80    0.90
   6 -10  -2    2.10    0.90
   7 -10   2    3.20    1.00
  -7 -10  -2    3.90    1.10
  -7 -10  -2    7.10    1.40
   7 -10   2    6.80    1.40
   7  10  -2    6.40    1.70
   7 -10   2    3.40    1.10
   7 -10  -2    6.90    1.80
  -7 -10   2    4.90    1.00
  -7 -10   2    5.30    1.10
   7 -10  -2    6.50    1.40
   7 -10  -2    5.10    1.10
   7  10   2    4.80    1.30
   8 -10   2    9.00    1.30
   8 -10   2   12.00    1.60
  -8 -10  -2   11.40    1.50
  -8 -10  -2    9.60    1.40
   8 -10   2   11.10    1.60
   8 -10  -2   11.10    1.30
  -8 -10   2   10.90    1.40
   8 -10  -2   12.80    1.40
   8  10   2   10.00    1.90
  -8 -10   2    9.80    1.30
   9 -10   2   -0.20    0.60
   9 -10   2    0.90    1.00
  -9 -10  -2    0.90    1.00
  -9 -10  -2   -0.90    0.60
   9 -10  -2   -0.90    0.80
  -9 -10   2    0.10    1.00
   9 -10  -2    0.30    0.60
   9  10   2    1.80    1.50
  -9 -10   2   -0.60    0.60
  10 -10   2   -0.10    0.70
 -10 -10  -2   -0.70    0.50
  10 -10  -2    0.70    0.60
 -10 -10   2    0.30    0.60
   0 -11   2    0.10    1.60
   0 -11   2   -1.10    1.00
   0 -11  -2   -0.10    0.80
   0 -11  -2    1.50    1.50
   0 -11   2    0.20    1.40
  -1 -11  -2   67.99    2.90
  -1 -11  -2   68.39    3.20
  -1 -11  -2   64.69    3.60
   1 -11   2   64.29    3.60
   1 -11   2   63.09    2.90
   1 -11  -2   64.69    3.60
   1 -11  -2   70.79    2.90
  -1 -11   2   61.79    3.20
  -1 -11   2   66.89    3.00
  -1 -11   2   66.19    3.10
  -2 -11  -2    7.80    1.40
   2 -11   2    3.80    1.30
  -2 -11  -2    6.10    1.50
  -2 -11  -2    5.70    1.10
   2 -11   2    4.50    1.80
   2 -11   2    4.80    1.10
   2 -11  -2    3.70    0.80
  -2 -11   2    6.40    1.20
  -2 -11   2    6.00    1.30
  -2 -11   2    6.60    1.40
   2 -11  -2    4.00    1.20
   3 -11   2    3.10    1.00
  -3 -11  -2    3.40    1.00
  -3 -11  -2    2.30    1.00
   3 -11   2    1.20    1.10
   3 -11   2    2.60    2.50
   3 -11  -2    1.10    1.80
  -3 -11   2    2.50    1.00
   3 -11  -2    3.30    1.20
  -3 -11   2    1.60    1.00
   3 -11  -2    3.50    1.00
  -4 -11  -2   -0.40    0.80
   4 -11   2    1.70    1.00
  -4 -11  -2    0.80    1.00
   4 -11   2    1.00    1.00
   4 -11   2   -0.90    1.30
   4 -11  -2   -0.50    0.80
   4 -11  -2   -2.50    1.40
   4 -11  -2    0.30    0.80
  -4 -11   2    0.50    0.90
  -4 -11   2    0.30    0.90
   5 -11   2    8.20    1.50
  -5 -11  -2   11.30    1.50
   5  11  -2    9.20    1.80
   5 -11   2   12.40    2.00
   5 -11   2    8.20    1.50
  -5 -11  -2   11.80    1.60
   5 -11  -2    9.90    1.50
   5 -11  -2    9.30    1.60
  -5 -11   2   10.00    1.50
   5 -11  -2    7.60    2.00
  -5 -11   2    9.50    1.50
  -6 -11  -2    1.30    0.90
   6 -11   2   -1.90    1.10
  -6 -11  -2   -0.80    0.80
   6 -11   2    0.10    0.80
   6 -11   2    1.20    1.00
   6 -11  -2    0.60    0.70
   6 -11  -2   -0.90    1.10
  -6 -11   2   -0.10    0.80
   6  11   2   -1.70    1.10
   6 -11  -2   -0.70    0.90
  -6 -11   2    1.70    0.90
  -7 -11  -2    1.00    0.80
   7 -11   2    1.10    1.20
   7 -11   2    1.40    1.00
  -7 -11  -2   -0.20    0.90
   7 -11   2   -1.00    0.70
   7 -11  -2    0.40    0.90
   7 -11  -2    0.40    0.80
  -7 -11   2    1.30    0.90
  -7 -11   2    0.10    0.70
   7  11   2   -0.40    1.30
   8 -11   2   25.90    1.50
   8 -11   2   24.80    1.70
  -8 -11  -2   21.40    1.60
   8 -11   2   24.00    1.90
  -8 -11  -2   25.00    1.50
  -8 -11   2   23.70    1.50
   8 -11  -2   24.00    1.90
  -8 -11   2   26.30    1.70
   8  11   2   29.10    2.40
   8 -11  -2   24.80    1.50
  -9 -11  -2   42.60    1.90
  -9 -11  -2   35.80    2.00
   9 -11   2   40.50    1.80
  -9 -11   2   38.20    2.00
   9 -11  -2   41.90    1.80
  -9 -11   2   42.50    1.90
   9 -11  -2   41.00    2.10
   0 -12   2    2.90    1.20
   0 -12  -2    2.60    1.00
   0 -12  -2    1.80    1.40
   0 -12   2    1.20    1.60
   0 -12   2    2.10    1.40
  -1 -12  -2   17.20    1.90
   1 -12   2   19.50    1.90
   1 -12   2   15.80    2.80
  -1 -12  -2   22.10    1.80
   1 -12  -2   21.00    1.70
  -1 -12   2   20.60    1.90
  -1 -12   2   19.60    2.10
  -2 -12  -2    8.40    1.50
  -2 -12  -2    7.50    1.60
   2 -12   2    7.00    1.30
   2 -12   2    6.20    1.60
   2 -12   2    9.90    2.00
  -2 -12  -2    7.20    1.50
   2 -12  -2    6.60    1.30
  -2 -12   2   10.60    1.90
  -2 -12   2    9.30    1.60
  -2 -12   2    8.00    1.60
   2 -12  -2    6.80    1.50
   3 -12   2    2.90    1.00
   3 -12   2    2.40    1.50
  -3 -12  -2    1.40    1.10
  -3 -12  -2    2.80    1.00
   3 -12   2    0.70    1.00
   3 -12  -2    0.90    0.80
  -3 -12   2    2.10    1.00
   3 -12  -2    1.70    1.10
   3 -12  -2    1.00    1.90
  -3 -12   2    1.20    1.00
   4 -12   2   24.90    2.00
   4 -12   2   25.70    2.00
   4 -12   2   26.40    2.40
  -4 -12  -2   23.80    1.90
  -4 -12  -2   22.70    1.80
  -4 -12   2   26.50    1.90
   4 -12  -2   23.90    1.90
   4 -12  -2   27.80    2.60
  -4 -12   2   25.60    2.00
   4 -12  -2   23.50    1.90
  -5 -12  -2   16.10    1.60
   5 -12   2   14.70    1.60
  -5 -12  -2   16.90    1.70
   5 -12   2   10.60    2.10
   5 -12   2   15.30    1.70
  -5 -12   2   13.90    1.50
  -5 -12   2   16.50    1.60
   5 -12  -2   12.90    1.60
   5 -12  -2   15.90    2.10
   5  12   2   17.40    2.10
   5 -12  -2   16.80    1.70
   6 -12   2    7.80    1.70
  -6 -12  -2    7.10    1.30
   6 -12   2    7.90    1.40
   6 -12   2    4.30    1.10
  -6 -12  -2    5.30    1.20
   6 -12  -2    9.10    1.80
   6  12   2    7.80    2.00
  -6 -12   2    5.30    1.20
   6 -12  -2    3.80    0.90
  -6 -12   2    5.90    1.30
   6 -12  -2    3.80    1.00
   7 -12   2    6.90    1.70
   7 -12   2   12.50    1.30
  -7 -12  -2    9.40    1.20
   7 -12   2   10.10    1.50
  -7 -12  -2   10.50    1.30
   7 -12  -2    8.60    1.50
  -7 -12   2   11.10    1.30
  -7 -12   2   10.80    1.20
   7 -12  -2   11.00    1.20
   8 -12   2   -0.10    0.50
   8 -12   2    2.20    1.20
  -8 -12  -2    1.10    0.60
  -8 -12  -2    0.40    0.70
  -8 -12   2   -0.20    0.70
   8 -12  -2    0.60    0.90
  -8 -12   2    0.40    0.60
   8 -12  -2    0.80    0.60
  -9 -12  -2    1.10    0.50
   9 -12   2    0.90    0.50
   9 -12  -2    0.90    0.50
  -9 -12   2    0.40    0.50
   0 -13  -2    0.00    1.00
   0 -13   2   -2.10    1.30
   0 -13   2   -2.40    1.20
   0 -13  -2    0.90    1.40
  -1 -13  -2   53.09    2.80
  -1 -13  -2   56.99    2.90
   1 -13   2   60.59    3.00
   1 -13  -2   58.49    2.80
  -1 -13   2   52.69    2.80
  -1 -13   2   51.49    2.90
  -2 -13  -2    0.40    1.40
  -2 -13  -2    0.40    0.90
   2 -13   2   -1.30    1.10
  -2 -13  -2   -0.30    1.30
   2 -13  -2   -1.50    1.20
   2 -13  -2    0.20    1.20
  -2 -13   2    1.30    1.00
  -2 -13   2   -1.20    1.10
   3 -13   2   42.30    3.00
   3 -13   2   43.00    2.60
   3 -13   2   42.80    2.40
  -3 -13  -2   42.90    2.40
  -3 -13  -2   47.80    2.60
   3 -13  -2   43.00    2.50
   3 -13  -2   42.00    2.40
  -3 -13   2   43.30    2.40
  -3 -13   2   41.10    2.40
   4 -13   2   28.90    2.50
   4 -13   2   30.90    2.00
   4 -13   2   25.60    2.10
  -4 -13  -2   29.60    1.90
  -4 -13  -2   30.00    2.00
   4 -13  -2   24.10    2.60
  -4 -13   2   29.60    2.00
  -4 -13   2   26.90    1.90
   4 -13  -2   28.00    2.00
   4 -13  -2   24.20    1.90
   5 -13   2   43.50    2.30
  -5 -13  -2   45.40    2.30
   5 -13   2   40.30    2.40
  -5 -13  -2   41.40    2.30
   5 -13   2   40.80    2.60
   5  13   2   40.50    2.70
  -5 -13   2   49.80    2.40
   5 -13  -2   43.90    2.30
   5 -13  -2   42.50    2.30
   5 -13  -2   32.00    3.80
  -5 -13   2   44.20    2.30
   6 -13   2    3.60    1.00
  -6 -13  -2    4.30    1.10
   6 -13   2    5.30    1.20
  -6 -13  -2    3.50    0.90
   6 -13   2    3.80    0.80
   6 -13  -2    4.30    0.80
   6 -13  -2    6.70    1.60
   6  13   2    3.00    1.70
  -6 -13   2    3.60    0.80
   6 -13  -2    2.40    1.00
  -6 -13   2    4.80    1.10
   7 -13   2   17.70    1.60
   7 -13   2   20.40    1.30
  -7 -13  -2   21.50    1.40
   7 -13   2   22.10    2.10
  -7 -13  -2   22.20    1.40
  -7 -13   2   22.20    1.50
   7 -13  -2   22.90    1.70
   7 -13  -2   19.90    1.30
  -7 -13   2   22.80    1.40
  -8 -13  -2    0.90    0.90
   8 -13   2    2.00    0.50
  -8 -13  -2    1.70    0.60
   8 -13  -2    1.40    0.50
  -8 -13   2    1.20    0.60
  -8 -13   2    1.20    0.80
   0 -14  -2   41.30    2.40
   0 -14   2   39.60    2.60
   0 -14  -2   41.90    2.70
  -1 -14  -2    1.80    1.20
  -1 -14  -2    0.50    1.10
  -1 -14   2    1.40    1.00
  -1 -14   2    0.50    1.30
   1 -14  -2    1.20    1.10
  -2 -14  -2    2.90    1.40
   2 -14   2   -0.60    1.20
  -2 -14  -2   -0.90    0.90
   2 -14   2    0.70    1.40
   2 -14  -2    0.10    1.20
  -2 -14   2    0.10    0.80
  -2 -14   2   -0.50    1.10
   2 -14  -2   -1.00    1.00
  -3 -14  -2    8.70    1.40
   3 -14   2    4.80    1.70
   3 -14   2    6.90    1.50
  -3 -14  -2    7.40    1.80
   3 -14   2    7.00    1.70
  -3 -14   2    8.00    1.30
  -3 -14   2    8.40    1.60
   3 -14  -2    6.70    1.50
   3 -14  -2    7.20    1.10
  -4 -14  -2    0.20    1.10
   4 -14   2    0.90    1.50
   4 -14   2   -0.30    1.30
  -4 -14  -2    1.20    0.80
   4 -14  -2    1.50    1.00
   4  14   2   -1.10    1.50
  -4 -14   2   -0.50    0.70
  -5 -14  -2    2.10    0.90
   5 -14   2    2.00    1.50
   5 -14   2    0.40    1.10
  -5 -14  -2    2.40    0.80
   5 -14   2    1.50    0.70
  -5 -14   2    2.40    0.80
   5 -14  -2    3.60    1.30
   5 -14  -2    2.50    1.00
  -5 -14   2    2.00    0.70
   5 -14  -2    2.20    0.70
  -6 -14  -2    7.70    1.20
   6 -14   2    8.50    1.10
   6 -14   2    6.40    1.50
  -6 -14  -2    9.10    1.10
  -6 -14   2    6.60    1.20
   6 -14  -2    9.40    1.60
  -6 -14   2    7.10    1.00
   6 -14  -2    7.80    1.10
  -7 -14  -2    0.80    0.50
   7 -14   2   -0.10    0.50
  -7 -14  -2    0.80    0.60
  -7 -14   2    0.60    0.60
   7 -14  -2   -0.20    0.50
  -7 -14   2    0.80    0.60
  -8 -14  -2    0.90    0.60
  -8 -14  -2   -0.20    0.50
   8 -14   2    0.60    0.50
   8 -14  -2    0.50    0.40
  -8 -14   2    0.20    0.50
  -8 -14   2    1.00    0.60
   0 -15  -2    0.70    1.20
  -1 -15  -2   12.30    2.10
   1 -15  -2   11.40    1.90
  -2 -15  -2   47.10    2.50
   2 -15  -2   46.00    2.70
  -2 -15   2   43.10    2.50
  -2 -15   2   44.30    2.40
  -3 -15  -2   35.90    2.20
   3 -15   2   34.60    2.10
  -3 -15  -2   35.30    2.00
  -3 -15   2   33.80    2.00
   3 -15  -2   35.30    2.10
   3 -15  -2   36.60    2.30
  -3 -15   2   34.90    2.10
  -4 -15  -2    1.20    0.90
  -4 -15  -2    0.90    0.70
   4 -15   2    1.80    0.80
  -4 -15   2    0.50    0.80
   4 -15  -2    2.30    1.20
   4 -15  -2    0.30    0.80
  -4 -15   2    0.50    0.70
  -5 -15  -2   23.80    1.60
   5 -15   2   23.20    1.50
  -5 -15  -2   24.70    1.50
   5 -15   2   23.90    2.10
  -5 -15   2   23.70    1.50
   5 -15  -2   25.90    2.00
   5 -15  -2   22.50    1.50
  -5 -15   2   24.60    1.50
  -6 -15  -2   10.80    1.10
   6 -15   2   10.00    1.00
  -6 -15  -2    9.60    1.00
  -6 -15   2    9.70    1.00
  -6 -15   2   11.60    1.10
   6 -15  -2   11.70    1.00
  -7 -15  -2   16.20    1.10
  -7 -15  -2   15.90    1.00
  -7 -15   2   16.80    1.00
  -7 -15   2   16.20    1.10
   7 -15  -2   18.50    1.00
  -1 -16  -2   33.30    2.20
   1 -16  -2   44.20    3.40
  -1 -16   2   38.20    2.20
  -2 -16  -2   12.80    1.40
  -2 -16   2   11.50    1.40
   2 -16  -2    9.50    2.30
  -3 -16  -2    1.60    0.70
  -3 -16   2    2.30    0.70
   3 -16  -2    0.50    1.60
  -3 -16   2    2.90    1.00
  -4 -16  -2    2.30    0.70
   4 -16   2    2.70    0.90
  -4 -16  -2    2.80    1.30
  -4 -16   2    1.30    0.60
  -4 -16   2    2.10    0.80
   5 -16   2   11.30    1.10
  -5 -16  -2    8.60    1.40
  -5 -16  -2   10.80    1.00
  -5 -16   2    8.80    1.20
  -5 -16   2   11.10    1.00
   5 -16  -2   13.40    1.10
   6 -16   2    0.80    0.60
  -6 -16  -2    0.80    0.50
  -6 -16   2    1.20    0.50
  -6 -16   2    0.70    0.60
   6 -16  -2    1.50    0.60
  -2 -17  -2   56.89    2.60
  -2 -17   2   59.49    2.80
  -3 -17  -2   44.80    2.10
  -4 -17  -2    0.70    0.60
  -4 -17   2    0.30    0.60
  -5 -17  -2   12.60    1.00
  -5 -17   2   14.50    0.90
   0   0  -3   -1.10    0.10
   0   0   3   -1.10    0.10
  -1   0   3   -0.10    0.20
   1   0   3    0.40    0.10
   1   0  -3    0.10    0.20
   2   0   3   -1.50    0.20
   2   0  -3   -1.80    0.30
   2   0   3   -0.90    0.20
  -2   0   3   -1.50    0.30
   3   0   3   -0.50    0.30
   3   0  -3   -0.60    0.40
  -3   0   3   -0.90    0.40
   4   0   3    0.30    0.60
  -4   0   3    0.60    0.70
   4   0  -3    0.60    0.60
   4   0  -3    0.90    0.70
   4   0   3   -0.60    0.40
   5   0   3   -0.60    0.70
   5   0   3    0.50    0.70
   5   0   3    1.00    1.10
  -5   0   3   -1.00    1.10
   5   0  -3   -0.60    0.60
   5   0  -3   -0.50    1.00
   6   0  -3    0.00    0.70
   6   0  -3    0.90    1.80
   6   0   3    0.80    0.70
   7   0   3    0.90    1.60
   7   0   3   -0.30    0.70
   7   0  -3   -0.30    0.70
  -7   0  -3    0.60    1.50
   8   0  -3    0.80    0.80
   8   0   3    1.50    0.90
  -9   0   3   -1.80    0.90
   9   0  -3    0.80    0.90
   9   0   3    0.90    0.80
 -10   0   3    1.40    0.90
  10   0  -3   -0.70    0.90
  10   0   3    0.90    0.90
 -11   0   3    0.70    0.90
  11   0   3   -0.20    0.90
  11   0  -3   -0.30    0.90
   0   1  -3   -2.90    0.10
   0  -1   3   -2.80    0.10
   0  -1  -3   -2.80    0.20
   0   1   3   -3.10    0.10
   1   1  -3    3.70    0.40
  -1   1   3    3.30    0.40
  -1  -1  -3    3.50    0.40
   1  -1  -3    3.60    0.40
   1   1   3    3.60    0.40
  -1  -1   3    3.80    0.40
  -2   1   3  327.77   10.60
   2   1  -3  317.77   10.70
   2  -1  -3  326.87   10.60
   2   1   3  314.27   10.50
   2   1   3  339.17   10.60
  -2  -1   3  329.67   10.70
  -3   1   3   91.39    3.20
   3   1  -3   85.09    3.30
   3  -1   3   88.89    2.90
   3  -1  -3   86.39    3.20
  -3  -1   3   80.29    3.30
   3   1   3   83.89    3.10
   4  -1   3   27.50    1.50
   4  -1   3   29.00    1.30
   4   1  -3   28.70    1.80
  -4   1   3   29.60    1.80
  -4  -1   3   28.60    1.90
   4  -1  -3   26.70    1.50
   4  -1  -3   30.80    1.70
   4   1   3   31.40    1.60
   4   1   3   28.40    1.50
   5   1  -3  376.16   12.80
   5   1  -3  365.16   12.30
  -5   1   3  356.26   12.80
   5  -1   3  391.06   12.40
   5  -1   3  380.86   12.20
   5  -1   3  384.36   12.30
   5   1   3  392.06   12.40
   5   1   3  380.36   12.80
   5  -1  -3  375.66   12.30
   5   1   3  376.16   12.60
  -5  -1   3  350.96   12.90
   6   1  -3    0.20    0.70
   6  -1   3    0.30    0.60
   6   1  -3    0.70    1.80
   6  -1  -3   -0.90    1.70
   6  -1  -3    0.30    1.30
   6   1   3    0.20    0.70
   6  -1  -3    0.20    0.60
   7  -1   3   50.49    3.20
   7  -1   3   49.70    2.40
   7   1  -3   50.49    2.40
  -7  -1  -3   51.39    3.00
  -7   1  -3   46.60    3.50
   7  -1  -3   52.39    2.40
   7   1   3   53.19    2.50
   8  -1   3   35.10    2.10
  -8  -1  -3   38.80    2.70
   8   1  -3   37.20    2.10
  -8  -1   3   38.40    2.40
   8  -1  -3   36.70    2.10
   8   1   3   36.30    2.10
   9  -1   3   52.29    2.60
   9   1  -3   51.39    2.70
  -9  -1  -3   56.99    3.00
  -9  -1   3   54.09    2.70
   9   1   3   51.79    2.60
   9  -1  -3   52.89    2.60
  10  -1   3    0.80    0.80
 -10   1   3    0.40    0.80
  10   1  -3    0.00    1.20
 -10   1  -3    2.20    1.10
  10  -1  -3    1.40    0.90
  10   1   3    1.50    0.90
 -10  -1   3    0.80    1.00
 -11   1   3   10.70    1.40
  11   1  -3   11.70    1.60
  11  -1   3   11.00    1.40
  11  -1  -3    9.00    1.40
  11   1   3    9.30    1.40
   0   2   3 2260.67   68.49
   0  -2  -3 1873.31   67.89
   0   2  -3 2108.89   68.39
   0  -2   3 2361.56   68.59
  -1   2   3  497.15   15.30
   1   2  -3  451.75   15.30
   1  -2  -3  461.95   15.30
   1   2   3  463.25   15.30
  -1   2  -3  470.75   15.10
  -1  -2   3  504.15   15.30
   2   2  -3    9.90    0.80
  -2   2   3    9.90    0.70
   2   2   3    9.60    0.80
   2   2   3    9.90    0.80
  -2  -2   3    9.30    0.80
   2  -2  -3    9.30    0.70
   3   2  -3  243.98    8.40
  -3   2   3  252.27    8.30
   3   2   3  245.68    8.30
   3  -2  -3  237.28    8.20
   3   2   3  255.77    8.30
  -3  -2   3  244.68    8.40
   4  -2   3  266.07    8.70
  -4   2   3  263.87    8.90
   4   2  -3  240.38   10.10
   4  -2  -3  264.77    8.70
   4   2   3  270.17    9.10
   4  -2  -3  262.87    8.90
   4   2   3  257.77    8.90
  -4  -2   3  265.57    9.10
   4   2   3  264.47    8.70
  -5   2   3   49.70    3.20
   5   2  -3   55.19    2.40
   5   2  -3   57.09    3.20
   5  -2   3   58.49    2.40
   5   2   3   55.09    3.70
   5  -2  -3   56.49    2.30
   5  -2  -3   54.89    2.90
   5   2   3   57.79    2.40
   5   2   3   54.79    3.10
  -5  -2   3   47.80    3.50
   6  -2   3   45.00    3.00
  -6  -2  -3   46.90    2.80
   6   2  -3   43.60    4.50
   6  -2   3   44.60    2.10
   6   2  -3   45.70    2.20
   6  -2  -3   41.40    2.70
   6  -2  -3   46.40    2.10
   6   2   3   43.70    2.20
   7   2  -3  100.39    4.00
   7  -2   3  103.09    4.00
  -7  -2  -3  101.89    4.30
   7  -2   3  107.59    4.50
   7  -2  -3   90.79    4.40
   7  -2  -3  100.49    3.90
   7   2   3  106.79    4.10
  -7  -2   3   97.19    4.20
  -7  -2   3   96.09    4.50
   8  -2   3    0.80    1.20
  -8  -2  -3    0.20    1.30
   8  -2   3    2.30    0.80
   8   2  -3    1.90    0.90
   8  -2  -3    5.60    1.20
  -8  -2   3    1.50    1.10
  -8  -2   3    2.40    2.10
  -9  -2  -3   10.80    2.00
   9  -2   3   13.30    1.50
   9   2  -3   12.80    1.60
   9   2   3   13.30    1.50
  -9  -2   3   11.70    1.90
   9  -2  -3   10.40    1.50
  10   2  -3   19.40    1.70
  10  -2   3   18.90    1.60
 -10  -2  -3   20.00    2.20
 -10   2   3   18.50    1.60
  10   2   3   19.20    1.70
 -10  -2   3   14.30    2.00
  10  -2  -3   18.20    1.60
 -11   2   3   24.10    1.50
  11   2  -3   20.90    1.90
  11  -2   3   23.20    1.60
  11  -2  -3   20.40    1.70
  11   2   3   22.20    1.70
   0   3  -3   -0.20    0.20
   0  -3  -3    0.00    0.20
   0   3   3    0.40    0.30
   1   3  -3   97.69    3.50
  -1   3   3  101.49    3.50
   1   3   3  100.39    3.60
  -1   3  -3   99.69    3.30
   1  -3  -3   96.09    3.50
  -1  -3   3   90.09    3.50
  -1   3  -3  103.49    3.30
  -2   3   3  269.27    8.70
   2   3  -3  239.08    8.80
   2  -3  -3  260.17    8.70
  -2   3  -3  288.37    8.30
   2   3   3  252.97    8.80
  -2   3  -3  278.57    8.30
  -2  -3   3  253.37    8.80
   2   3   3  252.87    8.70
   3   3  -3  263.97    8.90
  -3   3   3  260.77    8.70
   3  -3  -3  263.07    8.70
   3   3   3  260.77    8.90
   3   3   3  253.37    8.80
  -3  -3   3  260.37    8.90
   4   3  -3  195.18    6.80
  -4   3   3  201.18    7.00
   4  -3   3  203.28    6.80
   4   3  -3  207.48    7.30
   4   3   3  204.78    7.40
  -4  -3   3  198.38    7.30
   4   3   3  191.38    6.80
   4  -3  -3  198.48    6.70
   4   3   3  204.18    7.20
   4  -3  -3  195.48    6.90
   5  -3   3  367.16   11.70
  -5   3   3  334.47   12.10
   5   3  -3  367.56   12.50
   5   3  -3  349.17   11.70
   5   3   3  333.87   12.70
   5   3   3  360.76   12.30
   5  -3  -3  354.26   12.00
   5  -3  -3  367.26   11.70
   5   3   3  348.07   11.70
   6  -3   3   48.40    3.10
  -6  -3  -3   47.00    2.70
   6  -3   3   51.09    2.30
   6   3  -3   52.09    2.40
   6  -3  -3   50.59    2.30
   6   3   3   48.00    2.40
   6  -3  -3   49.80    2.90
   6  -3  -3   55.19    4.40
  -6  -3   3   56.59    3.40
   7  -3   3    0.30    0.70
   7  -3   3   -1.40    1.30
  -7  -3  -3    1.20    1.10
   7  -3   3    1.20    1.30
   7   3  -3    1.90    0.90
   7  -3  -3    1.80    1.30
   7  -3  -3    0.50    0.70
  -7  -3   3    0.40    1.30
  -7  -3   3    0.40    1.40
   7  -3  -3    1.20    1.20
   7   3   3    1.70    0.90
  -8  -3  -3    6.50    1.30
   8  -3   3    4.80    1.00
   8  -3   3    5.30    1.30
   8   3  -3    6.50    1.40
  -8  -3   3    2.80    1.30
  -8  -3   3    2.20    1.40
   8  -3  -3    6.00    1.30
   8  -3  -3    7.40    1.50
  -9  -3  -3  169.28    6.00
   9   3  -3  155.48    5.90
   9  -3   3  155.58    5.90
   9   3   3  160.48    6.00
   9  -3  -3  149.69    5.90
  -9  -3   3  162.38    5.90
  -9  -3   3  160.78    6.00
 -10   3   3    0.20    0.80
 -10  -3  -3   -0.70    1.10
  10  -3   3    1.60    0.80
  10   3  -3    0.10    1.00
  10   3   3   -0.70    0.80
  10  -3  -3   -0.40    0.80
 -11   3   3   14.00    1.30
  11   3  -3   12.50    1.90
  11  -3   3   14.20    1.30
  11  -3  -3   14.90    1.50
 -11   3  -3   14.30    1.50
  11   3   3   12.60    1.50
   0   4  -3    0.80    0.30
   0  -4  -3    0.40    0.40
   0   4   3    0.10    0.40
   1   4  -3   90.69    3.40
  -1   4   3   91.19    3.40
   1  -4  -3   90.69    3.40
   1   4   3   92.39    3.50
  -1   4  -3   94.89    3.20
  -1   4  -3   96.39    3.30
  -2   4   3    0.40    0.40
   2   4  -3   -0.70    0.50
  -2   4  -3    0.30    0.20
  -2  -4   3    0.80    0.50
   2  -4  -3    0.10    0.40
   2   4   3   -0.80    0.50
  -2   4  -3    0.40    0.30
   2   4   3    0.60    0.50
   3   4  -3   25.90    1.80
  -3   4   3   24.70    1.60
   3  -4  -3   22.10    1.30
   3  -4  -3   26.70    1.50
  -3  -4   3   25.20    1.90
   3   4   3   24.60    1.90
   3   4   3   24.50    1.70
   4  -4   3   82.69    3.10
   4   4  -3   82.29    3.20
  -4   4   3   82.19    3.60
   4   4  -3   85.29    3.90
   4  -4  -3   83.09    3.10
   4   4   3   82.79    4.20
   4   4   3   84.99    3.80
   4  -4  -3   81.29    3.40
   5  -4   3    3.10    0.70
  -5   4   3    3.10    1.60
   5   4  -3    2.30    0.90
   5   4  -3    3.20    1.60
   5   4   3    3.20    0.80
   5  -4  -3    3.50    0.90
   5  -4  -3    2.30    1.30
   5   4   3    3.80    1.60
   6  -4   3    7.10    1.10
   6  -4   3    6.90    1.50
  -6  -4  -3    7.20    1.40
   6   4  -3    8.90    1.40
   6  -4   3    7.40    1.50
  -6  -4   3    7.10    1.40
   6   4   3    9.40    1.30
   6  -4  -3    7.20    1.10
   6  -4  -3    5.60    1.30
   6  -4  -3    6.10    1.20
  -7  -4  -3  194.88    7.50
   7  -4   3  202.68    7.60
   7  -4   3  211.28    7.80
   7  -4   3  222.08    7.50
   7   4  -3  218.58    7.50
   7  -4  -3  227.48    7.50
  -7  -4   3  210.28    7.60
   7   4   3  212.08    7.60
   7  -4  -3  207.08    7.50
   7  -4  -3  211.68    7.70
   8  -4   3   14.40    2.30
  -8  -4  -3   11.90    1.70
   8  -4   3   13.50    1.40
   8   4  -3   12.00    1.60
   8  -4   3   12.60    2.00
   8   4   3   13.00    1.60
   8  -4  -3   13.00    2.00
  -8  -4   3   12.80    2.10
   8  -4  -3   13.40    1.40
  -9  -4  -3   62.39    2.90
   9   4  -3   59.29    2.90
   9  -4   3   58.49    2.80
  -9  -4   3   60.69    3.10
   9  -4  -3   57.49    3.10
   9   4   3   54.99    2.80
   9  -4  -3   57.39    2.80
 -10  -4  -3   -0.70    0.90
  10   4  -3    0.00    1.10
  10  -4   3    0.50    0.70
  10   4   3    1.00    0.90
  10  -4  -3   -1.20    0.70
  11  -4   3   33.70    1.90
 -11   4   3   35.80    1.80
  11   4  -3   24.10    3.30
 -11   4  -3   37.70    1.90
  11  -4  -3   35.10    2.00
  11   4   3   35.10    2.10
   0   5  -3   -0.40    0.50
   0   5  -3   -0.30    0.40
   0   5   3   -0.20    0.50
   1   5  -3  572.84   18.30
  -1   5   3  543.85   18.30
   1   5   3  583.44   18.40
   1  -5  -3  540.05   18.30
  -1   5  -3  577.04   18.10
  -1   5  -3  549.74   18.10
  -2   5   3  130.09    4.80
   2   5  -3  134.69    5.00
   2   5   3  134.49    4.90
   2  -5  -3  130.19    4.80
   2  -5  -3  118.59    4.50
  -2   5  -3  138.39    4.50
  -2   5  -3  131.19    4.50
   2   5   3  131.99    5.10
   3   5  -3  348.97   11.90
  -3  -5  -3  348.67   11.40
  -3   5   3  333.67   11.60
   3  -5   3  331.27   11.30
   3   5   3  346.87   12.00
  -3   5  -3  367.26   11.10
  -3   5  -3  359.16   11.10
   3  -5  -3  336.17   11.30
   3  -5  -3  333.27   11.60
   3   5   3  358.06   11.90
   4   5  -3  117.39    4.50
  -4   5   3  121.29    5.00
   4   5  -3  136.69    5.50
   4  -5   3  121.29    4.40
   4  -5  -3  120.19    4.80
   4   5   3  132.49    5.40
   4  -5  -3  124.29    4.40
   5  -5   3  147.99    6.00
   5   5  -3  162.58    5.60
  -5  -5  -3  150.48    5.80
   5  -5   3  164.18    5.50
   5  -5  -3  151.08    5.70
   5   5   3  156.68    5.60
   5   5   3  144.79    7.10
  -5  -5   3  178.08    6.50
   5  -5  -3  150.78    6.00
   5  -5  -3  150.98    5.50
  -6  -5  -3    1.40    1.10
   6  -5   3    1.50    0.70
   6  -5   3    1.20    1.20
   6  -5   3    2.30    1.20
  -6  -5  -3    1.40    1.40
   6   5  -3    1.10    1.00
   6  -5  -3    1.70    0.70
   6   5   3    2.70    0.90
   6  -5  -3    1.40    1.20
   6  -5  -3    3.20    1.10
  -6  -5   3    2.20    1.20
  -6  -5   3    0.70    1.50
   7  -5   3  513.55   16.50
  -7  -5  -3  443.26   16.70
  -7  -5  -3  488.25   16.60
   7  -5   3  488.25   16.50
   7   5  -3  533.45   16.60
   7  -5   3  503.95   16.80
  -7  -5   3  486.45   16.60
   7  -5  -3  506.85   16.70
   7   5   3  528.35   16.70
   7  -5  -3  502.05   16.70
   7  -5  -3  540.35   16.60
  -7  -5   3  462.75   16.70
   8  -5   3    1.20    1.10
  -8  -5  -3    2.90    1.00
   8   5  -3    4.90    1.20
   8  -5   3    3.50    1.30
  -8  -5   3    3.00    1.20
   8  -5  -3    2.90    1.10
   9  -5   3   49.10    2.80
   9   5  -3   49.40    2.70
   9  -5   3   47.40    2.50
  -9  -5  -3   54.99    2.70
   9  -5   3   54.89    2.80
  -9  -5   3   49.60    2.70
   9  -5  -3   45.60    2.50
   9   5   3   48.50    2.60
   9  -5  -3   51.59    2.70
  10  -5   3    2.70    0.90
 -10  -5  -3    2.50    0.90
  10   5   3    2.40    1.00
  10  -5  -3    2.40    0.90
 -10  -5   3    2.30    1.20
 -11  -5  -3   15.40    1.80
  11  -5   3   17.80    1.50
 -11   5   3   18.00    1.20
  11   5   3   17.80    1.80
  11  -5  -3   17.10    1.50
   0  -6  -3  100.09    3.80
   0   6   3  105.89    4.20
   0   6  -3  107.49    4.20
   0   6  -3  109.49    4.10
  -1   6   3   39.70    2.30
   1   6  -3   42.70    2.20
  -1  -6  -3   38.20    1.80
   1   6   3   37.80    2.40
   1  -6  -3   38.20    1.80
  -1   6  -3   42.30    2.00
  -1   6  -3   40.40    2.10
  -2  -6  -3   49.40    2.20
   2  -6   3   50.09    2.30
  -2   6   3   49.99    2.60
   2   6  -3   50.79    2.70
  -2   6  -3   52.69    2.20
   2   6   3   49.70    2.60
  -2   6  -3   48.00    2.20
   2  -6  -3   51.09    2.50
   2   6   3   44.90    2.90
   2  -6  -3   51.29    2.10
   3  -6   3  578.24   18.80
  -3   6   3  579.44   19.20
  -3  -6  -3  581.84   18.80
   3   6  -3  577.54   19.50
  -3   6  -3  582.54   18.70
   3  -6  -3  569.14   19.10
  -3   6  -3  584.14   18.60
   3  -6  -3  588.84   18.80
   3   6   3  596.04   19.50
   4   6  -3   74.99    4.40
  -4   6   3   65.99    4.10
   4  -6   3   74.49    2.90
   4   6  -3   77.89    3.10
   4   6   3   73.39    4.50
   4  -6  -3   71.09    3.90
   4  -6  -3   80.49    3.00
   5  -6   3   53.59    2.80
   5  -6   3   50.09    3.00
   5  -6   3   55.29    2.40
   5   6  -3   46.10    3.10
  -5  -6  -3   51.69    2.70
  -5  -6  -3   52.29    2.80
  -5  -6   3   55.29    2.80
  -5  -6   3   48.50    2.70
   5  -6  -3   55.39    2.40
   5   6   3   57.09    2.60
   5  -6  -3   54.99    2.70
   5  -6  -3   54.59    3.10
  -6  -6  -3    7.10    1.40
   6  -6   3    9.40    1.40
  -6  -6  -3    7.00    1.50
   6   6  -3    6.30    1.60
   6  -6   3    7.20    1.20
   6  -6   3    5.70    1.30
   6  -6  -3    5.20    1.10
   6  -6  -3    6.60    1.30
  -6  -6   3    7.00    1.80
  -6  -6   3    9.50    1.70
   6  -6  -3    5.10    1.10
   6   6   3    8.30    1.40
   7  -6   3    9.20    1.80
   7  -6   3    8.50    1.50
   7  -6   3    8.10    1.30
  -7  -6  -3    7.40    1.50
  -7  -6  -3    7.30    1.90
   7   6  -3    6.80    1.70
   7  -6  -3    7.50    1.70
  -7  -6   3    9.60    1.60
  -7  -6   3    5.70    1.50
   7  -6  -3    7.50    1.90
   7   6   3    6.20    1.50
   7  -6  -3    4.70    1.20
   8  -6   3   39.90    2.70
   8  -6   3   45.00    2.50
   8  -6   3   39.00    2.20
  -8  -6  -3   39.60    2.80
   8   6  -3   37.30    2.50
  -8  -6  -3   41.10    2.40
  -8  -6   3   38.30    2.80
  -8  -6   3   40.80    3.40
   8  -6  -3   36.50    2.20
   8   6   3   41.60    2.50
   8  -6  -3   39.80    2.40
   9  -6   3    7.10    1.70
  -9  -6  -3    6.20    1.40
   9  -6   3    6.60    1.30
   9   6  -3    5.00    1.30
   9  -6   3    6.30    1.60
   9  -6  -3    7.10    1.30
   9   6   3    7.00    1.50
   9  -6  -3    8.20    1.60
  -9  -6   3    8.90    1.60
 -10  -6  -3   29.70    1.80
  10  -6   3   29.80    1.80
  10   6  -3   27.50    2.60
  10  -6  -3   28.60    1.90
  10  -6  -3   28.20    2.10
 -10  -6   3   29.80    2.00
  11  -6   3   44.00    2.30
 -11   6   3   47.10    2.00
 -11  -6  -3   47.10    2.20
 -11   6  -3   45.70    2.00
  11  -6  -3   51.09    2.30
   0   7   3   -0.70    1.10
   0   7  -3    0.80    1.00
   0  -7  -3   -0.30    0.60
  -1   7   3  308.67   11.30
   1   7  -3  324.27   11.50
  -1  -7  -3  319.77   10.70
   1  -7   3  308.77   10.60
   1   7  -3  345.97   11.30
  -1   7  -3  333.07   11.00
   1   7   3  322.67   11.50
  -1   7  -3  337.77   11.10
   1   7   3  327.27   11.30
   1  -7  -3  322.67   10.70
  -2   7   3  118.09    5.10
  -2  -7  -3  121.29    4.40
   2   7  -3  128.59    5.30
   2  -7   3  119.29    4.40
   2   7   3  131.49    5.20
  -2  -7   3  112.39    4.50
  -2   7  -3  122.19    4.70
   2  -7  -3  123.89    4.40
  -2   7  -3  122.19    4.60
   3  -7   3   22.50    1.40
  -3  -7  -3   19.80    1.50
  -3   7   3   23.60    3.20
   3   7  -3   17.90    2.90
   3   7   3   23.10    2.70
   3  -7  -3   20.20    1.40
  -3   7  -3   20.70    1.80
   3  -7  -3   22.40    2.70
   4   7  -3  132.59    4.90
  -4  -7  -3  128.49    5.00
   4  -7   3  126.59    5.00
   4  -7   3  138.79    4.80
   4  -7   3  125.99    5.30
  -4  -7  -3  133.39    5.00
   4  -7  -3  137.49    4.80
  -4  -7   3  126.69    4.90
   4  -7  -3  127.19    4.90
  -4  -7   3  130.09    5.00
   4  -7  -3  127.09    5.40
  -5  -7  -3  187.98    6.70
   5   7  -3  187.38    6.50
   5  -7   3  177.58    6.80
  -5  -7  -3  179.68    6.60
   5  -7   3  180.78    6.60
   5  -7   3  180.88    6.40
   5  -7  -3  178.18    6.80
   5  -7  -3  185.78    6.40
  -5  -7   3  183.98    6.60
   5  -7  -3  183.38    6.50
  -5  -7   3  171.38    6.50
   6  -7   3   -1.60    1.00
  -6  -7  -3    1.40    1.10
   6  -7   3    0.10    0.70
  -6  -7  -3    0.30    1.00
   6   7  -3    0.60    1.10
   6  -7   3   -1.90    1.20
  -6  -7   3   -0.40    1.10
  -6  -7   3    1.00    1.00
   6   7   3    0.10    0.80
   6  -7  -3    2.00    0.80
   6  -7  -3   -2.00    0.90
   6  -7  -3    0.00    1.20
   7  -7   3   62.19    2.80
   7   7  -3   61.19    3.10
   7  -7   3   59.89    3.00
   7  -7   3   59.59    3.20
  -7  -7  -3   58.89    3.00
  -7  -7  -3   61.69    3.10
   7  -7  -3   65.09    3.20
  -7  -7   3   59.19    3.00
   7  -7  -3   60.39    2.90
  -7  -7   3   59.59    3.10
   7  -7  -3   64.99    2.90
   7   7   3   65.39    3.10
   8  -7   3   14.40    1.70
   8  -7   3   12.30    1.50
  -8  -7  -3   16.00    1.60
   8  -7   3   13.90    2.00
   8   7  -3   13.40    2.00
  -8  -7  -3   12.10    2.10
   8   7   3   14.20    1.80
   8  -7  -3   16.90    1.70
   8  -7  -3   13.60    1.50
  -8  -7   3   15.60    2.00
  -8  -7   3   12.90    1.60
   9  -7   3    1.00    0.80
   9  -7   3    0.60    0.90
   9   7  -3    3.20    1.40
  -9  -7   3    0.60    0.80
   9   7   3    0.40    1.00
   9  -7  -3    0.00    0.80
   9  -7  -3   -0.60    0.80
  10  -7   3    2.10    1.00
 -10  -7  -3    0.90    0.70
  10  -7   3    0.30    0.90
  10   7   3    2.40    1.10
  10  -7  -3    1.00    0.90
  10  -7  -3    1.10    0.90
 -10  -7   3    3.10    0.90
 -11  -7  -3   67.79    2.70
 -11   7   3   69.79    2.60
 -11   7  -3   73.79    2.70
   0   8  -3  250.77    9.40
   0   8  -3  267.77    9.20
   0  -8  -3  256.37    8.50
   0  -8   3  240.28    8.50
  -1  -8  -3    4.20    0.80
   1  -8   3    4.00    0.90
   1   8  -3    4.10    1.50
  -1   8  -3    4.30    1.60
   1   8   3    2.50    1.20
  -1  -8   3    3.70    1.10
  -1   8  -3    4.80    1.20
   1  -8  -3    4.20    0.80
   2  -8   3   11.00    1.30
   2   8  -3   13.00    2.10
  -2  -8  -3   10.60    1.20
   2   8   3   12.30    2.70
   2  -8  -3   12.50    1.10
  -2   8  -3    9.40    2.20
  -2  -8   3    8.10    1.70
  -2   8  -3   11.30    2.70
  -3  -8  -3  143.49    5.10
   3  -8   3  140.29    5.00
   3  -8   3  138.29    5.30
  -3  -8  -3  135.29    5.30
   3  -8   3  130.79    5.60
  -3  -8  -3  147.89    5.30
   3  -8  -3  142.29    5.00
   3  -8  -3  141.09    5.30
  -3  -8   3  139.59    5.20
  -3  -8   3  142.99    5.30
   4  -8   3   72.29    3.30
   4  -8   3   72.09    3.60
  -4  -8  -3   76.59    3.30
  -4  -8  -3   71.39    3.30
   4  -8   3   77.69    3.10
   4  -8  -3   73.19    3.30
  -4  -8   3   73.29    3.30
  -4  -8   3   72.49    3.30
   4  -8  -3   71.79    3.80
   4  -8  -3   73.99    3.00
   5   8  -3  132.49    5.00
  -5  -8  -3  129.49    5.00
  -5  -8  -3  126.59    5.00
   5  -8   3  129.79    4.80
   5  -8   3  134.49    5.00
   5  -8   3  132.59    5.30
   5  -8  -3  129.79    4.90
  -5  -8   3  124.69    4.90
  -5  -8   3  125.09    5.00
   5  -8  -3  133.89    5.30
   5  -8  -3  126.79    4.90
   6  -8   3    4.80    1.30
   6   8  -3    7.30    1.90
  -6  -8  -3    5.80    1.20
   6  -8   3    7.90    1.70
   6  -8   3    4.10    0.90
  -6  -8  -3    4.00    1.00
   6  -8  -3    6.60    1.30
   6  -8  -3    7.00    1.80
  -6  -8   3    6.30    1.60
  -6  -8   3    7.00    1.50
   6   8   3    5.60    1.30
   6  -8  -3    5.40    1.10
   7  -8   3   40.70    2.40
  -7  -8  -3   38.80    2.40
   7  -8   3   39.10    2.70
   7  -8   3   43.40    2.30
  -7  -8  -3   40.70    2.40
  -7  -8   3   42.00    2.50
   7   8   3   46.50    3.50
   7  -8  -3   40.20    2.60
   7  -8  -3   40.50    2.30
  -7  -8   3   45.10    2.40
   7  -8  -3   42.60    2.40
   8   8  -3   88.79    4.10
  -8  -8  -3   97.69    3.90
   8  -8   3   87.79    3.80
   8  -8   3   93.69    3.80
  -8  -8  -3   96.69    3.80
   8  -8   3   94.69    4.10
  -8  -8   3   95.49    3.80
  -8  -8   3   89.59    3.90
   8  -8  -3   97.89    3.80
   8  -8  -3   82.99    3.80
   8   8   3   88.29    4.00
   9  -8   3    1.40    0.90
  -9  -8  -3    2.20    0.80
   9  -8   3    2.00    1.00
   9  -8   3    2.70    0.90
  -9  -8   3    3.10    0.80
   9  -8  -3    3.10    0.80
   9   8   3    3.30    1.20
   9  -8  -3    1.60    0.90
  10  -8   3    6.20    1.40
 -10  -8  -3    6.70    1.10
  10   8   3   10.00    1.80
  10  -8  -3    6.60    1.30
 -10  -8   3    6.80    1.20
  10  -8  -3    5.90    1.30
 -11   8   3    1.20    0.50
 -11   8  -3    1.60    0.60
   0   9   3   -1.20    1.60
   0  -9   3   -0.20    0.90
   0   9  -3   -1.80    1.80
   1  -9   3  173.88    6.20
  -1  -9  -3  168.78    6.30
   1   9  -3  176.08    7.70
  -1   9  -3  180.88    8.90
  -1  -9   3  178.58    6.30
   1  -9  -3  189.78    6.20
   2  -9   3    1.20    1.30
  -2  -9  -3    3.00    0.90
   2  -9   3    4.20    1.70
   2  -9   3    2.90    0.90
  -2  -9  -3    2.30    1.10
   2  -9  -3    3.40    1.30
   2  -9  -3    1.70    0.70
  -2  -9   3    1.90    1.20
  -2  -9   3    2.20    1.20
  -2  -9   3    1.40    1.10
  -3  -9  -3  168.48    6.20
  -3  -9  -3  170.68    6.30
  -3  -9  -3  170.58    6.20
   3  -9   3  174.78    6.10
   3  -9   3  172.28    6.30
   3  -9   3  169.88    6.60
  -3  -9   3  175.28    6.30
  -3  -9   3  170.68    6.20
   3  -9  -3  154.88    6.70
   3  -9  -3  180.18    6.10
   3  -9  -3  177.58    6.20
   4  -9   3    9.80    1.40
  -4  -9  -3    9.00    1.70
   4  -9   3   10.00    2.20
   4  -9   3   12.30    1.70
  -4  -9  -3    8.50    1.60
   4  -9  -3   12.70    2.50
  -4  -9   3   11.10    1.60
   4  -9  -3   10.00    1.60
  -4  -9   3    9.10    1.50
   4  -9  -3   10.30    1.20
   5  -9   3  114.49    4.40
  -5  -9  -3  103.09    4.30
   5  -9   3  115.09    4.30
  -5  -9  -3  109.89    4.40
   5  -9   3  108.99    4.60
   5   9  -3  107.09    4.50
  -5  -9   3  105.39    4.30
   5  -9  -3  110.49    4.30
   5  -9  -3  106.49    4.30
   5  -9  -3   98.29    6.00
  -5  -9   3  106.99    4.40
   6   9  -3   27.50    2.50
  -6  -9  -3   29.50    2.10
   6  -9   3   31.70    2.00
  -6  -9  -3   30.50    2.10
   6  -9   3   29.50    2.10
   6  -9   3   29.20    2.30
   6  -9  -3   24.80    2.00
  -6  -9   3   26.50    2.00
   6  -9  -3   30.60    2.00
  -6  -9   3   26.60    2.00
   6  -9  -3   24.20    2.30
   6   9   3   27.90    2.20
   7  -9   3    0.20    1.10
   7   9  -3    2.80    1.60
  -7  -9  -3    3.00    1.10
   7  -9   3    1.30    0.90
  -7  -9  -3    1.00    0.90
   7  -9   3   -0.40    0.80
  -7  -9   3    2.00    0.90
   7  -9  -3    1.30    0.90
  -7  -9   3    0.10    0.90
   7   9   3    0.20    1.10
   7  -9  -3    2.80    1.20
   7  -9  -3    0.60    0.80
   8  -9   3    1.40    1.00
  -8  -9  -3    1.10    0.80
   8  -9   3    1.00    0.80
   8  -9   3    2.90    1.00
   8  -9  -3    0.00    0.70
   8   9   3   -0.20    1.10
   8  -9  -3    0.50    0.90
  -8  -9   3    0.90    0.80
  -9  -9  -3    1.70    1.20
   9  -9   3    2.30    0.70
   9  -9   3    2.90    1.10
  -9  -9  -3    2.70    0.80
   9  -9  -3    1.90    0.80
  -9  -9   3    2.40    1.30
  -9  -9   3    2.60    0.80
   9  -9  -3    3.10    0.70
   9   9   3    2.30    1.20
  10  -9   3    1.50    0.80
 -10  -9  -3    1.70    0.60
  10  -9  -3    0.50    0.90
  10  -9  -3    1.40    0.70
 -10  -9   3    0.00    0.70
   0 -10  -3   35.80    2.70
   0 -10   3   37.20    2.60
   0 -10   3   33.60    2.90
   0 -10  -3   38.00    1.90
   0 -10   3   34.70    2.40
   1 -10   3   56.89    3.60
   1 -10   3   69.79    2.90
  -1 -10  -3   68.79    3.20
   1 -10   3   62.09    3.90
  -1 -10  -3   70.79    2.90
  -1 -10   3   66.89    3.30
  -1 -10   3   68.59    3.30
   1 -10  -3   70.39    2.80
   1 -10  -3   61.49    3.60
  -1 -10   3   69.19    3.30
  -2 -10  -3    6.40    1.60
   2 -10   3    5.10    1.40
   2 -10   3    5.70    1.70
  -2 -10  -3    4.20    1.30
   2 -10   3    4.40    1.00
  -2 -10  -3    5.90    1.30
  -2 -10   3    5.20    1.30
   2 -10  -3    3.00    1.20
  -2 -10   3    4.20    1.10
   2 -10  -3    3.50    0.80
  -2 -10   3    3.90    1.20
  -3 -10  -3    0.60    1.20
   3 -10   3    1.60    1.40
   3 -10   3    1.60    0.90
   3 -10   3   -0.30    1.00
  -3 -10  -3    1.50    0.90
  -3 -10  -3    1.00    0.90
   3 -10  -3   -1.50    1.80
   3 -10  -3    0.10    1.00
   3 -10  -3    0.60    0.80
  -3 -10   3    1.60    0.90
  -3 -10   3    1.30    0.90
  -4 -10  -3   18.70    1.80
   4 -10   3   19.70    2.10
   4 -10   3   22.20    1.70
   4 -10  -3   26.00    2.50
  -4 -10   3   23.70    1.80
  -4 -10   3   21.80    2.10
   4 -10  -3   25.10    1.70
   4 -10  -3   23.00    2.60
  -5 -10  -3  144.39    5.40
   5 -10   3  140.79    5.40
   5 -10   3  137.09    5.60
  -5 -10  -3  137.79    5.30
   5  10  -3  137.79    5.60
   5 -10   3  147.09    5.30
  -5 -10   3  140.69    5.30
   5 -10  -3  132.09    5.50
  -5 -10   3  138.39    5.40
   5 -10  -3  142.49    5.30
   5 -10  -3  149.99    5.40
  -6 -10  -3  152.18    5.60
   6  10  -3  144.09    6.30
   6 -10   3  154.78    5.60
   6 -10   3  146.49    5.60
  -6 -10  -3  151.58    5.70
   6 -10   3  151.38    5.90
   6 -10  -3  133.09    5.50
   6 -10  -3  152.58    5.60
  -6 -10   3  152.98    5.70
   6  10   3  149.49    5.80
  -6 -10   3  149.88    5.60
   6 -10  -3  150.88    5.80
   7 -10   3   20.00    1.60
  -7 -10  -3   18.60    1.70
  -7 -10  -3   18.20    1.70
   7 -10   3   13.90    1.80
   7 -10   3   14.40    1.70
   7 -10  -3   15.90    1.60
   7 -10  -3   19.50    1.90
  -7 -10   3   20.40    1.60
   7  10   3   17.70    2.00
  -7 -10   3   18.10    1.60
   7 -10  -3   16.50    1.60
  -8 -10  -3   46.50    2.40
   8 -10   3   47.90    2.50
  -8 -10  -3   47.40    2.40
   8 -10   3   50.79    2.30
   8 -10   3   51.09    2.60
   8 -10  -3   46.40    2.40
  -8 -10   3   50.89    2.40
  -8 -10   3   48.40    2.30
   8 -10  -3   50.89    2.30
   8  10   3   46.30    2.80
  -9 -10  -3   31.00    2.00
   9 -10   3   32.90    1.70
  -9 -10  -3   30.90    1.70
   9 -10   3   31.10    2.00
   9 -10  -3   31.00    1.60
   9  10   3   34.30    2.40
   9 -10  -3   33.30    1.90
  -9 -10   3   31.00    2.20
  -9 -10   3   32.10    1.70
 -10  10   3   28.90    1.40
  10 -10   3   25.70    1.50
 -10 -10  -3   32.40    1.40
  10 -10  -3   28.00    1.40
 -10 -10   3   28.40    1.50
   0 -11   3   -1.90    1.50
   0 -11  -3   -0.10    0.80
   0 -11  -3    1.60    1.40
   0 -11   3   -0.60    1.10
   0 -11   3    1.20    1.40
   1 -11   3   14.10    2.60
  -1 -11  -3   18.30    1.90
  -1 -11  -3   17.00    1.60
   1 -11   3   17.80    3.10
   1 -11   3   17.00    1.80
  -1 -11   3   20.70    2.20
  -1 -11   3   17.50    2.10
  -1 -11   3   13.70    1.80
   1 -11  -3   21.00    2.90
   1 -11  -3   16.00    1.50
   2 -11   3    1.90    1.60
  -2 -11  -3    0.90    1.00
   2 -11   3    1.50    1.00
  -2 -11  -3    0.70    0.90
   2 -11   3    0.80    1.20
  -2 -11  -3   -1.70    1.30
   2 -11  -3   -0.60    1.20
  -2 -11   3    0.40    1.10
  -2 -11   3   -1.00    1.00
   2 -11  -3   -0.50    0.80
   3 -11   3  175.78    6.20
  -3 -11  -3  154.08    6.50
  -3 -11  -3  180.88    6.30
   3 -11   3  169.48    6.30
  -3 -11  -3  175.08    6.30
   3 -11  -3  165.78    6.20
   3 -11  -3  181.98    6.20
  -3 -11   3  177.58    6.30
  -3 -11   3  165.58    6.30
   3 -11  -3  165.58    6.80
  -4 -11  -3    3.20    0.90
   4 -11   3    1.20    1.00
   4 -11   3    3.60    1.30
   4 -11   3    2.10    1.00
  -4 -11  -3    3.30    1.00
   4 -11  -3    1.60    0.90
  -4 -11   3    1.40    0.90
  -4 -11   3    0.50    0.90
   4 -11  -3    3.00    1.00
   4 -11  -3    3.80    1.50
  -5 -11  -3  118.89    4.70
   5 -11   3  116.49    4.90
  -5 -11  -3  121.69    4.70
   5 -11   3  118.39    4.70
   5 -11   3  119.99    4.70
   5 -11  -3  113.09    4.90
   5 -11  -3  115.59    4.60
  -5 -11   3  118.89    4.70
   5 -11  -3  119.89    4.60
  -5 -11   3  121.39    4.70
   5  11   3  126.09    6.20
   6 -11   3   -0.10    1.00
   6 -11   3    0.30    1.00
  -6 -11  -3    0.10    0.80
  -6 -11  -3    0.60    0.90
   6 -11   3    1.30    0.80
   6 -11  -3    1.10    1.20
  -6 -11   3    1.10    0.90
   6 -11  -3    1.20    0.80
   6  11   3    1.70    1.20
   6 -11  -3   -1.00    0.90
  -6 -11   3   -1.80    0.80
  -7 -11  -3   34.70    2.10
   7 -11   3   35.80    2.30
   7 -11   3   36.60    2.10
   7 -11  -3   38.50    2.00
   7 -11  -3   28.90    2.90
   7  11   3   32.20    2.40
   7 -11  -3   35.70    2.10
  -7 -11   3   39.40    2.10
   8 -11   3    0.30    1.00
  -8 -11  -3    0.30    0.70
  -8 -11  -3   -0.10    0.60
   8 -11   3    0.70    0.60
   8 -11   3    0.40    0.80
   8  11   3    0.30    1.30
   8 -11  -3    1.20    0.90
  -8 -11   3   -0.70    0.70
   8 -11  -3    0.50    0.60
  -8 -11   3    1.00    0.70
   9 -11   3   41.00    1.80
  -9 -11  -3   43.40    1.90
  -9 -11   3   37.70    2.10
   9 -11  -3   44.20    1.90
   9 -11  -3   43.30    2.20
  -9 -11   3   43.40    1.90
   0 -12  -3  226.98    7.70
   0 -12  -3  223.38    7.80
   0 -12   3  217.28    7.80
   0 -12   3  206.58    7.80
   0 -12   3  214.88    7.70
  -1 -12  -3    3.90    1.00
   1 -12   3    2.40    1.60
  -1 -12  -3    2.90    1.20
   1 -12   3    3.10    1.20
   1 -12  -3    2.70    0.90
  -1 -12   3    1.80    1.20
  -1 -12   3    0.20    1.10
  -2 -12  -3   32.80    2.10
  -2 -12  -3   32.00    2.50
   2 -12   3   29.70    2.40
   2 -12   3   29.80    2.20
   2 -12   3   30.90    3.00
  -2 -12  -3   33.20    2.10
   2 -12  -3   32.60    2.40
   2 -12  -3   31.40    2.00
  -2 -12   3   28.40    2.20
  -2 -12   3   29.50    2.10
   3 -12   3    7.80    1.70
   3 -12   3    9.00    1.70
  -3 -12  -3   10.80    1.80
  -3 -12  -3   10.70    1.50
   3 -12   3    8.60    1.60
   3 -12  -3   11.40    1.80
  -3 -12   3    8.30    1.50
  -3 -12   3    7.90    1.60
   3 -12  -3    8.60    1.40
   4 -12   3   25.10    2.40
   4 -12   3   26.10    2.00
   4 -12   3   26.60    2.10
  -4 -12  -3   27.20    2.00
  -4 -12  -3   26.80    2.10
   4 -12  -3   26.40    2.70
  -4 -12   3   29.00    2.00
   4 -12  -3   29.00    2.00
  -4 -12   3   29.70    2.00
   4 -12  -3   28.80    2.00
  -5 -12  -3    3.20    1.00
   5 -12   3    2.20    1.10
   5 -12   3    1.00    1.10
  -5 -12  -3    1.50    0.90
   5 -12   3    0.30    0.80
   5 -12  -3    1.20    0.90
   5 -12  -3    2.20    1.30
  -5 -12   3    2.00    0.90
   5  12   3    3.10    1.20
   5 -12  -3    0.50    0.90
  -5 -12   3    2.20    1.00
   6 -12   3   20.00    1.60
   6 -12   3   18.90    1.90
   6 -12   3   19.80    2.00
  -6 -12  -3   20.50    1.60
  -6 -12  -3   18.10    1.60
   6 -12  -3   16.60    1.70
  -6 -12   3   20.00    1.70
   6 -12  -3   20.20    1.60
   6  12   3   16.90    2.10
  -6 -12   3   19.00    1.60
  -7 -12  -3   63.89    2.80
  -7 -12  -3   60.29    2.70
   7 -12   3   64.09    2.70
   7 -12   3   60.89    2.80
  -7 -12   3   65.29    2.80
   7 -12  -3   62.89    2.70
   7 -12  -3   62.49    2.80
  -7 -12   3   61.99    2.70
   8 -12   3   32.80    2.30
  -8 -12  -3   31.70    1.60
   8 -12   3   28.40    1.70
   8 -12   3   30.50    1.60
  -8 -12  -3   29.20    1.60
   8 -12  -3   30.10    1.90
  -8 -12   3   30.00    1.60
  -8 -12   3   28.10    1.60
   8 -12  -3   28.40    1.50
  -9 -12  -3    4.70    0.80
   9 -12   3    5.90    0.80
  -9 -12   3    5.10    0.80
   9 -12  -3    4.60    0.80
   0 -13  -3    0.10    1.00
   0 -13  -3   -1.00    1.40
   0 -13   3   -1.90    1.40
   0 -13   3   -1.90    1.20
  -1 -13  -3   59.19    2.80
  -1 -13  -3   51.09    2.80
  -1 -13   3   55.19    2.90
   1 -13  -3   60.99    2.90
  -1 -13   3   51.49    2.80
  -2 -13  -3   81.79    3.80
   2 -13   3   77.89    4.10
  -2 -13  -3   83.39    3.50
   2 -13   3   79.59    3.60
  -2 -13  -3   80.39    3.60
  -2 -13   3   80.99    3.60
   2 -13  -3   82.19    3.60
  -2 -13   3   82.39    3.50
   2 -13  -3   78.49    3.50
  -3 -13  -3   78.69    3.40
   3 -13   3   74.49    3.80
   3 -13   3   78.69    3.50
  -3 -13  -3   80.29    3.50
   3 -13   3   79.49    3.40
   3 -13  -3   73.69    3.40
  -3 -13   3   77.69    3.40
  -3 -13   3   80.69    3.40
   3 -13  -3   76.59    3.40
  -4 -13  -3    1.90    1.00
   4 -13   3   -0.60    1.30
   4 -13   3    1.40    0.90
  -4 -13  -3    0.50    0.90
   4 -13   3    0.30    1.20
  -4 -13   3    0.80    0.90
   4 -13  -3    3.50    2.10
   4 -13  -3    1.20    0.90
   4 -13  -3    2.00    0.90
  -4 -13   3    2.20    0.90
   5 -13   3    8.30    1.90
   5 -13   3    9.20    1.80
  -5 -13  -3    9.40    1.40
   5 -13   3    8.10    1.50
  -5 -13  -3    5.60    1.30
   5 -13  -3    8.30    1.30
   5 -13  -3   11.10    1.50
   5  13   3   10.40    2.00
   5 -13  -3    6.50    1.40
  -5 -13   3    8.90    1.30
  -5 -13   3   12.40    1.50
   6 -13   3   42.10    2.10
  -6 -13  -3   42.90    2.20
  -6 -13  -3   42.70    2.10
   6 -13   3   40.50    2.30
   6  13   3   39.10    2.70
   6 -13  -3   43.90    2.10
  -6 -13   3   40.30    2.10
   6 -13  -3   42.00    2.20
  -6 -13   3   41.00    2.10
   7 -13   3    1.00    1.50
   7 -13   3    1.50    0.60
  -7 -13  -3    0.80    0.70
  -7 -13  -3    1.40    0.60
   7 -13   3    1.50    0.80
   7 -13  -3    1.00    0.90
  -7 -13   3    0.70    0.60
  -7 -13   3    1.00    0.60
   7 -13  -3   -0.60    0.60
   8 -13   3   33.50    1.50
  -8 -13  -3   27.70    1.80
  -8 -13  -3   36.00    1.60
   8 -13  -3   35.00    1.50
   0 -14  -3  238.48    8.20
   0 -14   3  230.88    8.20
   0 -14  -3  225.98    8.10
  -1 -14  -3    1.80    1.10
  -1 -14  -3    2.40    1.20
   1 -14  -3    2.20    1.10
  -1 -14   3    3.50    1.30
  -1 -14   3    3.00    1.10
  -2 -14  -3    0.20    1.00
  -2 -14  -3   -0.30    1.10
   2 -14   3    1.50    1.20
   2 -14  -3    1.90    1.00
   2 -14  -3    0.50    1.20
  -2 -14   3    0.20    0.90
  -2 -14   3    0.40    1.10
   3 -14   3    7.60    1.60
   3 -14   3    4.50    1.50
  -3 -14  -3    6.90    1.80
  -3 -14  -3    6.10    1.30
  -3 -14   3    4.10    1.00
   3 -14  -3    3.00    1.00
   3 -14  -3    4.00    1.00
  -3 -14   3    4.00    0.90
   4 -14   3   61.99    3.10
  -4 -14  -3   65.69    2.90
   4 -14   3   60.49    3.50
  -4 -14  -3   62.79    2.90
   4 -14  -3   59.29    2.90
   4 -14  -3   53.69    2.90
  -4 -14   3   65.69    2.90
   5 -14   3    1.90    0.80
  -5 -14  -3    2.50    0.90
  -5 -14  -3    0.60    0.70
   5 -14   3    2.70    1.10
   5 -14  -3    2.00    1.00
   5  14   3    2.70    2.10
  -5 -14   3    2.10    0.80
   5 -14  -3    1.20    0.70
  -5 -14   3    1.40    0.80
   6 -14   3   12.50    1.20
   6 -14   3   14.80    1.50
  -6 -14  -3   14.20    1.20
  -6 -14  -3   12.00    1.30
  -6 -14   3   13.50    1.30
  -6 -14   3   15.30    1.30
   6 -14  -3   16.10    1.70
   6 -14  -3   13.90    1.20
   7 -14   3   10.20    1.00
  -7 -14  -3   12.10    1.00
  -7 -14  -3    9.00    0.90
  -7 -14   3   12.10    1.00
  -7 -14   3   10.00    1.00
   7 -14  -3   12.00    1.00
   7 -14  -3   13.70    2.20
   8 -14   3    0.40    0.50
  -8 -14  -3   -0.10    0.50
  -8 -14  -3    0.50    0.60
  -8 -14   3    0.60    0.50
  -8 -14   3   -0.60    0.60
   8 -14  -3    0.10    0.40
   0 -15  -3    0.80    1.20
  -1 -15  -3   18.60    2.10
  -1 -15  -3   18.10    2.00
  -1 -15   3   18.30    2.20
  -1 -15   3   15.30    1.90
   1 -15  -3   20.80    1.90
  -2 -15  -3    3.20    1.00
   2 -15  -3    5.30    1.20
  -2 -15   3    3.10    0.90
  -2 -15   3    3.40    1.10
  -3 -15  -3   22.70    1.70
  -3 -15  -3   22.30    2.10
   3 -15   3   22.30    1.90
  -3 -15   3   21.70    1.60
   3 -15  -3   23.50    1.80
  -3 -15   3   23.10    1.80
   3 -15  -3   22.40    1.90
   4 -15   3   11.80    2.10
  -4 -15  -3   14.90    1.30
   4 -15   3   17.00    1.50
  -4 -15  -3   14.00    1.60
  -4 -15   3   13.30    1.20
  -4 -15   3   12.50    1.40
   4 -15  -3   12.60    1.40
   4  15   3   10.10    2.30
   5 -15   3    7.20    1.70
   5 -15   3    6.50    1.10
  -5 -15  -3    7.20    1.30
  -5 -15  -3    5.70    1.00
  -5 -15   3    5.90    1.00
   5 -15  -3    6.00    1.10
  -5 -15   3    6.70    1.20
   5 -15  -3    9.30    1.70
  -6 -15  -3    1.50    0.80
   6 -15   3    2.20    0.60
  -6 -15  -3    1.70    0.60
  -6 -15   3    2.10    0.60
   6 -15  -3    1.50    0.60
  -6 -15   3    0.90    0.60
   7 -15   3   20.10    1.10
  -7 -15   3   17.00    1.00
   7 -15  -3   17.20    1.00
  -7 -15   3   18.00    1.10
   0 -16  -3   59.39    3.10
  -1 -16  -3   -0.30    1.00
   1 -16  -3    1.60    1.40
  -1 -16   3   -0.90    1.10
  -2 -16  -3   14.80    1.40
  -2 -16   3   17.00    1.50
  -2 -16   3   14.10    1.90
   2 -16  -3   18.80    2.10
  -3 -16  -3   31.00    1.70
  -3 -16   3   28.30    1.80
   3 -16  -3   30.60    2.40
  -3 -16   3   28.20    1.70
  -4 -16  -3   -0.50    0.60
   4 -16   3    0.40    0.80
   4 -16  -3   -0.40    1.50
  -4 -16   3    0.30    0.60
  -4 -16   3    0.10    0.70
  -5 -16  -3    4.80    0.90
  -5 -16  -3    6.00    1.40
   5 -16   3    3.10    0.70
  -5 -16   3    4.80    0.80
  -5 -16   3    4.50    1.00
   5 -16  -3    2.30    0.70
  -6 -16  -3    0.30    0.50
   6 -16   3    0.90    0.60
  -6 -16   3    2.70    0.70
   6 -16  -3    1.40    0.60
  -6 -16   3    0.80    0.60
  -2 -17  -3   82.49    3.20
  -2 -17   3   81.69    3.20
  -3 -17  -3    0.70    0.70
  -3 -17   3    2.30    0.80
  -4 -17  -3   -0.20    0.60
  -4 -17   3   -0.10    0.60
  -5 -17  -3    3.70    0.70
  -5 -17   3    4.40    0.80
   0   0  -4  413.86   14.10
   0   0   4  466.45   14.10
   1   0   4  687.63   21.30
   1   0  -4  672.93   21.40
  -1   0  -4  654.63   21.30
  -1   0   4  674.33   21.40
   2   0   4  353.96   11.00
   2   0  -4  343.27   11.20
   2   0   4  334.57   11.00
  -2   0   4  345.27   11.20
   3   0   4  128.79    4.20
   3   0   4  122.39    4.20
   3   0  -4  119.19    4.50
  -3   0   4  125.89    4.50
   4   0   4  272.17    8.80
   4   0   4  252.57    8.90
   4   0  -4  274.97    9.00
  -4   0   4  253.57    9.20
   4   0  -4  266.97    9.20
   4   0   4  286.07    8.90
   5   0   4  349.27   11.20
   5   0  -4  337.57   11.10
  -5   0   4  304.37   11.70
   5   0   4  341.37   11.30
   5   0   4  342.67   11.20
   5   0  -4  350.26   11.70
   6   0   4  565.14   17.90
   6   0  -4  523.35   18.70
   6   0  -4  553.54   17.80
   7   0  -4   12.30    1.30
   7   0   4   12.60    2.80
   7   0   4   12.30    1.30
  -7   0  -4   13.40    2.40
   8   0  -4    0.50    0.80
  -8   0  -4   -1.70    1.40
   8   0   4    1.30    0.90
   9   0   4   24.40    1.80
   9   0  -4   19.30    1.70
  -9   0   4   22.00    1.80
  -9   0  -4   27.90    2.60
  10   0  -4   35.20    2.20
 -10   0   4   38.00    2.10
  10   0   4   34.00    2.10
  11   0   4   41.50    2.10
  11   0  -4   39.00    2.20
 -11   0   4   35.90    2.00
   0  -1  -4   -5.60    0.20
   0  -1   4   -6.10    0.20
   0   1  -4   -5.00    0.30
   1   1  -4   62.49    2.40
  -1  -1  -4   68.39    2.40
   1  -1   4   73.09    2.20
  -1   1   4   66.39    2.40
  -1  -1   4   63.29    2.40
  -1   1  -4   71.69    2.20
   1  -1  -4   68.29    2.40
   1   1   4   67.59    2.40
  -2   1   4  188.18    6.50
   2   1  -4  191.88    6.50
  -2  -1   4  206.08    6.60
   2  -1  -4  175.28    6.50
   2   1   4  205.88    6.40
   3   1  -4  805.42   28.20
   3  -1   4  965.10   27.80
   3  -1  -4  877.11   28.20
   3   1   4  888.41   28.10
  -3  -1   4  896.81   28.30
   3   1   4  843.22   28.00
   4   1  -4  231.38    8.30
   4  -1   4  234.98    8.00
  -4   1   4  235.18    8.30
   4  -1   4  253.17    7.80
   4  -1   4  263.97    7.80
  -4  -1   4  234.48    8.40
   4   1   4  240.68    8.10
   4   1   4  248.48    8.20
   4  -1  -4  237.18    8.00
   4  -1  -4  236.18    8.20
   4   1   4  228.18    8.00
   5  -1   4  463.15   14.60
   5  -1   4  470.65   14.80
   5   1  -4  449.76   15.30
   5   1  -4  443.36   14.80
  -5   1   4  417.36   15.30
  -5  -1   4  430.16   15.40
   5  -1  -4  470.05   15.20
   5   1   4  449.36   15.00
   5  -1  -4  465.35   14.80
   5   1   4  468.75   14.90
   5   1   4  463.25   15.10
   6   1  -4   36.00    1.90
   6   1  -4   32.60    4.30
   6  -1   4   37.70    1.90
   6  -1  -4   26.40    3.70
   6  -1  -4   35.10    1.80
   6   1   4   35.70    1.90
   7  -1   4   91.39    3.60
   7  -1   4   87.29    4.20
   7   1  -4   90.79    3.60
  -7  -1  -4   86.19    4.00
   7   1   4   90.29    3.70
  -7   1  -4   84.89    4.30
   7  -1  -4   96.19    3.60
   8   1  -4    5.70    1.40
   8  -1   4    8.70    1.30
  -8  -1  -4    6.50    1.50
   8   1   4    7.10    1.30
  -8  -1   4    7.80    1.30
   8  -1  -4    5.50    1.30
   9   1  -4   18.20    1.70
  -9   1   4   21.60    1.80
   9  -1   4   17.70    1.60
  -9  -1  -4   15.80    2.10
  -9  -1   4   16.60    1.80
   9   1   4   17.80    1.60
   9  -1  -4   16.30    1.60
  10   1  -4   55.19    2.70
 -10   1   4   58.49    2.60
  10  -1   4   54.69    2.70
  10   1   4   53.39    2.70
 -10   1  -4   55.29    2.80
  10  -1  -4   57.39    2.70
 -10  -1   4   59.19    2.70
 -11   1   4    6.00    1.30
  11   1  -4    6.30    1.60
  11  -1   4    7.90    1.30
  11   1   4    8.00    1.30
  11  -1  -4    7.90    1.50
   0  -2   4   47.80    1.70
   0   2  -4   41.70    1.70
   0   2   4   43.10    1.80
   0  -2  -4   42.90    1.80
   1   2  -4    0.70    0.30
  -1   2   4    0.70    0.30
  -1  -2  -4    0.80    0.30
  -1  -2   4    1.10    0.30
   1   2   4    0.90    0.30
   1  -2  -4    0.80    0.30
   2   2  -4  554.94   18.00
  -2   2   4  572.44   18.00
  -2  -2   4  564.44   18.00
   2   2   4  559.24   18.00
   2  -2  -4  533.85   17.90
   3   2  -4  424.26   14.90
   3   2   4  472.35   14.90
   3   2   4  448.86   14.80
  -3  -2   4  463.35   14.90
   3  -2  -4  458.55   14.80
   4  -2   4  309.07   10.00
  -4   2   4  298.37   10.30
   4   2  -4  297.27   10.40
   4   2   4  305.87   10.20
  -4  -2   4  291.07   10.40
   4  -2  -4  294.27   10.00
   4  -2  -4  310.97   10.20
   4   2   4  304.47   10.10
   4   2   4  316.77   10.40
   5   2  -4    1.90    1.20
   5   2  -4    0.20    0.80
  -5   2   4    0.50    1.30
   5  -2   4   -0.10    0.60
   5  -2  -4    0.70    0.60
   5  -2  -4    1.10    1.10
   5   2   4    1.70    1.50
   5   2   4    0.40    0.60
   6  -2   4  116.39    4.30
   6   2  -4  117.29    4.30
   6  -2   4  103.99    4.90
  -6  -2  -4  110.79    4.60
   6   2  -4  102.09    6.20
  -6  -2   4  135.19    5.80
   6  -2  -4  120.19    4.70
   6   2   4  114.29    4.30
   6  -2  -4  115.49    4.30
  -7  -2  -4   -0.20    1.20
   7  -2   4    1.10    1.40
   7  -2   4    0.50    0.80
   7   2  -4    0.60    0.80
  -7  -2   4    5.30    1.80
  -7  -2   4   -0.30    1.10
   7  -2  -4    3.40    1.50
   7   2   4    1.40    0.80
   7  -2  -4    1.20    0.70
  -8  -2  -4   12.60    2.00
   8  -2   4   11.10    2.30
   8   2  -4   11.60    1.50
   8  -2   4   12.70    1.40
   8  -2  -4   14.20    1.40
  -8  -2   4    8.80    1.80
   8   2   4   11.60    1.40
   9   2  -4   22.40    1.80
  -9  -2  -4   25.80    2.20
   9  -2   4   24.30    1.80
   9  -2  -4   22.90    1.90
   9   2   4   22.80    1.80
  -9  -2   4   25.70    2.00
  10  -2   4    2.20    0.90
 -10  -2  -4    0.80    1.20
 -10   2   4    2.20    0.80
  10   2  -4    1.20    1.00
  10  -2  -4    3.20    0.90
  10   2   4    5.10    1.30
 -10  -2   4    1.20    1.00
  11   2  -4    1.40    1.20
 -11   2   4   -0.10    0.70
  11  -2   4    1.70    0.80
  11  -2  -4    1.80    1.00
  11   2   4    1.10    0.80
   0  -3   4   -0.20    0.20
   0   3  -4   -0.20    0.20
  -1   3   4 3893.51  118.79
   1   3  -4 3777.32  119.19
  -1  -3  -4 3569.84  118.69
  -1  -3   4 3482.15  117.89
   1  -3  -4 3756.22  118.89
  -1   3  -4 3789.82  118.29
   1   3   4 3882.71  118.89
  -2   3   4  424.16   13.50
   2   3  -4  399.06   13.50
   2  -3  -4  399.56   13.40
   2   3   4  413.06   13.80
  -2  -3   4  420.76   13.50
  -3   3   4   68.99    2.90
   3   3  -4   70.99    3.00
   3   3   4   72.89    2.90
  -3  -3   4   75.39    3.10
   3   3   4   70.89    3.10
   3  -3  -4   68.49    2.80
   4   3  -4    7.50    1.60
   4   3  -4    7.30    1.30
   4  -3   4    7.60    1.00
  -4   3   4    8.30    1.60
   4  -3  -4    9.10    1.30
   4   3   4   11.40    1.90
  -4  -3   4    7.30    1.80
   4  -3  -4    7.90    1.00
   4   3   4    9.50    1.50
   5   3  -4   12.90    2.70
   5  -3   4   11.50    1.10
  -5   3   4    9.40    1.70
   5   3  -4   11.80    1.40
   5   3   4   10.20    2.10
   5   3   4   11.70    1.20
   5  -3  -4   11.60    2.20
   5  -3  -4   12.90    1.10
   5   3   4   13.10    2.40
   6  -3   4    0.30    1.50
   6  -3   4   -0.30    2.90
   6   3  -4   -0.90    0.80
  -6  -3  -4    0.90    1.10
   6  -3   4    0.90    0.70
   6  -3  -4    0.00    0.60
  -6  -3   4    2.40    1.70
   6  -3  -4    1.70    1.30
   6  -3  -4    1.10    1.20
  -6  -3   4    0.90    1.30
   6   3   4    0.40    0.70
  -7  -3  -4   32.80    2.30
   7  -3   4   31.40    2.60
   7   3  -4   32.60    2.00
   7  -3   4   33.30    1.90
   7  -3   4   32.10    2.80
   7  -3  -4   30.90    2.50
  -7  -3   4   31.80    2.70
   7  -3  -4   32.80    1.90
   7   3   4   33.40    2.00
  -7  -3   4   32.60    2.40
   8   3  -4   94.79    3.80
  -8  -3  -4   89.49    3.90
   8  -3   4   94.99    3.80
   8  -3   4   89.39    4.10
  -8  -3   4   84.39    4.10
  -8  -3   4   89.19    3.90
   8   3   4   90.49    3.90
   8  -3  -4   99.79    3.80
   8  -3  -4   91.09    4.00
   9   3  -4    2.30    1.10
  -9  -3  -4    1.30    1.10
   9  -3   4    1.20    0.80
   9   3   4    2.20    0.90
  -9  -3   4    1.90    1.20
   9  -3  -4    1.40    0.90
 -10   3   4   11.60    1.40
  10   3  -4   10.40    1.70
 -10  -3  -4   12.90    1.70
  10  -3   4   11.10    1.40
  10  -3  -4   10.90    1.40
  10   3   4   13.90    1.50
 -11   3   4   22.50    1.40
  11   3  -4   17.60    2.40
  11  -3   4   22.50    1.50
 -11   3  -4   21.10    1.70
  11  -3  -4   21.60    1.70
  11   3   4   21.20    1.60
   0  -4  -4    5.00    0.80
   0   4  -4    5.90    0.70
   1   4  -4  793.02   25.70
   1  -4  -4  796.52   25.70
  -1   4  -4  829.92   25.50
   1   4   4  781.22   25.80
  -1   4  -4  799.42   25.50
  -2   4   4  374.16   13.00
   2   4  -4  393.86   13.20
  -2  -4   4  396.86   13.10
  -2   4  -4  406.36   12.60
   2   4   4  404.56   13.20
   2  -4  -4  391.76   13.00
  -2   4  -4  406.96   12.60
   3   4  -4    4.20    0.90
  -3   4   4    3.00    0.80
   3  -4  -4    4.60    0.90
   3   4   4    2.50    0.80
   3   4   4    5.50    1.50
  -3  -4   4    1.30    0.80
   3  -4  -4    3.90    1.10
   4   4  -4  503.95   16.70
   4   4  -4  474.25   16.00
  -4   4   4  485.95   16.40
   4  -4   4  489.85   16.00
   4   4   4  485.85   16.50
   4  -4  -4  501.15   16.30
   4   4   4  502.85   16.70
   4  -4  -4  503.45   16.00
  -5   4   4   44.00    3.70
   5  -4   4   48.20    2.10
   5   4  -4   50.09    3.80
   5   4  -4   50.59    2.30
   5  -4  -4   42.70    3.30
   5   4   4   40.40    2.40
   5   4   4   45.00    3.70
   6  -4   4   57.19    3.30
   6   4  -4   62.19    2.80
  -6  -4  -4   59.69    2.90
  -6  -4  -4   54.39    3.30
   6  -4   4   55.79    3.20
   6  -4   4   61.79    2.60
   6   4   4   61.19    2.80
  -6  -4   4   56.29    3.10
  -6  -4   4   54.79    3.40
   6  -4  -4   62.69    3.10
   6  -4  -4   68.09    2.70
  -6  -4   4   68.29    4.00
   6  -4  -4   57.59    3.00
   7  -4   4    3.30    1.30
  -7  -4  -4    3.50    1.10
   7  -4   4    4.40    1.40
   7   4  -4    4.80    1.10
   7  -4   4    5.20    1.20
   7   4   4    5.60    1.30
   7  -4  -4    4.90    1.30
   7  -4  -4    4.50    1.20
   7  -4  -4    3.50    1.20
  -7  -4   4    4.20    1.40
  -7  -4   4    5.90    1.50
   8   4  -4   15.10    1.70
   8  -4   4   13.70    2.10
   8  -4   4   11.30    2.20
  -8  -4  -4   13.80    1.70
   8  -4   4   12.00    1.40
   8   4   4   14.70    1.60
  -8  -4   4   12.80    2.30
   8  -4  -4   12.60    1.40
   8  -4  -4   14.10    2.00
  -8  -4   4    7.90    2.00
   9  -4   4   75.39    3.40
   9   4  -4   74.89    3.50
  -9  -4  -4   83.09    3.50
  -9  -4   4   84.19    3.60
   9  -4  -4   76.89    3.40
   9  -4  -4   76.19    3.50
   9   4   4   79.09    3.50
  10  -4   4    9.30    1.40
 -10  -4  -4    9.30    1.60
  10   4  -4    7.20    1.70
 -10   4   4   10.30    1.30
  10   4   4   12.30    1.50
  10  -4  -4    7.60    1.40
  11  -4   4   -0.20    0.80
 -11  -4  -4    0.60    1.40
 -11   4   4    1.80    0.60
  11  -4  -4    1.40    0.90
 -11   4  -4    1.10    1.10
  11   4   4    2.20    1.00
   0   5  -4    0.00    0.50
   0   5   4   -0.30    0.60
   0  -5  -4   -0.90    0.50
  -1   5   4   22.00    1.50
   1   5  -4   21.50    1.50
   1  -5  -4   21.40    1.50
  -1   5  -4   23.00    1.30
  -1   5  -4   23.90    1.30
   1   5   4   22.50    1.60
  -2   5   4   11.30    1.40
   2   5  -4    9.50    1.50
  -2  -5  -4   13.00    1.20
  -2   5  -4   15.20    0.90
   2   5   4   11.40    1.60
   2  -5  -4   14.30    1.10
  -2   5  -4   14.30    0.90
   2  -5  -4   12.50    1.30
   3   5  -4   14.00    1.80
  -3  -5  -4    9.00    1.10
  -3   5   4   13.10    1.80
   3  -5   4   10.20    1.20
   3   5   4   14.00    1.70
   3  -5  -4   12.20    1.40
   3   5   4    8.80    2.10
   3  -5  -4   11.60    1.00
   4   5  -4   14.30    1.60
  -4   5   4   13.20    2.50
   4   5  -4   14.40    2.40
   4  -5   4   16.30    1.20
   4  -5  -4   13.90    2.30
   4   5   4   13.60    2.60
   4  -5  -4   15.60    1.20
   5  -5   4    4.40    1.50
   5  -5   4    2.30    1.30
  -5  -5  -4    1.20    1.10
   5  -5   4    3.90    1.00
   5   5  -4    3.00    1.00
  -5  -5   4    2.30    1.30
   5   5   4    3.60    2.10
   5   5   4    2.70    0.80
   5  -5  -4    5.00    1.50
   5  -5  -4    2.40    0.70
   5  -5  -4    2.90    1.20
   6   5  -4   24.80    1.90
   6  -5   4   24.10    1.50
  -6  -5  -4   21.90    2.00
   6  -5   4   24.40    2.40
   6  -5   4   24.40    2.20
  -6  -5  -4   24.40    2.40
   6  -5  -4   22.60    2.00
  -6  -5   4   21.30    2.30
   6  -5  -4   22.50    1.60
   6   5   4   23.80    1.70
   6  -5  -4   25.30    2.20
  -6  -5   4   21.20    2.10
  -7  -5  -4  211.78    7.60
   7  -5   4  225.68    7.60
   7   5  -4  222.18    7.60
  -7  -5  -4  199.98    7.70
   7  -5   4  218.28    7.90
   7  -5  -4  218.28    7.60
  -7  -5   4  205.98    7.70
   7   5   4  211.08    7.70
   7  -5  -4  215.98    7.80
   8   5  -4   85.19    3.90
   8  -5   4   83.89    3.80
   8  -5   4   82.29    3.70
  -8  -5  -4   84.39    3.70
   8  -5   4   82.79    3.90
  -8  -5   4   89.29    3.70
   8  -5  -4   87.29    3.60
   8  -5  -4   70.09    4.20
   9  -5   4    0.90    1.20
   9   5  -4    1.60    1.20
   9  -5   4    1.30    0.80
  -9  -5  -4    0.10    0.90
   9  -5   4    1.40    1.10
  -9  -5   4    0.10    1.10
   9  -5  -4    1.00    1.10
   9  -5  -4    0.60    0.80
   9   5   4    0.10    0.90
  10   5  -4    0.40    1.40
  10  -5   4    1.20    0.80
 -10  -5  -4   -0.60    0.80
 -10  -5   4   -1.00    1.40
  10   5   4   -0.10    0.90
  10  -5  -4    0.30    0.80
 -11  -5  -4    5.20    1.00
 -11   5   4    5.50    1.00
  11  -5   4    4.90    1.00
  11  -5  -4    5.90    1.40
  11   5   4    2.40    1.10
 -11   5  -4    4.90    1.20
   0   6   4  344.87   11.60
   0   6  -4  352.86   11.50
   0   6  -4  336.67   11.40
   0  -6  -4  321.67   11.10
   1   6  -4   14.90    1.60
  -1   6   4   16.20    1.70
  -1  -6  -4   16.30    1.20
   1  -6  -4   13.60    1.60
  -1   6  -4   18.00    1.30
   1   6   4   15.60    1.80
   1  -6  -4   13.40    1.10
   2   6  -4    4.00    1.00
  -2  -6  -4    3.40    0.80
  -2   6   4    5.20    1.10
   2   6   4    2.10    0.80
  -2   6  -4    5.10    1.10
  -2   6  -4    4.30    1.00
   2  -6  -4    3.30    0.90
   2   6   4    4.80    1.20
   2  -6  -4    5.00    1.00
  -3   6   4    9.60    2.30
  -3  -6  -4   12.70    1.20
   3   6  -4   11.60    2.20
   3  -6   4    9.30    1.20
   3  -6  -4   10.20    1.90
   3   6   4   10.70    2.00
   3  -6  -4   13.80    1.10
   4  -6   4  139.69    4.70
  -4   6   4  125.29    6.10
   4   6  -4  135.29    6.10
   4   6  -4  131.99    4.90
   4  -6  -4  125.89    5.10
   4   6   4  138.99    6.20
   4  -6  -4  130.19    5.60
   5   6  -4  138.79    5.10
   5  -6   4  134.09    5.20
   5  -6   4  132.29    5.40
  -5  -6  -4  136.79    5.10
  -5  -6  -4  136.89    5.20
   5  -6   4  138.59    4.90
   5  -6  -4  129.19    5.10
   5  -6  -4  141.19    5.40
  -5  -6   4  131.89    5.20
   5  -6  -4  142.09    5.00
  -5  -6   4  131.99    5.10
   6   6  -4    9.10    1.70
   6  -6   4   12.90    1.80
  -6  -6  -4   10.40    1.60
   6  -6   4    7.50    2.00
   6  -6   4    9.00    1.30
  -6  -6  -4    9.50    1.90
   6  -6  -4   11.70    1.70
   6   6   4   11.60    1.50
  -6  -6   4   10.30    1.70
   6  -6  -4   10.10    1.20
  -6  -6   4    8.60    1.90
   6  -6  -4   10.40    1.90
   7   6  -4   39.70    2.40
   7  -6   4   41.60    2.70
   7  -6   4   38.90    2.20
   7  -6   4   36.00    2.40
  -7  -6  -4   40.80    2.60
  -7  -6  -4   42.00    2.40
   7  -6  -4   38.60    2.50
  -7  -6   4   36.60    2.40
   7  -6  -4   38.50    2.10
   7  -6  -4   36.40    2.40
   7   6   4   42.20    2.40
  -7  -6   4   37.20    2.50
   8  -6   4    9.40    1.30
   8  -6   4    8.20    1.90
  -8  -6  -4   12.10    2.20
   8   6  -4    7.90    1.80
   8  -6   4    9.30    1.70
  -8  -6  -4    5.90    1.50
   8  -6  -4   10.10    1.40
   8  -6  -4    5.80    1.10
  -8  -6   4    7.20    1.60
   8   6   4    8.80    1.60
  -8  -6   4    6.80    1.90
   9  -6   4    8.20    1.60
   9   6  -4    6.90    1.50
  -9  -6  -4    6.70    1.40
   9  -6   4    7.50    1.30
   9  -6  -4    8.80    1.40
   9   6   4    4.40    1.10
   9  -6  -4    8.90    1.70
  -9  -6   4   10.50    1.50
  10  -6   4    4.30    1.20
 -10  -6  -4    8.00    1.30
 -10  -6   4    6.80    1.70
  10  -6  -4    6.50    1.30
  10  -6  -4    7.90    1.70
 -11   6   4    3.30    0.90
 -11  -6  -4    5.60    1.20
 -11   6  -4    2.50    0.70
  11  -6  -4    3.70    1.00
   0  -7  -4   -0.40    0.60
   0   7  -4    0.00    1.10
   0   7   4   -1.50    1.20
  -1  -7  -4   66.99    2.60
   1   7  -4   67.69    3.80
  -1   7   4   58.99    3.50
   1   7  -4   68.59    3.40
   1   7   4   64.49    3.80
  -1   7  -4   66.39    3.20
   1  -7  -4   68.09    2.60
  -1   7  -4   68.19    3.00
  -2   7   4  522.35   18.20
   2  -7   4  515.55   17.50
  -2  -7  -4  553.84   17.60
   2   7  -4  590.14   18.40
  -2   7  -4  478.75   18.00
   2  -7  -4  553.34   18.20
   2  -7  -4  560.04   17.60
   2   7   4  560.24   18.30
  -2   7  -4  551.44   17.70
   3   7  -4   24.10    3.10
  -3  -7  -4   29.60    1.70
  -3   7   4   31.00    3.60
   3  -7   4   30.40    1.70
   3  -7  -4   31.40    1.60
   3   7   4   28.00    3.00
   3  -7  -4   29.10    3.20
   4  -7   4    3.10    1.40
   4  -7   4    1.80    1.10
   4   7  -4    0.40    1.10
  -4  -7  -4    3.20    1.20
   4  -7   4    4.60    1.20
  -4  -7  -4    1.70    1.10
   4  -7  -4    4.10    1.00
   4  -7  -4    1.30    1.00
   4  -7  -4    3.50    1.60
  -4  -7   4    1.80    1.10
  -4  -7   4    0.60    1.10
   5  -7   4   10.00    1.80
   5  -7   4    8.50    1.20
   5  -7   4   10.30    2.10
   5   7  -4    7.20    1.80
  -5  -7  -4   10.10    1.70
  -5  -7  -4    8.80    1.60
  -5  -7   4    9.60    1.70
   5  -7  -4   13.60    2.10
   5  -7  -4    9.50    1.20
  -5  -7   4    9.60    1.70
   5  -7  -4    5.60    1.10
   6  -7   4    9.60    2.00
   6   7  -4   13.00    1.90
   6  -7   4   11.70    1.30
  -6  -7  -4    9.80    1.70
  -6  -7   4   12.10    1.80
   6  -7  -4   10.90    2.50
  -6  -7   4   10.90    1.80
   6  -7  -4    8.10    1.30
   6   7   4   11.10    1.60
   7  -7   4   52.09    2.70
   7  -7   4   48.40    2.50
  -7  -7  -4   52.59    2.80
   7  -7   4   50.89    3.00
  -7  -7  -4   47.70    2.60
   7   7  -4   47.80    2.90
  -7  -7   4   48.50    2.70
  -7  -7   4   50.19    2.80
   7   7   4   54.39    2.80
   7  -7  -4   54.99    2.70
   7  -7  -4   50.09    2.60
   7  -7  -4   57.29    3.00
  -8  -7  -4  174.78    6.40
   8  -7   4  177.18    6.60
  -8  -7  -4  175.28    6.30
   8  -7   4  158.78    6.20
   8  -7   4  177.88    6.30
   8   7  -4  171.48    6.50
   8  -7  -4  161.28    6.30
   8   7   4  172.68    6.50
  -8  -7   4  175.78    6.40
  -8  -7   4  178.18    6.30
   8  -7  -4  176.58    6.30
   9  -7   4    3.20    1.60
   9  -7   4    5.50    1.30
  -9  -7  -4    1.90    1.10
   9  -7   4    6.20    1.50
  -9  -7   4    5.60    1.40
   9  -7  -4    5.40    1.10
   9   7   4    3.80    1.10
   9  -7  -4    5.10    1.00
  10  -7   4    1.00    0.90
 -10  -7  -4    2.10    0.70
  10  -7   4   -0.60    1.00
  10  -7  -4    0.80    0.80
 -10  -7   4    1.10    0.90
  10   7   4    1.90    1.10
  10  -7  -4   -0.50    0.80
 -11  -7  -4    3.60    0.80
 -11   7   4    5.40    0.90
 -11   7  -4    2.40    0.70
   0  -8  -4    1.20    0.60
   0  -8   4    1.10    1.10
   0   8  -4    0.40    1.20
   0   8  -4    1.00    1.60
   1   8  -4    2.50    1.50
  -1  -8  -4    2.70    0.70
   1  -8   4    3.10    1.00
   1   8   4    3.80    1.40
   1  -8  -4    2.60    0.70
  -1   8  -4    2.70    1.20
  -1  -8   4    2.30    1.20
  -1   8  -4    1.00    1.50
   2  -8   4   48.40    2.30
  -2  -8  -4   49.60    2.30
   2   8  -4   45.90    3.80
   2   8   4   45.70    3.60
  -2  -8   4   49.90    3.00
   2  -8  -4   50.89    2.20
  -2   8  -4   50.39    3.10
  -3  -8  -4   30.30    2.40
   3  -8   4   31.40    2.30
  -3  -8  -4   33.90    1.90
   3  -8   4   34.00    2.70
  -3  -8  -4   33.70    2.10
   3  -8   4   31.40    1.90
   3  -8  -4   33.60    1.70
   3  -8  -4   30.00    2.20
  -3  -8   4   32.10    2.00
  -3  -8   4   32.00    2.20
   4   8  -4    6.80    1.30
   4  -8   4    6.50    1.40
   4  -8   4    5.00    1.30
   4  -8   4    8.00    1.70
  -4  -8  -4    9.70    1.70
  -4  -8  -4    6.60    1.30
   4  -8  -4    9.10    1.80
   4  -8  -4    9.10    1.20
  -4  -8   4    6.10    1.50
  -4  -8   4    5.70    1.50
   4  -8  -4    6.50    1.60
   5  -8   4   57.09    3.10
   5   8  -4   53.79    3.00
   5  -8   4   57.99    2.90
  -5  -8  -4   56.89    2.80
  -5  -8  -4   57.09    2.80
   5  -8   4   57.29    2.60
   5  -8  -4   56.09    2.60
  -5  -8   4   59.99    2.80
   5  -8  -4   53.39    3.10
   5  -8  -4   54.59    2.80
  -5  -8   4   60.69    2.80
   6  -8   4   29.90    2.10
   6  -8   4   28.80    1.80
   6   8  -4   30.80    2.40
  -6  -8  -4   25.70    2.10
   6  -8   4   25.50    2.30
  -6  -8  -4   26.90    2.00
   6   8   4   31.60    2.10
  -6  -8   4   21.80    2.10
  -6  -8   4   26.20    2.00
   6  -8  -4   25.20    2.30
   6  -8  -4   31.60    1.90
   6  -8  -4   24.00    2.00
  -7  -8  -4    4.60    1.10
  -7  -8  -4    5.70    1.20
   7  -8   4    6.10    1.50
   7  -8   4    4.90    1.20
   7  -8   4    8.90    1.40
   7  -8  -4    5.10    1.20
   7  -8  -4    6.50    1.40
  -7  -8   4    5.10    1.10
  -7  -8   4    4.40    1.10
   7  -8  -4    4.60    1.00
   7   8   4    4.20    1.20
  -8  -8  -4    1.50    1.20
   8  -8   4    3.90    1.00
  -8  -8  -4    2.50    0.90
   8  -8   4    2.90    1.10
   8  -8   4    3.00    0.90
  -8  -8   4    3.00    1.20
  -8  -8   4    3.70    1.00
   8  -8  -4    2.90    0.90
   8  -8  -4    3.70    0.90
   8   8   4    4.20    1.20
  -9  -8  -4   33.80    1.90
   9  -8   4   31.10    1.90
   9  -8   4   30.60    2.00
   9  -8   4   30.80    2.00
   9  -8  -4   29.10    1.90
   9   8   4   28.50    2.10
   9  -8  -4   28.80    1.80
  -9  -8   4   31.40    1.90
  10  -8   4    0.40    1.20
  10  -8   4    0.10    1.00
 -10  -8  -4    0.00    0.60
  10  -8  -4    0.70    0.80
  10  -8  -4    1.90    0.80
  10   8   4    2.10    1.20
 -10  -8   4    0.20    0.80
 -11   8   4    3.30    0.70
 -11   8  -4    1.00    0.60
   0   9  -4   -3.80    1.90
   0  -9   4    1.10    1.10
   0  -9  -4    0.00    0.70
   1  -9   4   60.29    2.60
   1   9  -4   54.09    4.60
  -1  -9  -4   63.49    2.60
  -1  -9   4   54.39    3.30
  -1   9  -4   56.49    4.40
   1  -9  -4   63.69    2.60
   2  -9   4    8.40    1.40
  -2  -9  -4    9.70    1.30
  -2  -9  -4    8.50    1.70
   2  -9   4    9.50    2.10
   2  -9   4    9.70    2.40
  -2  -9   4    9.30    1.60
   2  -9  -4   10.10    2.10
  -2  -9   4   10.30    1.80
   2  -9  -4   10.10    1.10
   3  -9   4   36.20    2.80
   3  -9   4   39.70    2.40
  -3  -9  -4   38.60    2.30
  -3  -9  -4   38.10    2.50
   3  -9   4   38.50    2.10
  -3  -9  -4   38.00    2.10
  -3  -9   4   38.80    2.20
   3  -9  -4   38.60    2.40
   3  -9  -4   33.40    3.50
   3  -9  -4   36.80    2.00
  -3  -9   4   39.10    2.30
   4   9  -4    1.40    1.30
  -4  -9  -4    1.10    1.00
   4  -9   4    2.10    1.00
   4  -9   4    3.00    1.30
   4  -9   4    4.10    1.00
  -4  -9  -4    3.10    0.90
   4  -9  -4    2.10    1.50
   4  -9  -4    1.80    0.90
  -4  -9   4    3.30    1.10
   4  -9  -4    2.40    0.80
  -4  -9   4    2.30    1.00
   5  -9   4   37.70    2.40
   5  -9   4   44.20    2.70
   5   9  -4   42.60    2.80
  -5  -9  -4   42.40    2.40
   5  -9   4   41.60    2.20
  -5  -9  -4   36.30    2.30
   5  -9  -4   40.10    3.00
   5  -9  -4   40.20    2.30
   5  -9  -4   39.40    2.20
  -5  -9   4   36.90    2.30
  -5  -9   4   40.00    2.40
  -6  -9  -4   23.60    1.90
   6  -9   4   19.90    1.80
  -6  -9  -4   20.20    1.80
   6   9  -4   25.50    2.50
   6  -9   4   25.30    1.90
   6  -9   4   18.90    2.10
  -6  -9   4   21.40    1.90
   6  -9  -4   21.50    1.80
  -6  -9   4   23.10    1.80
   6  -9  -4   19.50    2.20
   6   9   4   18.80    1.90
   6  -9  -4   21.00    1.80
   7  -9   4   17.70    1.90
  -7  -9  -4   16.80    1.70
   7  -9   4   13.80    1.70
   7  -9   4   16.20    1.70
  -7  -9  -4   17.90    1.70
   7  -9  -4   16.10    1.60
  -7  -9   4   16.90    1.80
   7  -9  -4   13.80    2.00
  -7  -9   4   15.40    1.70
   7  -9  -4   16.00    1.70
   7   9   4   13.00    1.90
   8  -9   4   20.90    1.90
   8  -9   4   21.50    1.90
   8  -9   4   21.40    1.70
  -8  -9  -4   20.50    1.70
  -8  -9   4   18.20    2.20
   8  -9  -4   20.00    1.60
   8  -9  -4   21.10    1.70
   8   9   4   21.10    2.00
  -8  -9   4   21.70    1.60
  -9  -9  -4    2.80    1.20
  -9  -9  -4    1.70    0.70
   9  -9   4    1.20    0.70
   9  -9   4    1.00    0.80
   9  -9   4    1.00    1.00
   9  -9  -4    1.50    0.70
   9   9   4    1.60    1.10
   9  -9  -4   -0.30    0.70
  -9  -9   4    0.40    0.70
  -9  -9   4    2.80    1.60
 -10   9   4    0.60    0.50
 -10  -9  -4    0.40    0.60
  10  -9   4    0.40    0.80
  10  -9  -4   -0.30    0.90
  10  -9  -4    0.80    0.60
 -10  -9   4   -0.30    0.70
   0 -10  -4   59.99    2.60
   0 -10   4   54.29    3.10
   0 -10   4   56.29    2.80
   0 -10  -4   57.39    3.20
   0 -10   4   61.59    4.20
   0 -10   4   57.89    3.10
   1 -10   4   -0.40    1.50
   1 -10   4    0.10    1.80
   1 -10   4   -1.10    1.70
   1 -10   4   -1.70    1.10
  -1 -10  -4    1.30    0.80
  -1 -10  -4    1.60    1.10
  -1 -10   4   -0.30    1.20
  -1 -10   4   -0.30    1.20
   1 -10  -4    2.20    1.60
   1 -10  -4    1.50    0.70
   2 -10   4   65.49    2.90
   2 -10   4   62.29    3.30
  -2 -10  -4   62.59    3.30
  -2 -10  -4   70.19    3.00
   2 -10   4   63.69    3.60
  -2 -10  -4   66.79    2.90
   2 -10  -4   61.39    3.20
  -2 -10   4   65.09    3.10
   2 -10  -4   71.79    2.80
  -2 -10   4   61.49    3.00
   3 -10   4   11.50    1.90
   3 -10   4    8.40    2.30
   3 -10   4   11.90    1.50
  -3 -10  -4   11.90    1.50
  -3 -10  -4    8.60    1.90
  -3 -10  -4   13.70    1.60
   3 -10  -4   14.50    3.10
   3 -10  -4   11.10    1.80
  -3 -10   4   14.90    1.60
   3 -10  -4   12.00    1.30
  -3 -10   4   12.30    1.70
  -4 -10  -4   32.40    2.10
   4 -10   4   28.30    2.00
   4 -10   4   28.90    2.70
  -4 -10  -4   30.90    2.20
   4 -10   4   29.70    2.10
   4 -10  -4   28.60    2.80
   4 -10  -4   33.00    1.90
   4 -10  -4   28.50    2.10
  -4 -10   4   30.70    2.00
  -4 -10   4   31.90    2.00
   5 -10   4   70.29    3.00
  -5 -10  -4   62.69    3.10
   5 -10   4   68.89    3.20
   5 -10   4   67.69    3.40
  -5 -10  -4   67.19    3.10
   5 -10  -4   65.99    3.10
  -5 -10   4   69.19    3.20
   5 -10  -4   64.79    3.40
  -5 -10   4   66.89    3.10
   5 -10  -4   69.79    3.10
   6 -10   4   87.29    3.70
  -6 -10  -4   91.59    3.80
  -6 -10  -4   91.19    3.70
   6 -10   4   84.09    3.90
   6 -10   4   85.39    3.70
   6 -10  -4   80.49    3.60
   6 -10  -4   86.99    3.60
   6  10   4   86.39    3.90
  -6 -10   4   85.69    3.70
   6 -10  -4   86.59    4.00
  -6 -10   4   87.29    3.70
  -7 -10  -4   43.00    2.30
   7 -10   4   41.70    2.50
   7 -10   4   35.00    2.20
   7 -10   4   40.50    2.20
  -7 -10  -4   39.20    2.30
  -7 -10   4   42.80    2.20
   7 -10  -4   37.50    2.50
  -7 -10   4   41.70    2.30
   7 -10  -4   42.10    2.20
   7  10   4   38.60    2.50
   7 -10  -4   38.00    2.20
   8 -10   4   22.20    1.80
  -8 -10  -4   21.20    1.70
   8 -10   4   18.70    1.80
  -8 -10  -4   18.20    1.50
   8 -10   4   21.30    1.50
   8 -10  -4   21.70    1.50
  -8 -10   4   19.50    1.60
   8 -10  -4   17.50    1.60
  -8 -10   4   18.50    1.50
   8  10   4   18.90    2.00
   9 -10   4    4.70    1.00
  -9 -10  -4    5.40    1.40
  -9 -10  -4    4.90    1.00
   9 -10   4    4.20    1.20
   9 -10  -4    3.90    0.90
   9  10   4    7.90    1.90
   9 -10  -4    3.80    0.90
  -9 -10   4    5.00    1.10
 -10  10   4    8.60    0.90
 -10 -10  -4    8.00    0.90
  10 -10   4    6.10    1.20
 -10 -10   4    7.30    1.00
   0 -11  -4   -0.10    1.40
   0 -11   4    0.10    1.30
   0 -11   4   -0.10    1.30
   0 -11  -4    1.80    0.80
  -1 -11  -4   14.00    1.50
   1 -11   4   13.30    2.00
   1 -11   4   16.10    1.90
  -1 -11  -4   15.70    1.90
   1 -11   4   15.40    2.50
  -1 -11   4   13.70    2.00
   1 -11  -4   16.80    1.40
   1 -11  -4   16.70    3.60
  -1 -11   4   12.20    1.80
  -2 -11  -4    0.00    1.40
   2 -11   4    3.80    1.60
  -2 -11  -4    1.20    0.90
   2 -11   4    2.40    1.20
  -2 -11  -4    2.00    1.10
   2 -11   4    0.90    1.20
  -2 -11   4    1.40    1.00
  -2 -11   4    2.10    1.00
   2 -11  -4    2.00    0.80
   2 -11  -4    1.60    1.20
  -3 -11  -4    8.60    1.80
  -3 -11  -4    5.90    1.50
  -3 -11  -4   11.20    1.60
   3 -11   4    7.60    1.80
   3 -11   4   10.30    1.70
   3 -11   4    8.00    1.60
   3 -11  -4   10.90    1.70
  -3 -11   4    9.30    1.60
   3 -11  -4    7.40    1.30
  -3 -11   4    6.10    1.50
  -4 -11  -4    7.20    1.70
   4 -11   4    8.70    1.60
   4 -11   4    5.60    1.30
   4 -11   4    5.90    1.20
  -4 -11  -4    7.00    1.40
   4 -11  -4    6.40    1.60
   4 -11  -4    7.60    1.50
   4 -11  -4    7.10    1.30
  -4 -11   4    6.50    1.40
  -4 -11   4    7.60    1.50
   5 -11   4   16.30    2.00
   5 -11   4   13.60    1.80
  -5 -11  -4   17.60    1.80
  -5 -11  -4   12.30    1.50
   5 -11   4   15.10    1.70
  -5 -11   4   15.20    1.60
  -5 -11   4   15.50    1.70
   5 -11  -4   14.80    1.60
   5 -11  -4   17.00    1.70
   5 -11  -4   12.50    2.30
   6 -11   4   38.80    2.20
  -6 -11  -4   39.30    2.20
   6 -11   4   40.00    2.50
  -6 -11  -4   36.60    2.20
   6 -11   4   38.20    2.40
   6 -11  -4   35.20    2.10
   6 -11  -4   38.00    2.50
  -6 -11   4   34.70    2.20
   6 -11  -4   36.30    2.10
   6  11   4   34.50    2.40
  -6 -11   4   39.00    2.20
   7 -11   4    0.10    1.10
   7 -11   4    1.90    1.10
  -7 -11   4    2.20    1.20
   7  11   4    0.60    1.10
   7 -11  -4    1.30    0.80
   8 -11   4   -0.60    0.70
  -8 -11  -4    0.70    0.70
  -8 -11  -4    0.70    0.70
   8 -11   4   -1.00    0.60
   8 -11   4   -1.10    1.10
   8  11   4    2.40    1.30
  -8 -11   4    0.60    0.80
  -8 -11   4   -0.30    0.70
   8 -11  -4    0.60    1.10
   8 -11  -4    1.00    0.60
  -9 -11  -4    0.60    0.50
  -9 -11  -4    0.40    0.90
   9 -11   4    1.40    0.50
   9 -11  -4    1.60    0.50
   9 -11  -4   -0.10    0.90
  -9 -11   4    1.30    1.00
  -9 -11   4    1.40    0.60
   0 -12  -4    6.70    1.40
  -1 -12  -4   25.90    2.20
  -1 -12  -4   28.70    2.00
   1 -12  -4   30.30    1.90
  -1 -12   4   30.70    2.20
  -1 -12   4   28.20    2.20
  -2 -12  -4   42.20    2.40
  -2 -12  -4   44.30    2.40
  -2 -12  -4   38.20    2.70
   2 -12   4   39.10    2.60
   2 -12   4   38.70    3.10
   2 -12   4   41.70    2.60
  -2 -12   4   40.20    2.50
   2 -12  -4   39.90    2.60
  -2 -12   4   41.60    2.40
   2 -12  -4   42.90    2.30
   3 -12   4   35.80    2.40
  -3 -12  -4   34.40    2.20
  -3 -12  -4   33.40    2.30
   3 -12   4   34.50    2.80
   3 -12   4   36.40    2.40
   3 -12  -4   41.60    2.20
  -3 -12   4   32.40    2.20
  -3 -12   4   33.50    2.30
   3 -12  -4   37.70    2.30
   4 -12   4   95.79    3.80
   4 -12   4   87.19    3.90
   4 -12   4   93.49    4.20
  -4 -12  -4   90.69    3.80
  -4 -12  -4   94.69    3.90
  -4 -12   4   93.29    3.90
   4 -12  -4   86.79    3.80
   4 -12  -4   92.59    3.80
  -4 -12   4   91.09    3.80
   4 -12  -4   90.49    4.30
   5 -12   4   44.30    2.60
   5 -12   4   47.50    2.70
  -5 -12  -4   46.80    2.50
  -5 -12  -4   46.40    2.40
   5 -12   4   46.40    2.40
   5 -12  -4   46.20    2.90
   5  12   4   46.90    2.70
   5 -12  -4   47.10    2.40
  -5 -12   4   45.60    2.40
  -5 -12   4   45.10    2.40
   5 -12  -4   45.30    2.40
   6 -12   4  128.99    4.90
   6 -12   4  109.69    4.70
   6 -12   4  123.09    4.70
  -6 -12  -4  124.39    4.70
  -6 -12  -4  129.59    4.70
   6  12   4  115.89    4.90
   6 -12  -4  113.79    4.70
   6 -12  -4  132.19    4.70
  -6 -12   4  123.39    4.70
  -6 -12   4  130.39    4.70
  -7 -12  -4   13.30    1.30
   7 -12   4   13.50    2.00
   7 -12   4   11.80    1.30
  -7 -12  -4   15.30    1.30
   7 -12   4   11.30    1.50
  -7 -12   4   11.40    1.30
   7  12   4   18.00    2.80
   7 -12  -4   13.60    1.50
   7 -12  -4   14.60    1.30
  -7 -12   4   11.10    1.30
  -8 -12  -4   16.90    1.20
   8 -12   4   16.80    1.40
   8 -12   4   15.20    1.20
  -8 -12  -4   13.30    1.20
   8  12   4   17.20    2.40
  -8 -12   4   16.00    1.30
   8 -12  -4   16.40    1.10
  -8 -12   4   17.20    1.30
   8 -12  -4   15.10    1.50
   9 -12   4   -0.20    0.50
  -9  12   4    0.40    0.60
  -9 -12  -4    0.70    0.50
   9 -12  -4    0.70    0.50
  -9 -12   4    0.10    0.50
   0 -13  -4   -0.20    0.90
   0 -13  -4   -1.80    1.40
   0 -13   4    1.20    1.40
   0 -13   4   -0.50    1.20
  -1 -13  -4    8.50    1.70
  -1 -13   4    7.30    1.80
  -1 -13   4    7.60    1.70
   2 -13   4    0.20    1.10
   2 -13   4    0.80    1.60
  -2 -13  -4    3.90    1.50
  -2 -13  -4   -0.60    1.00
  -2 -13  -4    1.60    1.10
  -2 -13   4    0.50    0.90
   2 -13  -4   -0.20    0.80
   2 -13  -4    0.10    1.20
  -2 -13   4   -0.50    1.00
  -3 -13  -4   29.70    2.00
   3 -13   4   31.90    2.20
   3 -13   4   36.20    2.70
  -3 -13  -4   32.00    2.30
   3 -13  -4   32.10    2.10
  -3 -13   4   35.40    2.10
   3 -13  -4   34.30    2.20
  -3 -13   4   34.00    2.20
   4 -13   4    2.30    0.90
   4 -13   4    0.70    1.40
  -4 -13  -4   -0.20    0.80
   4 -13   4   -0.10    1.10
  -4 -13  -4   -0.20    1.00
  -4 -13   4    0.90    0.90
  -4 -13   4    1.40    0.80
   4 -13  -4    0.70    0.80
   4 -13  -4    1.40    1.00
   5 -13   4   43.10    2.90
   5 -13   4   54.59    3.40
  -5 -13  -4   52.19    2.50
  -5 -13  -4   51.19    2.50
   5 -13   4   50.79    2.40
   5 -13  -4   44.60    2.40
  -5 -13   4   44.10    2.40
  -5 -13   4   51.29    2.40
   5  13   4   45.10    2.80
   5 -13  -4   49.00    2.40
   5 -13  -4   45.40    2.80
   6 -13   4   -0.20    0.70
   6 -13   4    2.00    0.90
  -6 -13  -4    0.00    0.70
  -6 -13  -4    1.10    0.80
  -6 -13   4    1.90    0.70
   6 -13  -4    0.50    0.60
   6  13   4    0.10    1.30
  -6 -13   4    0.40    0.70
   6 -13  -4    1.00    0.90
   7 -13   4    1.40    0.80
   7 -13   4    0.70    0.50
  -7 -13  -4    0.50    0.60
  -7 -13  -4    0.10    0.60
  -7 -13   4    0.10    0.60
  -7 -13   4    0.60    0.60
   7 -13  -4    1.50    0.60
   7  13   4    1.00    1.60
   7 -13  -4    0.00    0.90
   8 -13   4   16.80    1.10
  -8 -13  -4   18.30    1.20
  -8 -13   4   18.00    1.10
  -8 -13   4   15.40    1.20
   8 -13  -4   18.60    1.10
   0 -14  -4    0.80    1.00
   0 -14  -4    1.60    1.40
   0 -14   4   -0.40    1.30
  -1 -14  -4   14.10    1.70
  -1 -14  -4   13.90    1.80
  -1 -14   4    9.60    1.90
   1 -14  -4   10.60    1.60
  -1 -14   4   11.90    1.60
   2 -14   4   50.09    3.30
  -2 -14  -4   45.70    2.60
   2 -14   4   46.20    2.70
  -2 -14  -4   45.30    2.50
  -2 -14   4   42.10    2.50
   2 -14  -4   47.50    2.70
  -2 -14   4   45.00    2.40
   2 -14  -4   41.90    2.40
   3 -14   4   70.59    3.60
  -3 -14  -4   77.79    3.50
   3 -14   4   79.09    3.30
  -3 -14  -4   78.29    3.30
   3 -14  -4   74.69    3.30
   3 -14  -4   70.29    3.30
  -3 -14   4   75.89    3.30
  -3 -14   4   79.59    3.30
   4 -14   4  124.79    5.00
  -4 -14  -4  128.89    4.80
   4 -14   4  121.09    4.70
  -4 -14  -4  128.09    5.20
   4 -14  -4  124.69    4.80
  -4 -14   4  129.49    5.10
   4 -14  -4  126.79    4.70
   5 -14   4    0.60    1.00
   5 -14   4    1.50    0.70
  -5 -14  -4    1.60    0.90
  -5 -14  -4    0.40    0.70
  -5 -14   4    0.80    0.60
  -5 -14   4    1.60    0.80
   5  14   4    1.30    1.50
   5 -14  -4    0.10    0.70
   5 -14  -4    0.80    1.00
   6 -14   4   20.40    1.40
  -6 -14  -4   16.50    1.40
  -6 -14  -4   15.70    1.30
   6 -14   4   18.70    1.60
   6  14   4   18.10    2.60
   6 -14  -4   16.60    1.20
  -6 -14   4   18.50    1.30
   6 -14  -4   18.40    1.70
  -6 -14   4   19.80    1.40
  -7 -14  -4    2.30    0.70
   7 -14   4    1.60    0.50
   7 -14   4    1.80    1.00
  -7 -14  -4    2.50    0.60
   7 -14  -4    3.70    0.80
  -7 -14   4    1.10    0.60
  -7 -14   4    1.50    0.60
   7 -14  -4    2.10    1.20
  -8 -14  -4    1.00    0.60
  -8 -14  -4    1.40    0.50
   8 -14   4    2.30    0.50
   8 -14  -4    1.70    0.50
  -8 -14   4    3.30    0.80
  -8 -14   4    1.00    0.60
   0 -15  -4    0.70    1.10
  -1 -15  -4    2.30    1.20
  -1 -15  -4    0.90    1.00
   1 -15  -4    1.30    1.10
  -1 -15   4    1.30    1.00
  -1 -15   4    0.00    1.30
  -2 -15  -4    1.90    1.00
  -2 -15   4    6.50    1.50
  -2 -15   4    4.20    1.00
   2 -15  -4    5.40    1.20
   3 -15   4    0.80    1.00
  -3 -15  -4    2.60    0.80
   3 -15  -4    0.20    1.00
   3 -15  -4    1.80    1.00
  -3 -15   4    2.10    0.80
  -3 -15   4    0.60    0.90
  -4 -15  -4    6.60    1.50
   4 -15   4    7.40    1.90
  -4 -15  -4    2.90    0.80
   4 -15   4    3.50    0.80
  -4 -15   4    4.30    1.10
  -4 -15   4    3.60    0.80
   4  15   4    4.00    1.50
   4 -15  -4    4.20    0.90
   5 -15   4    1.10    0.70
  -5 -15  -4    1.60    0.60
  -5 -15  -4    1.40    0.80
   5 -15   4    1.20    1.10
   5 -15  -4    1.80    1.10
  -5 -15   4   -0.20    0.60
   5 -15  -4    2.40    0.70
  -5 -15   4    1.20    0.70
  -6 -15  -4    1.90    0.60
   6 -15   4    1.70    0.60
   6 -15   4    0.80    0.90
  -6 -15  -4    1.30    0.80
  -6 -15   4    1.70    0.50
  -6 -15   4    2.40    0.60
   6 -15  -4    2.00    0.60
   7 -15   4    1.50    0.50
  -7 -15  -4    2.20    0.60
  -7 -15   4    1.70    0.50
  -7 -15   4    4.60    0.70
   7 -15  -4    2.80    0.50
   0 -16  -4    8.00    2.10
  -1 -16  -4   18.50    1.80
  -1 -16   4   16.50    1.70
   1 -16  -4   17.40    2.00
  -2 -16  -4  103.29    4.10
  -2 -16   4  109.69    4.10
  -2 -16   4  105.19    4.20
   2 -16  -4  113.49    4.30
  -3 -16  -4   -0.90    0.60
  -3 -16   4    0.10    0.80
  -3 -16   4   -0.50    0.70
   3 -16  -4    0.80    1.30
  -4 -16  -4   61.39    2.60
   4 -16  -4   64.89    3.10
  -4 -16   4   66.29    2.60
  -4 -16   4   66.89    2.60
   4 -16  -4   63.19    2.70
   5 -16   4   10.80    1.10
  -5 -16  -4   10.10    0.90
   5 -16  -4   10.50    1.20
  -5 -16   4    9.90    0.90
  -5 -16   4    6.60    1.10
   6 -16   4   30.80    1.40
  -6 -16  -4   28.10    1.30
  -6 -16   4   25.30    1.30
  -6 -16   4   26.80    1.40
  -2 -17  -4   -0.60    0.90
  -2 -17   4   -0.40    0.90
  -3 -17  -4    3.70    0.80
  -3 -17   4    6.60    1.00
  -4 -17  -4   -0.60    0.60
  -4 -17   4   -0.10    0.60
  -5 -17  -4    1.40    0.60
  -5 -17   4    1.70    0.50
   0   0  -5   -4.70    0.20
   0   0   5   -4.60    0.20
   1   0  -5   -1.00    0.20
  -1   0  -5   -0.60    0.20
   1   0   5   -0.80    0.20
  -1   0   5   -1.00    0.20
  -2   0   5    0.10    0.30
   2   0   5    0.10    0.20
   2   0  -5    0.40    0.30
   3   0   5   -0.40    0.30
   3   0   5   -0.10    0.30
  -3   0   5   -0.60    0.50
   3   0  -5   -0.70    0.40
   4   0  -5    0.00    0.70
   4   0   5    0.00    0.40
   4   0   5   -0.20    0.50
   4   0  -5    0.40    0.80
  -4   0   5   -0.10    0.70
   4   0   5   -0.10    0.60
   5   0   5   -0.50    0.70
   5   0  -5    0.00    1.10
  -5   0   5   -1.10    1.50
   5   0  -5   -0.30    0.70
   5   0   5    0.70    0.90
   5   0   5   -1.60    0.80
   6   0   5    0.40    0.70
   6   0  -5    0.80    0.70
   6   0  -5   -1.10    2.10
   7   0   5    1.60    1.80
   7   0  -5   -0.20    0.70
   7   0   5    0.50    0.70
  -7   0  -5    2.00    1.50
  -8   0  -5   -0.20    1.30
   8   0  -5   -1.70    0.80
   8   0   5    0.40    0.80
   9   0   5   -0.80    0.80
   9   0  -5    0.60    0.90
  -9   0   5    0.80    0.90
  -9   0  -5   -1.60    1.30
 -10   0   5    0.40    0.80
  10   0  -5    1.10    1.00
  10   0   5    0.30    0.80
  11   0  -5    2.00    1.10
 -11   0   5   -0.20    0.80
  11   0   5   -0.20    0.80
   0  -1   5    0.20    0.20
   0   1  -5    0.10    0.20
   0  -1  -5    0.10    0.20
   0   1   5    0.10    0.20
  -1  -1  -5 2441.36   81.79
  -1   1   5 2669.73   82.29
   1  -1   5 2800.32   81.89
   1   1  -5 2606.04   82.29
   1  -1  -5 2586.44   82.09
  -1   1  -5 2508.55   81.79
  -1  -1   5 2388.36   81.59
   1   1   5 2662.13   82.29
  -2   1   5  158.58    5.30
   2   1  -5  134.59    5.30
  -2  -1   5  160.08    5.40
   2   1   5  160.78    5.20
   2  -1  -5  156.38    5.30
   3   1  -5  116.89    4.10
  -3   1   5  100.19    4.00
  -3  -1   5  105.59    4.00
   3   1   5  103.89    3.80
   3   1   5  112.79    3.80
   3  -1  -5  102.89    3.90
  -4   1   5    5.70    1.50
   4   1  -5    6.30    1.40
   4  -1   5    5.50    1.00
  -4  -1   5    6.60    1.20
   4   1   5    6.40    1.00
   4  -1  -5    5.40    1.00
   4  -1  -5    4.50    1.20
   4   1   5    6.60    1.30
   4   1   5    6.20    1.00
   5  -1   5   12.00    1.20
   5   1  -5    9.50    2.20
   5   1  -5   13.00    1.30
  -5   1   5   11.80    2.70
   5   1   5   13.10    1.70
  -5  -1   5   16.40    3.70
   5   1   5   11.60    1.10
   5  -1  -5   14.10    2.10
   5  -1  -5   10.50    1.10
   5   1   5   14.80    2.20
   6   1  -5    1.00    0.80
   6  -1   5    0.40    0.60
   6   1  -5    1.50    2.30
  -6  -1  -5   -0.10    1.20
   6   1   5    0.30    0.70
   6  -1  -5    0.80    2.00
   6  -1  -5   -0.40    0.70
   7  -1   5   22.30    1.60
  -7  -1  -5   19.40    2.30
   7  -1   5   19.70    2.70
   7   1  -5   19.90    1.60
   7   1   5   19.90    1.60
  -7   1  -5   18.30    2.60
   7  -1  -5   23.40    1.60
   8  -1   5    3.50    0.90
   8  -1   5    2.40    1.50
  -8  -1  -5    1.50    1.30
   8   1  -5    2.20    0.90
   8   1   5    1.70    0.90
  -8  -1   5    0.50    1.00
   8  -1  -5    2.40    0.90
  -8   1  -5    2.00    1.60
   9   1  -5    1.10    0.90
  -9  -1  -5    3.30    1.30
   9  -1   5    1.80    0.80
  -9   1   5    3.90    1.00
   9  -1  -5    3.20    1.00
   9   1   5    3.10    1.00
  -9  -1   5    4.30    1.00
  10   1  -5    4.30    1.10
 -10  -1  -5    6.70    1.40
 -10   1   5    3.30    0.90
  10  -1   5    3.50    0.90
 -10  -1   5    3.10    1.00
  10   1   5    4.10    0.90
  10  -1  -5    4.40    1.00
  11  -1   5    0.70    0.80
 -11   1   5    0.30    0.70
  11   1  -5    0.80    1.20
  11  -1  -5    1.60    1.00
  11   1   5    0.20    0.80
   0  -2   5 2606.84   79.39
   0   2  -5 2498.55   79.29
   0   2   5 2369.86   78.79
  -1  -2  -5 1038.10   33.00
  -1   2   5 1083.19   33.10
   1  -2   5 1073.59   32.80
   1   2  -5 1037.80   33.00
   1  -2  -5  951.30   33.00
   1   2   5 1076.69   33.00
  -1  -2   5 1033.00   33.00
  -1   2  -5  987.70   32.80
   2   2  -5   27.50    1.40
  -2   2   5   26.10    1.40
   2  -2  -5   26.60    1.40
   2   2   5   29.80    1.40
  -2  -2   5   24.50    1.60
  -3   2   5    4.00    1.00
   3   2  -5    3.90    1.00
   3   2   5    2.60    0.60
   3   2   5    4.80    1.00
   3  -2  -5    2.80    0.90
  -3  -2   5    5.30    1.10
  -4   2   5   71.59    3.30
   4  -2   5   72.49    2.80
   4   2  -5   69.09    3.20
   4   2   5   75.29    2.90
   4   2   5   69.89    3.20
   4  -2  -5   72.19    2.80
   4   2   5   73.19    3.00
   4  -2  -5   72.79    3.10
  -4  -2   5   67.29    3.40
  -5   2   5   43.70    3.50
   5   2  -5   49.90    2.30
   5  -2   5   49.30    2.20
   5   2  -5   49.90    3.40
   5  -2  -5   50.19    2.20
   5   2   5   45.80    3.50
   5  -2  -5   50.29    3.00
   5   2   5   49.00    2.90
   5   2   5   52.99    2.30
   6  -2   5   48.70    2.20
  -6  -2  -5   44.10    2.80
   6  -2   5   47.60    3.20
   6   2  -5   52.89    2.40
   6  -2  -5   51.49    2.30
  -6  -2   5   45.70    2.80
   6   2   5   49.60    2.30
   7  -2   5   31.30    2.70
   7   2  -5   32.90    2.00
  -7  -2  -5   33.00    2.30
   7  -2   5   28.10    1.80
   7  -2  -5   32.60    1.90
  -7   2  -5   32.50    3.00
  -7  -2   5   34.40    2.20
   7   2   5   33.50    2.00
   7  -2  -5   33.40    2.90
  -8  -2  -5   38.30    2.50
   8  -2   5   40.60    2.80
   8   2  -5   38.60    2.20
   8  -2   5   37.70    2.10
   8  -2  -5   39.20    2.20
   8   2   5   38.50    2.20
  -8  -2   5   34.30    2.40
   9   2  -5   29.60    2.10
  -9  -2  -5   27.90    2.20
   9  -2   5   30.20    1.90
  -9  -2   5   31.60    2.10
   9   2   5   31.00    2.00
   9  -2  -5   28.80    1.90
  10   2  -5   10.00    1.80
 -10   2   5   15.00    1.40
 -10  -2  -5    8.60    1.80
  10  -2   5   11.50    1.40
 -10  -2   5   10.90    1.70
  10  -2  -5   14.50    1.50
  10   2   5   12.40    1.50
  11  -2   5    1.10    0.80
  11   2  -5   -0.20    1.40
 -11   2   5    1.20    0.70
  11  -2  -5    1.50    0.90
  11   2   5    0.60    0.80
   0   3  -5    0.20    0.30
   0  -3   5    0.20    0.30
   0  -3  -5   -0.50    0.30
   0   3   5    0.00    0.30
   1   3  -5 5427.76  168.08
  -1  -3  -5 5023.10  167.28
  -1   3   5 5349.56  167.88
  -1  -3   5 5389.06  167.78
  -1   3  -5 5130.19  166.88
   1  -3  -5 5227.38  167.78
   1   3   5 5351.56  167.78
   2   3  -5 1862.41   59.59
  -2   3   5 1832.32   59.59
   2   3   5 1979.90   59.59
  -2  -3   5 1822.72   59.59
   2  -3  -5 1879.91   59.49
   3   3  -5    0.90    0.60
  -3   3   5    1.30    0.70
   3   3   5    0.20    0.50
  -3  -3   5    1.40    0.70
   3  -3  -5    0.50    0.50
   3   3   5    0.10    0.70
   4   3  -5  152.78    5.90
   4  -3   5  154.18    5.30
  -4   3   5  157.18    5.80
   4   3   5  154.58    5.90
   4  -3  -5  156.68    5.60
   4  -3  -5  145.29    5.20
   4   3   5  150.28    5.70
  -4  -3   5  145.99    5.90
   5   3  -5  144.99    6.10
   5  -3   5  146.79    5.10
   5   3  -5  144.59    5.10
  -5   3   5  122.89    6.10
   5  -3  -5  145.79    5.00
   5  -3  -5  148.69    5.70
   5   3   5  145.29    5.10
   5   3   5  145.99    5.90
   5   3   5  130.79    6.40
   6   3  -5    3.90    1.00
  -6  -3  -5    3.30    1.20
   6  -3   5    2.30    0.70
   6  -3   5    5.30    1.50
   6  -3   5    3.00    1.60
  -6  -3   5    2.80    1.60
   6  -3  -5    3.50    0.80
   6   3   5    2.40    0.80
   6  -3  -5    4.90    1.30
   6  -3  -5    4.60    1.30
  -6  -3   5    1.60    1.30
   7  -3   5   13.50    2.70
   7  -3   5   18.70    2.30
  -7  -3  -5   19.70    2.00
   7  -3   5   17.50    1.50
   7   3  -5   18.60    1.70
  -7  -3   5   17.70    2.40
   7   3   5   19.70    1.60
   7  -3  -5   14.20    2.20
   7  -3  -5   18.10    1.50
  -7  -3   5   15.60    2.00
   8  -3   5    0.40    0.80
   8  -3   5    0.30    1.20
  -8  -3  -5    0.80    1.10
   8   3  -5   -0.70    1.00
   8  -3  -5    0.80    0.80
   8  -3  -5   -1.50    1.30
  -8  -3   5   -2.50    1.10
  -8  -3   5    1.40    1.50
   8   3   5   -0.30    0.90
  -9  -3  -5    0.20    1.00
   9   3  -5   -0.60    1.10
   9  -3   5    0.90    0.80
  -9  -3   5    1.70    1.10
   9  -3  -5   -0.50    0.80
   9   3   5    1.00    0.90
 -10  -3  -5    0.70    1.00
  10  -3   5    0.60    0.80
 -10   3   5    1.20    0.70
  10   3  -5    0.30    1.10
  10  -3  -5    0.00    0.80
  10   3   5    0.80    0.80
  11  -3   5   -0.60    0.80
 -11   3   5    0.70    0.60
  11  -3  -5   -0.20    1.00
  11   3   5   -0.50    0.90
   0   4   5 9648.33  312.57
   0   4  -5 9999.00  312.87
   0  -4  -5 9954.70  312.97
   1   4  -5  271.87    9.30
  -1   4   5  270.77    9.30
   1  -4  -5  262.77    9.20
   1   4   5  288.37    9.40
  -1   4  -5  282.87    9.00
  -1  -4   5  280.47    9.20
   2   4  -5  248.78    8.90
  -2   4   5  257.47    8.90
  -2  -4   5  262.67    8.90
   2  -4  -5  249.38    8.80
  -2   4  -5  289.27    8.40
   2   4   5  259.77    9.00
  -3  -4  -5  305.67    9.90
  -3   4   5  296.17   10.10
   3   4  -5  311.57   10.40
   3   4   5  301.07   10.30
   3  -4  -5  294.97    9.80
   3   4   5  295.77   10.30
   3  -4  -5  299.77   10.10
  -3  -4   5  281.37   10.30
   4   4  -5  170.58    6.40
  -4   4   5  152.18    6.20
   4  -4   5  159.98    5.60
   4   4  -5  151.58    5.70
   4   4   5  167.48    6.30
   4   4   5  167.08    6.60
   4  -4  -5  167.18    6.10
   4  -4  -5  165.78    5.60
  -5   4   5  119.29    6.30
   5   4  -5  141.09    6.40
   5  -4   5  138.49    4.90
   5   4  -5  139.69    5.00
   5   4   5  129.79    6.00
   5  -4  -5  140.19    5.80
   5  -4  -5  128.69    5.00
   5   4   5  142.79    5.00
   6  -4   5   25.80    2.50
   6   4  -5   24.40    1.90
  -6  -4  -5   25.40    2.10
   6  -4   5   22.40    2.40
  -6  -4  -5   27.60    2.70
   6  -4   5   25.40    1.60
  -6  -4   5   25.00    2.50
  -6  -4   5   21.90    2.40
   6   4   5   27.50    1.80
   6  -4  -5   27.30    1.60
   6  -4  -5   25.70    2.20
  -6  -4   5   25.00    2.60
   6  -4  -5   25.10    2.20
   7  -4   5   24.80    2.40
   7   4  -5   25.60    2.00
   7  -4   5   28.50    2.40
  -7  -4  -5   21.90    2.10
   7  -4   5   25.30    1.70
   7  -4  -5   25.50    2.20
  -7  -4   5   26.50    2.30
  -7  -4   5   19.60    2.30
   7  -4  -5   27.60    1.70
   7   4   5   25.80    1.90
   8  -4   5   53.39    3.00
   8   4  -5   53.69    2.80
  -8  -4  -5   49.99    2.80
   8  -4   5   56.59    2.60
   8  -4   5   55.59    3.20
   8  -4  -5   54.19    2.60
   8  -4  -5   51.49    2.90
   8   4   5   56.19    2.80
  -8  -4   5   52.09    3.00
  -8  -4   5   54.09    3.00
  -9  -4  -5   -0.20    0.90
   9  -4   5    0.60    1.10
   9  -4   5    0.40    0.80
   9   4  -5   -0.80    1.20
  -9  -4   5    2.90    1.80
   9   4   5   -0.70    0.80
   9  -4  -5    0.30    1.20
  -9  -4   5    0.20    1.30
   9  -4  -5    0.70    0.80
 -10  -4  -5   33.60    2.00
 -10   4   5   34.10    1.90
  10   4  -5   33.30    2.70
  10  -4   5   32.70    2.00
  10  -4  -5   36.00    2.00
  10   4   5   34.00    2.10
 -11   4   5    4.70    0.90
  11  -4   5    2.70    0.90
 -11  -4  -5    5.60    1.10
 -11   4  -5    8.50    1.40
  11   4   5    6.60    1.40
  11  -4  -5    4.30    1.10
   0  -5  -5   -1.10    0.60
   0   5   5    0.30    0.70
   0   5  -5    0.20    0.40
  -1   5   5   46.50    2.30
   1   5  -5   49.40    2.30
  -1   5  -5   48.50    2.00
  -1   5  -5   47.70    2.10
   1  -5  -5   50.69    2.30
   1   5   5   44.90    2.40
   2   5  -5   85.99    3.60
  -2   5   5   86.29    3.60
  -2  -5  -5   78.59    3.20
  -2   5  -5   87.39    3.00
   2  -5  -5   78.49    3.10
   2  -5  -5   84.49    3.50
   2   5   5   88.99    3.80
  -2   5  -5   87.79    3.00
  -3  -5  -5   23.20    1.40
   3  -5   5   23.50    1.50
   3   5  -5   25.20    2.10
  -3   5   5   23.80    2.20
   3   5   5   22.20    2.00
  -3  -5   5   19.80    2.30
   3   5   5   20.00    2.40
   3  -5  -5   22.00    2.20
   3  -5  -5   21.90    1.30
   4  -5   5   69.19    2.80
  -4   5   5   64.89    4.00
   4   5  -5   65.59    3.00
   4   5  -5   73.49    4.00
   4  -5  -5   69.59    3.50
   4  -5  -5   72.29    2.80
   4   5   5   70.49    3.90
  -5  -5  -5    5.10    1.20
   5  -5   5    5.50    1.50
   5   5  -5    4.40    1.10
   5  -5   5    4.40    1.00
   5  -5   5    3.10    1.10
   5  -5  -5    3.80    0.90
   5  -5  -5    3.80    1.20
   5  -5  -5    4.30    1.40
   5   5   5    7.40    1.20
  -5  -5   5    3.70    1.30
   5   5   5    4.50    2.40
   6   5  -5  104.39    4.10
   6  -5   5  108.39    4.30
   6  -5   5  104.89    4.50
  -6  -5  -5   99.89    4.20
   6  -5   5  106.79    3.90
  -6  -5  -5   98.99    4.40
  -6  -5   5  102.09    4.30
   6  -5  -5  103.39    4.30
  -6  -5   5  101.19    4.20
   6  -5  -5   98.29    4.10
  -6  -5   5   90.39    4.40
   6   5   5  103.69    4.10
   6  -5  -5  104.79    4.00
  -7  -5  -5  202.88    7.50
   7  -5   5  180.68    8.20
   7  -5   5  216.98    7.30
  -7  -5  -5  210.98    7.40
   7   5  -5  217.28    7.40
   7  -5   5  203.38    7.60
   7   5   5  218.48    7.50
   7  -5  -5  218.38    7.30
  -7  -5   5  199.88    7.40
   7  -5  -5  214.08    7.50
   7  -5  -5  198.98    7.30
  -7  -5   5  175.78    8.30
  -7  -5   5  206.08    7.50
   8  -5   5   62.59    3.20
  -8  -5  -5   56.99    2.90
   8  -5   5   57.69    2.80
   8  -5   5   59.09    3.10
   8  -5  -5   51.59    2.70
   8   5   5   57.39    3.00
   8  -5  -5   56.99    2.90
  -8  -5   5   63.79    3.00
   9  -5   5    2.00    0.80
  -9  -5  -5    1.90    0.90
   9   5  -5    3.90    1.30
   9  -5   5    1.90    1.20
   9  -5   5    4.00    1.10
   9  -5  -5    4.00    1.10
   9  -5  -5    1.90    0.90
  -9  -5   5    8.30    1.80
   9   5   5    3.00    1.10
  10  -5   5    0.70    0.80
 -10   5   5   -0.30    0.70
 -10  -5  -5    0.70    0.80
  10   5   5    1.10    0.90
  10  -5  -5   -0.80    0.90
 -11  -5  -5    6.20    1.40
  11  -5   5    5.90    1.50
 -11   5   5    7.60    1.00
 -11   5  -5    8.40    1.30
  11   5   5    8.50    1.50
  11  -5  -5    8.60    1.50
   0  -6  -5   38.60    1.80
   0   6  -5   40.70    2.10
   0   6   5   41.10    2.50
  -1   6   5  458.55   16.10
   1   6  -5  520.25   17.10
  -1  -6  -5  473.35   15.60
   1  -6  -5  468.15   16.00
   1  -6  -5  488.35   15.60
  -1   6  -5  493.35   15.80
   1   6   5  477.45   16.20
  -2   6   5  516.55   17.70
   2   6  -5  550.54   17.80
  -2  -6  -5  520.35   17.20
   2   6   5  576.24   17.90
  -2   6  -5  533.15   17.20
   2  -6  -5  528.65   17.20
  -2   6  -5  525.65   17.20
   2   6   5  507.55   17.90
   2  -6  -5  536.05   17.70
   3  -6   5  248.18    8.40
   3   6  -5  264.17    9.30
  -3   6   5  232.18    9.10
  -3  -6  -5  256.47    8.50
   3  -6  -5  253.57    8.40
   3   6   5  248.48    9.20
   3  -6  -5  255.07    9.00
   4  -6   5   16.20    1.30
   4   6  -5   14.90    1.90
  -4   6   5   15.60    2.50
   4   6  -5   16.30    3.30
   4  -6  -5   16.90    1.20
   4  -6  -5   19.20    2.90
   4   6   5   19.60    3.40
  -5  -6  -5   10.40    1.60
   5   6  -5   10.00    1.80
  -5  -6  -5    7.50    1.80
   5  -6   5    9.70    2.10
   5  -6   5   10.70    1.20
   5  -6   5    9.70    1.80
   5  -6  -5    9.80    1.70
   5  -6  -5   10.80    2.00
  -5  -6   5   10.60    1.80
   5  -6  -5    9.30    1.10
  -5  -6   5    7.40    1.80
   6   6  -5   89.79    3.80
   6  -6   5   82.59    4.00
  -6  -6  -5   90.49    3.90
  -6  -6  -5   82.19    3.70
   6  -6   5   84.29    3.50
   6  -6   5   84.59    3.80
   6  -6  -5   95.09    3.60
   6  -6  -5   84.89    3.90
   6  -6  -5   87.49    3.70
  -6  -6   5   86.09    3.80
  -6  -6   5   88.19    3.70
   6   6   5   86.79    3.70
   7   6  -5   29.50    2.30
   7  -6   5   29.10    2.20
  -7  -6  -5   25.30    2.00
  -7  -6  -5   23.20    2.30
   7  -6   5   26.70    2.40
   7  -6   5   28.90    1.90
   7  -6  -5   26.40    1.80
   7  -6  -5   27.70    2.10
  -7  -6   5   25.50    2.30
   7  -6  -5   27.80    2.30
  -7  -6   5   29.20    2.10
   7   6   5   30.00    2.00
   8  -6   5   18.60    2.00
   8   6  -5   14.20    2.20
   8  -6   5   19.00    2.10
  -8  -6  -5   18.50    1.80
   8  -6   5   15.40    1.60
  -8  -6  -5   10.80    2.30
   8   6   5   18.40    1.90
  -8  -6   5   14.60    2.80
  -8  -6   5   18.50    1.90
   8  -6  -5   21.70    1.90
   8  -6  -5   17.80    1.60
  -9  -6  -5    1.80    0.90
   9   6  -5    2.60    1.50
   9  -6   5    0.60    0.80
   9  -6   5    1.40    1.10
   9  -6  -5    0.30    0.80
   9   6   5    3.00    1.00
 -10  -6  -5   19.40    1.50
 -10   6   5   19.10    1.40
  10  -6   5   23.40    1.70
  10   6   5   18.70    2.10
  10  -6  -5   20.20    2.40
 -10  -6   5   19.00    2.00
 -11   6   5    1.50    0.60
 -11  -6  -5    0.50    0.80
 -11   6  -5    0.60    0.70
   0  -7  -5    0.10    0.60
   0   7   5    0.80    1.30
   0   7  -5    0.40    1.20
   1   7  -5  193.98    7.10
  -1  -7  -5  192.88    6.50
  -1   7   5  180.48    7.30
  -1   7  -5  197.98    6.90
  -1   7  -5  189.78    6.80
   1  -7  -5  184.78    6.40
  -2   7   5  278.07   10.90
   2  -7   5  286.87   10.10
   2   7  -5  333.67   11.00
  -2  -7  -5  309.47   10.20
  -2   7  -5  303.77   10.20
   2  -7  -5  318.57   10.10
   2   7   5  306.37   10.90
  -2   7  -5  289.87   10.20
   2  -7  -5  317.97   10.90
  -3  -7  -5  131.09    4.80
   3   7  -5  128.09    6.10
   3  -7   5  131.69    4.70
   3  -7  -5  134.19    5.80
   3   7   5  131.09    6.00
   3  -7  -5  134.89    4.80
  -4  -7  -5  420.56   13.80
   4  -7   5  403.76   13.90
   4  -7   5  412.06   13.70
   4  -7   5  415.76   13.70
  -4  -7  -5  415.46   13.70
   4   7  -5  407.36   13.60
  -4  -7   5  408.26   13.70
  -4  -7   5  404.46   13.70
   4  -7  -5  398.56   13.60
   4  -7  -5  404.46   13.90
   4  -7  -5  438.56   13.60
  -5  -7  -5    2.20    1.10
   5   7  -5    0.40    1.20
   5  -7   5   -0.30    1.00
  -5  -7  -5    1.50    1.00
   5  -7   5    2.20    1.20
   5  -7   5    0.90    0.80
  -5  -7   5    0.90    1.20
   5  -7  -5    0.30    0.70
  -5  -7   5    0.50    1.00
   5  -7  -5    0.90    1.30
   5  -7  -5    1.50    0.90
   6  -7   5   16.30    2.10
  -6  -7  -5   17.70    1.90
   6  -7   5   17.70    1.60
  -6  -7  -5   17.40    1.70
   6   7  -5   15.40    2.10
   6   7   5   17.50    1.70
  -6  -7   5   18.30    1.90
   6  -7  -5   17.80    2.20
   6  -7  -5   17.60    1.60
   6  -7  -5   23.00    3.10
   7  -7   5  115.49    4.60
  -7  -7  -5  114.09    4.60
   7  -7   5  113.59    4.80
  -7  -7  -5  112.69    4.60
   7   7  -5  112.89    4.70
   7  -7   5  113.29    4.40
   7  -7  -5  111.99    4.50
  -7  -7   5  112.79    4.60
   7   7   5  121.89    4.70
   7  -7  -5  110.99    4.70
  -7  -7   5  111.89    4.50
   7  -7  -5  110.39    4.50
   8  -7   5   77.89    3.70
  -8  -7  -5   76.49    3.50
   8   7  -5   76.79    3.80
   8  -7   5   83.99    3.50
   8  -7   5   78.19    3.40
  -8  -7  -5   81.49    3.60
  -8  -7   5   82.89    3.60
   8  -7  -5   86.09    3.50
   8   7   5   73.59    3.60
   8  -7  -5   76.69    3.50
  -8  -7   5   81.69    3.50
   9  -7   5   14.30    1.70
   9  -7   5   15.80    1.60
  -9  -7  -5   17.30    1.50
   9  -7   5   16.40    1.80
   9  -7  -5   15.30    1.60
   9  -7  -5   19.20    1.60
   9   7   5   16.10    1.80
  -9  -7   5   19.90    1.70
  10  -7   5    1.40    1.30
  10  -7   5    1.50    1.00
 -10   7   5    0.70    0.60
 -10  -7  -5    0.00    0.60
 -10  -7   5    1.80    1.00
  10  -7  -5   -0.20    0.80
  10   7   5    0.90    1.00
  10  -7  -5    1.30    0.80
 -11   7   5    0.70    0.50
 -11  -7  -5   -1.20    0.70
 -11   7  -5   -1.10    0.70
   0   8  -5  259.97   10.00
   0   8  -5  273.67    9.70
   0  -8  -5  270.97    9.00
   1  -8   5  156.18    5.70
  -1  -8  -5  169.08    5.70
   1   8  -5  165.68    6.70
  -1   8  -5  168.58    6.30
   1  -8  -5  166.58    5.70
  -1   8  -5  152.88    6.50
  -2  -8  -5  183.98    7.60
   2   8  -5  192.98    8.10
   2  -8   5  208.68    6.80
   2   8   5  220.08    8.20
  -2   8  -5  208.88    7.30
   2  -8  -5  173.08    6.90
  -3  -8  -5   59.29    3.10
   3  -8   5   64.39    3.00
   3  -8   5   63.69    2.70
  -3  -8  -5   63.19    2.90
  -3  -8  -5   64.19    2.80
   3  -8   5   62.79    3.30
  -3  -8   5   64.69    2.90
   3  -8  -5   58.39    2.90
   3  -8  -5   66.49    2.70
  -3  -8   5   57.49    2.90
   4  -8   5  125.99    4.80
   4  -8   5  127.89    4.70
   4  -8   5  126.19    5.10
  -4  -8  -5  124.89    4.90
  -4  -8  -5  125.39    4.90
  -4  -8   5  123.19    4.80
  -4  -8   5  123.79    4.80
   4  -8  -5  123.39    4.80
   4  -8  -5  132.29    4.70
   4  -8  -5  124.29    5.20
   5  -8   5  135.69    5.00
   5  -8   5  132.29    5.40
  -5  -8  -5  136.49    5.20
   5  -8   5  132.69    5.10
  -5  -8  -5  133.09    5.10
   5   8  -5  130.09    5.20
   5  -8  -5  131.59    5.30
  -5  -8   5  130.89    5.10
  -5  -8   5  134.69    5.10
   5  -8  -5  137.19    5.00
   5  -8  -5  132.09    5.10
   6   8  -5  280.67    9.90
   6  -8   5  273.97    9.70
  -6  -8  -5  290.77    9.90
   6  -8   5  291.27    9.80
   6  -8   5  284.17   10.10
  -6  -8  -5  278.17    9.80
   6  -8  -5  280.27   10.00
   6  -8  -5  294.47    9.80
   6   8   5  282.37   10.00
  -6  -8   5  277.17    9.80
   6  -8  -5  294.87    9.80
  -6  -8   5  281.97    9.80
   7  -8   5   88.79    4.10
   7  -8   5   86.99    3.80
   7  -8   5   88.19    3.70
  -7  -8  -5   87.69    3.80
  -7  -8  -5   90.59    3.80
  -7  -8   5   91.19    3.70
   7   8   5   82.09    3.90
   7  -8  -5   90.39    3.70
   7  -8  -5   84.79    3.70
   7  -8  -5   89.49    3.90
  -7  -8   5   87.39    3.80
  -8  -8  -5  187.18    6.80
   8  -8   5  181.38    6.80
   8  -8   5  190.28    6.70
  -8  -8  -5  198.88    6.80
   8  -8   5  195.88    7.00
  -8  -8   5  191.08    6.80
   8  -8  -5  192.18    6.70
  -8  -8   5  194.98    6.80
   8  -8  -5  177.88    6.80
   8   8   5  171.68    6.90
   9  -8   5    3.60    0.90
  -9  -8  -5    5.00    1.20
   9  -8   5    3.70    1.00
   9  -8   5    3.50    1.00
  -9  -8   5    2.10    0.90
   9   8   5    2.20    1.10
   9  -8  -5    2.50    0.80
   9  -8  -5    2.10    0.80
 -10  -8  -5   38.40    1.80
 -10   8   5   38.80    1.80
  10  -8   5   38.40    2.20
  10  -8   5   38.30    2.30
  10   8   5   40.20    2.30
 -11   8   5    9.40    0.90
   0   9  -5    1.50    1.90
   1   9  -5   24.10    4.30
  -1  -9  -5   23.20    2.10
   1  -9   5   21.30    1.80
  -1  -9  -5   23.60    1.50
   1  -9  -5   22.20    1.40
  -1  -9   5   22.90    2.10
  -1   9  -5   16.10    3.70
  -1  -9   5   22.90    2.20
  -2  -9  -5  119.59    5.00
   2  -9   5  115.59    4.70
  -2  -9  -5  123.79    4.60
   2  -9   5  112.49    4.30
   2  -9   5  113.79    4.90
  -2  -9  -5  118.99    4.40
   2  -9  -5  109.49    4.60
  -2  -9   5  117.09    4.60
   2  -9  -5  117.19    4.30
  -2  -9   5  118.69    4.60
   3  -9   5    9.80    2.20
  -3  -9  -5   13.00    1.60
  -3  -9  -5    9.50    1.40
   3  -9   5   10.50    1.50
  -3  -9  -5    8.70    1.90
   3  -9   5   13.40    1.80
   3  -9  -5   11.10    2.20
   3  -9  -5   12.30    1.20
  -3  -9   5   10.10    1.70
   3  -9  -5    8.40    1.80
  -3  -9   5   10.10    1.60
   4  -9   5   26.70    2.10
   4  -9   5   25.90    2.40
   4  -9   5   27.00    1.90
  -4  -9  -5   28.20    2.10
  -4  -9  -5   26.10    1.90
  -4  -9   5   27.30    1.90
   4  -9  -5   23.40    2.70
   4  -9  -5   26.40    1.70
   4  -9  -5   27.30    2.00
  -4  -9   5   24.40    1.90
  -5  -9  -5   26.10    2.00
   5  -9   5   25.00    1.90
   5  -9   5   24.80    2.00
   5  -9   5   20.70    2.20
  -5  -9  -5   25.50    2.00
   5  -9  -5   23.70    2.40
  -5  -9   5   24.30    1.90
  -5  -9   5   22.00    1.90
   5  -9  -5   26.60    1.70
   5  -9  -5   22.50    1.90
   6  -9   5   77.99    3.30
  -6  -9  -5   72.99    3.40
   6  -9   5   75.99    3.40
   6  -9   5   74.29    3.60
  -6  -9  -5   75.49    3.40
   6  -9  -5   70.99    3.30
  -6  -9   5   73.19    3.40
   6  -9  -5   74.29    3.30
  -6  -9   5   75.39    3.30
   6  -9  -5   73.89    3.60
   6   9   5   78.69    3.60
   7  -9   5    2.30    1.00
   7  -9   5   -1.00    0.80
   7  -9   5    2.20    1.20
  -7  -9  -5    1.60    0.90
  -7  -9  -5   -1.10    0.90
   7  -9  -5   -0.20    0.80
  -7  -9   5    0.40    0.90
   7  -9  -5    0.20    0.90
   7   9   5   -0.10    1.10
  -7  -9   5   -0.70    1.00
  -8  -9  -5   42.30    2.40
  -8  -9  -5   47.90    2.30
   8  -9   5   46.10    2.50
   8  -9   5   52.29    3.00
   8  -9   5   49.60    2.70
   8  -9  -5   48.80    2.60
  -8  -9   5   42.50    2.90
   8   9   5   47.50    2.70
   8  -9  -5   43.00    2.40
  -8  -9   5   41.60    2.40
   9  -9   5   12.60    1.70
   9  -9   5    9.50    1.40
   9  -9   5   11.80    1.30
  -9  -9  -5   11.50    1.70
  -9  -9  -5    9.60    1.20
  -9  -9   5   10.30    1.30
   9  -9  -5   11.50    1.20
   9  -9  -5    8.80    1.80
   9   9   5   11.30    1.70
 -10   9   5   13.50    1.00
  10  -9   5   13.60    1.30
 -10  -9  -5   12.70    1.00
  10  -9  -5   12.60    1.40
 -10  -9   5   13.40    1.30
   0 -10  -5  919.51   28.40
   0 -10  -5  885.81   28.50
   0 -10   5  867.51   28.40
   0 -10   5  846.62   28.60
   0 -10   5  887.31   28.50
   1 -10   5   -0.50    1.60
   1 -10   5    0.10    1.50
  -1 -10  -5    1.70    0.80
  -1 -10  -5    0.50    1.20
   1 -10   5   -2.40    1.50
  -1 -10   5   -1.20    1.20
  -1 -10   5   -1.20    1.10
   1 -10  -5   -2.10    1.60
   1 -10  -5    1.50    0.70
   2 -10   5  223.08    8.20
   2 -10   5  224.58    7.80
  -2 -10  -5  211.48    8.00
  -2 -10  -5  235.08    8.00
   2 -10   5  226.48    8.00
  -2 -10  -5  225.68    7.90
   2 -10  -5  238.78    7.80
  -2 -10   5  230.78    8.00
  -2 -10   5  224.68    7.90
   2 -10  -5  218.28    7.90
  -3 -10  -5  129.79    5.10
   3 -10   5  135.69    5.00
   3 -10   5  134.29    5.40
   3 -10   5  136.09    5.20
  -3 -10  -5  131.69    5.10
  -3 -10  -5  139.59    5.20
  -3 -10   5  131.89    5.10
  -3 -10   5  132.69    5.10
   3 -10  -5  133.89    5.00
   3 -10  -5  130.89    5.00
  -4 -10  -5   60.39    2.90
  -4 -10  -5   62.19    3.00
   4 -10   5   61.49    3.00
   4 -10   5   55.99    3.20
   4 -10   5   59.89    2.90
   4 -10  -5   54.19    3.50
   4 -10  -5   58.99    2.90
  -4 -10   5   62.29    2.90
  -4 -10   5   59.99    2.90
   4 -10  -5   65.49    2.80
   5 -10   5  319.27   11.10
   5 -10   5  315.77   10.90
   5 -10   5  329.07   10.80
  -5 -10  -5  311.17   10.90
  -5 -10  -5  317.67   10.90
  -5 -10   5  313.67   10.90
   5 -10  -5  305.47   10.80
   5 -10  -5  340.57   10.90
   5 -10  -5  316.27   11.00
  -5 -10   5  304.97   10.80
  -6 -10  -5   88.69    3.70
   6 -10   5   86.59    3.90
   6 -10   5   83.89    3.60
   6 -10   5   83.49    3.60
  -6 -10  -5   86.09    3.60
   6 -10  -5   81.69    3.50
  -6 -10   5   85.59    3.60
   6  10   5   77.89    3.80
   6 -10  -5   81.79    3.70
  -6 -10   5   85.19    3.60
   6 -10  -5   77.69    3.50
  -7 -10  -5    2.30    0.90
  -7 -10  -5    4.20    1.00
   7 -10   5    5.80    1.10
   7 -10   5    2.30    0.80
   7 -10   5    3.00    1.10
   7 -10  -5    6.00    1.10
   7  10   5    2.90    1.20
   7 -10  -5    3.00    0.80
  -7 -10   5    3.20    0.90
  -7 -10   5    3.20    0.90
   8 -10   5   61.99    3.00
   8 -10   5   60.99    2.90
  -8 -10  -5   64.19    2.80
  -8 -10  -5   63.19    2.80
   8 -10   5   62.29    2.70
  -8 -10   5   62.29    2.80
   8 -10  -5   62.49    2.70
   8  10   5   61.49    3.10
  -8 -10   5   62.79    2.70
   8 -10  -5   60.79    2.90
  -9 -10  -5   15.10    2.50
  -9 -10  -5   15.60    1.20
   9 -10   5   16.30    2.00
   9 -10   5   14.10    1.20
   9 -10   5   17.60    1.30
   9 -10  -5   15.60    1.20
  -9 -10   5    9.70    1.80
  -9 -10   5   15.60    1.30
   9  10   5   16.60    1.90
   9 -10  -5   16.80    1.50
 -10  10   5   91.09    3.20
 -10 -10  -5   86.49    3.10
 -10 -10   5   85.69    3.20
   0 -11  -5   -0.30    0.80
   0 -11   5   -1.80    1.30
   0 -11   5    3.20    1.80
   0 -11  -5   -0.80    1.30
   0 -11   5   -1.60    1.30
   1 -11   5   43.90    3.30
  -1 -11  -5   52.49    2.70
   1 -11   5   48.30    3.20
   1 -11   5   36.80    3.10
  -1 -11  -5   52.19    2.40
   1 -11  -5   47.40    2.30
   1 -11  -5   47.00    4.40
  -1 -11   5   51.39    2.70
  -1 -11   5   48.20    2.60
  -2 -11  -5    4.40    1.50
   2 -11   5    3.80    1.40
   2 -11   5    5.80    1.40
  -2 -11  -5    3.80    1.10
  -2 -11  -5    5.20    1.30
   2 -11   5    3.50    1.50
   2 -11  -5    4.90    1.20
  -2 -11   5    4.30    1.10
   2 -11  -5    4.80    1.30
  -2 -11   5    5.40    1.20
  -3 -11  -5    1.00    1.10
   3 -11   5    1.00    1.20
  -3 -11  -5    1.20    0.90
   3 -11   5   -0.30    1.00
   3 -11   5    1.20    1.30
  -3 -11  -5   -0.20    0.90
   3 -11  -5   -0.70    0.80
  -3 -11   5   -0.80    1.00
  -3 -11   5   -0.50    0.90
   3 -11  -5    1.20    1.00
   4 -11   5   31.50    2.20
  -4 -11  -5   34.50    2.10
   4 -11   5   31.10    2.20
   4 -11   5   30.10    2.40
  -4 -11  -5   32.00    2.20
  -4 -11   5   32.00    2.10
   4 -11  -5   34.70    2.00
  -4 -11   5   36.30    2.10
   4 -11  -5   28.10    3.00
   4 -11  -5   30.50    2.10
  -5 -11  -5    7.60    1.60
   5 -11   5    9.20    1.90
  -5 -11  -5    8.60    1.40
   5 -11   5    7.10    1.50
   5 -11   5    6.60    1.70
   5 -11  -5   10.30    2.30
  -5 -11   5    8.10    1.50
   5 -11  -5    8.80    1.50
  -5 -11   5   10.50    1.50
   5 -11  -5    7.00    1.30
  -6 -11  -5   48.40    2.50
   6 -11   5   51.09    2.80
   6 -11   5   44.50    2.60
  -6 -11  -5   50.29    2.50
   6 -11   5   49.20    2.50
   6 -11  -5   49.70    2.80
   6 -11  -5   50.39    2.50
   6  11   5   45.80    2.70
   6 -11  -5   44.50    2.50
  -6 -11   5   50.99    2.50
  -6 -11   5   45.00    2.50
   7 -11   5   13.30    1.90
  -7 -11  -5   17.40    1.50
   7 -11   5   13.90    2.20
   7  11   5   15.90    1.90
  -7 -11   5   19.30    1.50
   7 -11  -5   17.10    1.60
   8 -11   5   97.79    4.00
  -8 -11  -5  101.49    3.80
  -8 -11  -5   98.39    3.80
   8 -11   5   96.49    3.70
   8 -11   5  100.79    3.90
   8  11   5  104.09    4.10
  -8 -11   5   99.09    3.80
   8 -11  -5   96.49    3.70
  -8 -11   5   95.89    3.80
  -9 -11  -5    4.30    0.80
   9 -11   5    3.70    0.80
  -9 -11  -5    3.30    1.00
  -9 -11   5    4.00    1.10
  -9 -11   5    2.90    0.60
   9 -11  -5    5.40    1.30
   9 -11  -5    3.80    0.80
   0 -12  -5  784.42   24.40
   0 -12   5  729.73   24.40
   0 -12   5  744.93   24.40
   0 -12  -5  745.23   24.50
   1 -12   5    6.50    1.80
  -1 -12  -5    8.50    1.40
  -1 -12  -5    7.80    1.30
   1 -12   5    7.30    1.60
   1 -12   5    6.50    1.80
  -1 -12   5    6.00    1.30
  -1 -12   5    7.10    1.60
   1 -12  -5    8.50    1.40
   2 -12   5   73.69    3.50
   2 -12   5   76.29    3.80
  -2 -12  -5   78.59    3.40
  -2 -12  -5   75.09    3.70
  -2 -12  -5   80.09    3.40
  -2 -12   5   78.09    3.40
  -2 -12   5   72.69    3.40
   2 -12  -5   73.39    3.40
   2 -12  -5   77.79    3.30
   3 -12   5    7.00    1.50
   3 -12   5    4.30    1.10
  -3 -12  -5    2.50    1.00
  -3 -12  -5    4.20    1.30
  -3 -12   5    6.30    1.40
   3 -12  -5    5.60    1.20
  -3 -12   5    3.20    1.00
   3 -12  -5    4.40    1.00
   4 -12   5   38.30    2.50
  -4 -12  -5   36.10    2.20
   4 -12   5   37.80    2.30
   4 -12   5   36.70    2.60
  -4 -12  -5   37.70    2.40
   4 -12  -5   39.00    2.30
   4 -12  -5   39.90    3.30
  -4 -12   5   39.20    2.30
  -4 -12   5   41.50    2.30
   4 -12  -5   40.80    2.20
  -5 -12  -5   59.69    2.80
   5 -12   5   55.19    3.00
   5 -12   5   57.09    3.00
  -5 -12  -5   58.19    2.80
   5 -12   5   60.29    2.80
   5  12   5   58.19    3.00
  -5 -12   5   55.69    2.80
  -5 -12   5   55.89    2.70
   5 -12  -5   57.39    3.10
   5 -12  -5   57.49    2.70
   5 -12  -5   52.89    2.70
  -6 -12  -5   -0.20    0.80
   6 -12   5    0.40    1.30
   6 -12   5    2.00    0.80
  -6 -12  -5    2.00    0.90
   6 -12   5   -0.30    1.00
  -6 -12   5    0.30    0.80
   6 -12  -5   -0.40    0.70
   6 -12  -5    0.10    0.80
   6  12   5    1.10    1.10
  -6 -12   5    0.00    0.70
  -7 -12  -5    1.70    0.70
   7 -12   5    1.30    0.80
   7 -12   5    1.20    0.70
  -7 -12  -5    1.60    0.70
   7 -12   5    2.40    1.40
   7 -12  -5    2.40    0.70
  -7 -12   5    2.20    0.70
   7  12   5    2.00    1.80
   7 -12  -5    1.30    0.90
  -7 -12   5    2.30    0.70
  -8 -12  -5   21.80    1.40
   8 -12   5   24.20    1.30
  -8 -12  -5   23.30    1.40
   8 -12   5   22.00    1.50
   8 -12  -5   22.50    1.60
   8 -12  -5   22.90    1.30
   8  12   5   24.50    2.30
  -8 -12   5   23.30    1.40
  -8 -12   5   22.60    1.40
   9 -12   5   31.00    1.50
  -9  12   5   34.40    1.60
  -9 -12  -5   34.60    1.50
  -9 -12   5   34.40    1.50
   0 -13  -5    0.50    1.30
   0 -13   5    0.70    1.20
   0 -13   5   -0.90    1.20
  -1 -13  -5   58.79    3.00
   1 -13   5   52.89    3.60
  -1 -13   5   61.09    2.90
  -1 -13   5   60.59    2.90
  -2 -13  -5    2.40    1.00
   2 -13   5    5.80    1.60
  -2 -13  -5    1.90    1.00
   2 -13   5    1.00    1.20
  -2 -13   5    0.40    1.00
   2 -13  -5    1.20    0.90
   2 -13  -5    1.20    1.20
  -2 -13   5    2.70    1.00
   3 -13   5   13.20    2.20
  -3 -13  -5   12.90    1.60
  -3 -13  -5   12.20    2.00
   3 -13   5   12.40    1.80
  -3 -13   5   13.70    1.50
   3 -13  -5   12.40    1.80
  -3 -13   5   16.00    1.60
   3 -13  -5   11.80    1.50
   4 -13   5   64.09    2.90
  -4 -13  -5   62.89    2.90
   4 -13   5   63.59    3.20
  -4 -13  -5   63.89    3.00
  -4 -13   5   61.39    2.90
  -4 -13   5   67.59    3.00
   4 -13  -5   61.89    2.90
   4 -13  -5   59.99    2.90
   5 -13   5    2.60    0.80
  -5 -13  -5    5.20    1.00
   5 -13  -5    5.00    1.30
   5 -13  -5    2.80    0.80
  -5 -13   5    2.70    0.90
  -5 -13   5    7.50    1.40
   5  13   5    7.00    1.70
   6 -13   5    1.40    0.90
  -6 -13  -5    2.80    0.80
  -6 -13  -5    2.40    0.80
   6 -13   5    2.90    0.70
   6  13   5    1.70    1.20
   6 -13  -5    2.00    0.90
   6 -13  -5    2.00    0.70
  -6 -13   5    2.50    0.80
  -6 -13   5    2.90    0.80
  -7 -13  -5    2.30    0.70
   7 -13   5    2.60    0.80
   7 -13   5    4.00    1.00
  -7 -13  -5    1.70    0.70
   7 -13  -5    1.60    0.60
   7  13   5    0.40    1.40
  -7 -13   5    0.70    0.60
   7 -13  -5    1.20    0.90
  -7 -13   5    4.10    0.90
   8 -13   5    5.30    0.80
  -8  13   5    3.60    0.80
  -8 -13  -5    5.00    0.90
  -8 -13  -5    5.80    1.10
  -8 -13   5    4.80    0.90
   8 -13  -5    6.20    0.80
  -8 -13   5    4.20    0.80
   0 -14   5   69.99    3.30
   0 -14  -5   64.19    3.10
   0 -14  -5   68.89    3.40
   0 -14   5   65.39    3.40
  -1 -14  -5   20.30    1.90
  -1 -14  -5   22.00    1.90
  -1 -14   5   18.70    2.00
   1 -14  -5   18.80    1.80
  -1 -14   5   23.60    1.90
  -2 -14  -5   18.20    1.60
  -2 -14  -5   16.80    1.80
   2 -14   5   17.80    2.10
   2 -14   5   15.60    2.50
  -2 -14   5   17.40    1.80
  -2 -14   5   19.00    1.70
   2 -14  -5   14.40    1.70
   2 -14  -5   18.10    2.30
   3 -14   5  133.89    5.30
   3 -14   5  124.89    4.70
  -3 -14  -5  125.39    4.80
  -3 -14   5  123.29    4.70
  -3 -14   5  120.99    4.70
   3 -14  -5  120.69    4.70
   3 -14  -5  114.99    4.70
   4 -14   5   63.69    2.90
   4 -14   5   67.59    3.20
  -4 -14  -5   67.89    3.00
   4 -14  -5   65.59    3.00
   4 -14  -5   67.29    2.90
  -4 -14   5   63.69    3.10
  -5 -14  -5   29.60    1.80
   5 -14   5   28.10    1.80
   5 -14   5   28.90    2.10
  -5 -14  -5   29.80    1.70
   5 -14  -5   30.50    1.90
  -5 -14   5   28.60    1.80
  -5 -14   5   27.60    1.70
   5  14   5   28.00    2.30
   5 -14  -5   26.80    1.70
   6 -14   5   17.30    1.20
   6 -14   5   14.80    1.60
  -6 -14  -5   16.40    1.40
  -6 -14  -5   16.60    1.30
   6  14   5   15.10    2.30
   6 -14  -5   19.20    1.60
  -6 -14   5   16.30    1.30
  -6 -14   5   16.20    1.20
   6 -14  -5   16.70    1.20
  -7 -14  -5   -0.40    0.50
   7 -14   5    0.10    0.50
  -7 -14  -5    0.20    0.60
   7 -14  -5   -1.20    1.10
  -7 -14   5   -0.40    0.50
  -7 -14   5   -0.60    0.50
   7 -14  -5    0.40    0.50
   8 -14   5    0.10    0.50
  -8 -14  -5   -0.30    0.60
   8 -14  -5    0.60    0.40
  -8 -14   5    1.50    0.70
   0 -15  -5    1.10    1.10
  -1 -15  -5    6.00    1.20
  -1 -15  -5   11.10    1.70
  -1 -15   5    5.40    1.30
  -1 -15   5    8.40    1.60
   1 -15  -5    8.70    1.70
  -2 -15  -5    7.80    1.40
  -2 -15   5    7.60    1.60
   2 -15  -5    9.30    1.60
  -2 -15   5    7.50    1.40
   3 -15   5   16.40    2.30
   3 -15   5   19.10    1.80
  -3 -15  -5   19.10    1.50
  -3 -15   5   16.50    1.50
   3 -15  -5   19.90    1.80
  -3 -15   5   18.10    1.60
   3 -15  -5   16.10    1.80
  -4 -15  -5    0.60    0.70
   4 -15   5    0.70    1.20
   4 -15   5    1.20    0.80
  -4 -15  -5   -0.70    1.00
   4  15   5    1.40    1.30
   4 -15  -5    0.50    1.30
  -4 -15   5    1.70    0.80
  -4 -15   5    0.80    0.70
   4 -15  -5    0.30    0.80
  -5 -15  -5    0.70    0.80
   5 -15   5    0.80    0.70
  -5 -15  -5    0.90    0.60
   5 -15   5    1.40    1.00
  -5 -15   5    1.10    0.60
   5  15   5    1.80    1.70
   5 -15  -5    0.70    1.00
  -5 -15   5    1.70    0.70
   5 -15  -5    0.80    0.60
   6 -15   5    0.40    0.50
   6 -15   5    0.80    0.90
  -6 -15  -5    1.40    0.50
  -6 -15  -5    1.90    0.80
   6 -15  -5    1.70    0.60
  -6 -15   5    1.70    0.60
  -6 -15   5    2.10    0.60
   7 -15   5   11.90    0.90
  -7 -15  -5   10.70    0.90
  -7 -15   5   12.20    0.90
   0 -16  -5   15.20    2.20
  -1 -16  -5   12.10    1.70
   1 -16  -5   14.00    1.80
  -1 -16   5   11.80    1.60
  -2 -16  -5   18.20    1.50
  -2 -16   5   17.70    1.80
  -2 -16   5   18.30    1.50
   2 -16  -5   16.90    1.90
  -3 -16  -5    5.80    1.10
  -3 -16   5    4.60    0.90
  -3 -16   5    6.80    1.10
   3 -16  -5    5.10    1.30
  -4 -16  -5    0.20    0.60
   4 -16  -5    1.40    1.20
  -4 -16   5    1.30    0.60
   4 -16  -5   -0.30    0.90
  -4 -16   5    1.10    0.70
   5 -16   5    5.70    1.00
  -5 -16  -5    3.80    0.80
  -5 -16   5    1.50    0.70
   5 -16  -5    2.20    0.70
  -5 -16   5    3.70    0.70
   6 -16   5    1.20    0.60
  -6 -16  -5    1.20    0.50
  -6 -16   5    1.10    0.60
  -6 -16   5    1.50    0.50
  -2 -17  -5    7.20    1.30
  -2 -17   5    6.00    1.30
  -3 -17  -5   -0.70    0.70
  -3 -17   5    0.20    1.40
  -3 -17   5    0.10    0.70
  -4 -17  -5    3.00    0.70
  -4 -17   5    3.60    1.40
  -4 -17   5    4.50    0.80
   0   0   6  833.92   26.00
   0   0  -6  802.22   26.00
  -1   0   6   -0.20    0.30
  -1   0  -6    0.00    0.20
   1   0  -6    0.00    0.30
   1   0   6    0.30    0.20
  -2   0   6    9.40    0.90
   2   0  -6   10.30    0.90
   2   0   6   11.30    0.60
   3   0   6  154.98    5.00
   3   0  -6  149.59    5.40
   3   0   6  143.09    5.00
  -3   0   6  147.89    5.40
   4   0   6  955.10   30.70
   4   0  -6  978.70   31.10
   4   0   6  968.60   30.60
   4   0  -6  904.51   30.60
   4   0   6 1020.50   30.60
  -4   0   6  934.31   31.10
   5   0  -6   61.49    3.50
   5   0   6   61.89    2.60
   5   0  -6   62.79    2.60
   5   0   6   66.19    2.70
   6   0  -6  504.45   18.20
   6   0   6  535.95   17.20
  -6   0  -6  506.85   17.20
   6   0  -6  546.85   17.10
   7   0  -6   12.30    1.40
   7   0   6   14.50    1.40
   7   0   6   12.80    2.10
  -7   0  -6   11.90    2.20
  -8   0   6   30.00    2.00
  -8   0  -6   27.30    2.40
   8   0   6   27.80    1.90
   8   0  -6   31.40    1.90
  -9   0  -6    3.70    1.40
  -9   0   6    1.60    0.90
   9   0  -6    1.30    1.00
   9   0   6    2.00    1.00
  10   0   6    1.10    0.80
  10   0  -6    0.10    1.00
 -10   0   6    1.60    0.80
  11   0  -6    2.70    1.20
 -11   0   6    2.90    0.80
  11   0   6    3.60    0.90
   0   1   6    0.00    0.30
   0  -1  -6   -0.20    0.20
   0  -1   6   -0.40    0.30
   0   1  -6   -0.40    0.20
   1   1  -6  208.78    7.20
  -1   1   6  218.68    7.30
   1  -1   6  233.08    7.10
  -1  -1  -6  209.48    7.20
   1   1   6  218.58    7.20
  -1  -1   6  214.98    7.30
  -1   1  -6  214.68    7.00
   1  -1  -6  222.48    7.30
   2  -1   6  841.02   24.50
   2   1  -6  787.92   24.90
  -2   1   6  792.82   24.90
  -2  -1   6  661.73   25.00
   2  -1  -6  749.73   24.80
   2   1   6  807.82   24.70
  -3   1   6    1.70    0.60
   3   1  -6    0.60    0.60
   3   1   6    0.40    0.50
  -3  -1   6    2.50    0.70
   3   1   6    0.50    0.40
   3  -1  -6    0.60    0.50
   4  -1   6  271.07    8.80
   4   1  -6  270.17    9.30
  -4   1   6  250.77    9.20
  -4  -1   6  251.67    9.30
   4   1   6  264.77    8.80
   4  -1  -6  271.17    9.20
   4   1   6  279.67    8.90
   4   1   6  261.87    8.80
   4  -1  -6  257.27    8.80
  -5   1   6   20.70    3.20
   5   1  -6   26.70    1.70
   5  -1   6   30.40    1.70
   5   1  -6   28.90    2.70
   5   1   6   28.00    1.60
   5   1   6   25.10    2.00
   5  -1  -6   27.90    2.60
   5  -1  -6   29.20    1.60
   5   1   6   28.90    2.60
   6  -1   6    5.10    1.10
   6   1  -6    2.60    0.90
  -6  -1  -6    4.90    1.30
   6  -1  -6    5.60    2.30
   6   1   6    2.00    0.80
   6  -1  -6    3.60    0.80
  -6   1  -6    3.90    2.80
  -7  -1  -6    7.70    2.00
   7  -1   6    9.00    1.20
   7   1  -6    7.10    1.40
   7  -1   6   12.20    1.90
  -7   1  -6    9.40    1.60
   7  -1  -6    7.50    1.20
  -7  -1   6    8.20    1.70
   7   1   6    7.10    1.20
   8  -1   6   11.90    1.40
  -8  -1  -6   13.40    2.00
   8   1  -6   11.00    1.60
   8  -1   6   13.90    2.50
   8  -1  -6   16.20    1.50
  -8  -1   6   13.70    1.70
  -8   1  -6   10.10    2.40
   8   1   6   15.90    1.50
   9  -1   6  135.79    5.40
  -9   1   6  150.78    5.40
   9   1  -6  135.89    5.40
  -9  -1  -6  152.88    5.60
  -9  -1   6  148.89    5.30
  -9   1  -6  139.69    5.60
   9   1   6  137.59    5.40
   9  -1  -6  141.59    5.40
 -10  -1  -6   69.89    3.10
  10  -1   6   56.09    2.80
  10   1  -6   58.69    2.90
 -10   1   6   64.39    2.80
 -10  -1   6   63.19    2.80
  10   1   6   61.89    2.90
  10  -1  -6   61.29    2.90
 -11   1   6    5.20    1.10
  11   1  -6    8.30    1.50
  11  -1   6    4.90    1.20
  11   1   6    8.00    1.20
 -11  -1   6    7.30    1.90
  11  -1  -6    8.90    1.70
   0  -2   6 2150.68   63.29
   0  -2  -6 1908.81   63.09
   0   2  -6 1956.00   63.09
   0   2   6 1955.60   63.19
  -1  -2  -6  431.76   14.20
   1  -2   6  464.75   14.00
  -1   2   6  396.56   14.20
   1   2  -6  423.06   14.20
  -1  -2   6  456.15   14.20
   1  -2  -6  437.76   14.20
   1   2   6  449.66   14.20
  -1   2  -6  431.96   13.90
   2   2  -6    0.80    0.40
  -2   2   6    1.20    0.50
   2  -2  -6    0.80    0.40
   2   2   6    0.80    0.40
  -2  -2   6    0.30    0.40
   3   2  -6   16.20    1.40
  -3   2   6   18.00    1.40
   3   2   6   17.50    1.20
   3   2   6   18.20    1.50
   3  -2  -6   18.40    1.40
  -3  -2   6   14.40    1.40
  -4   2   6  401.56   14.00
   4  -2   6  420.36   13.60
   4   2  -6  447.36   14.10
   4   2   6  406.06   13.70
  -4  -2   6  379.56   14.10
   4  -2  -6  414.36   13.50
   4  -2  -6  439.46   14.00
   4   2   6  419.86   13.80
   4   2   6  414.96   13.60
   5  -2   6    6.40    1.00
   5   2  -6    5.00    1.50
   5   2  -6    8.00    1.30
  -5   2   6    2.40    1.70
   5  -2  -6    6.40    1.00
   5  -2  -6    6.00    1.40
   5   2   6    6.60    1.70
   5   2   6    4.30    1.00
   5   2   6    6.40    1.30
   6  -2   6   72.09    3.90
   6  -2   6   75.49    3.10
   6   2  -6   79.69    3.20
  -6  -2  -6   75.59    3.40
  -6  -2   6   72.99    3.40
   6  -2  -6   66.49    7.90
   6  -2  -6   80.99    3.10
   6   2   6   81.69    3.20
   7  -2   6    3.10    0.80
   7  -2   6    0.40    1.50
   7   2  -6    2.30    0.90
  -7  -2  -6    4.70    1.30
   7   2   6    3.40    1.00
   7  -2  -6    2.00    0.80
  -7   2  -6    2.00    1.50
   7  -2  -6    5.00    1.50
  -7  -2   6    3.50    1.10
   8  -2   6    8.00    1.30
   8   2  -6    7.50    1.50
  -8  -2  -6    6.60    1.20
   8  -2   6    8.70    2.30
   8  -2  -6   11.00    1.50
  -8   2  -6    7.80    1.80
  -8  -2   6    5.60    1.10
   8   2   6    7.60    1.40
   9   2  -6   -0.90    1.00
  -9  -2  -6   -0.70    1.10
  -9   2   6    1.10    0.90
   9  -2   6    1.20    0.90
  -9  -2   6   -0.70    1.00
   9  -2  -6    0.00    0.90
   9   2   6   -0.30    0.90
  10   2  -6   27.00    2.10
 -10  -2  -6   28.00    2.10
 -10   2   6   30.50    1.80
  10  -2   6   25.50    1.80
  10   2   6   25.50    1.80
  10  -2  -6   28.20    1.80
 -10  -2   6   28.20    1.90
  11  -2   6    1.60    0.80
 -11   2   6    1.20    0.70
  11   2   6    2.90    0.90
  11  -2  -6    1.40    1.10
   0   3  -6   -1.10    0.30
   0  -3   6   -1.00    0.30
  -1   3   6  563.24   18.50
  -1  -3  -6  568.94   18.40
   1  -3   6  602.84   18.10
   1   3  -6  571.34   18.40
   1  -3  -6  533.85   18.30
  -1  -3   6  560.24   18.40
  -1   3  -6  572.04   18.10
  -2   3   6  280.07    9.50
   2   3  -6  275.47    9.50
   2  -3  -6  280.97    9.50
   2   3   6  294.97    9.50
  -2  -3   6  278.27    9.50
  -3   3   6    4.30    0.90
   3   3  -6    4.40    0.90
   3  -3  -6    3.20    0.90
  -3  -3   6    2.70    0.80
   3  -3  -6    5.10    1.10
   3   3   6    2.60    0.80
   3   3   6    2.50    0.70
  -4   3   6  411.46   14.10
   4   3  -6  441.96   14.30
   4  -3   6  418.76   13.50
  -4  -3   6  383.56   14.20
   4   3   6  396.16   14.20
   4  -3  -6  427.36   14.00
   4   3   6  423.36   14.10
   4  -3  -6  421.96   13.50
   5   3  -6    1.10    0.90
   5   3  -6    3.40    1.60
   5  -3   6    1.20    0.70
  -5   3   6   -2.10    2.00
   5  -3  -6    1.50    0.70
   5   3   6    2.70    0.80
   5   3   6    1.40    1.50
   5   3   6   -2.80    2.00
   5  -3  -6    4.00    1.40
   6   3  -6   71.69    3.00
   6  -3   6   68.29    3.70
   6  -3   6   73.49    3.70
   6  -3   6   71.99    2.90
  -6  -3  -6   67.89    3.30
  -6  -3   6   59.79    3.60
   6   3   6   75.19    3.10
   6  -3  -6   73.79    2.90
   6  -3  -6   68.29    3.30
  -6  -3   6   69.09    3.30
   7  -3   6    3.50    0.90
   7  -3   6    7.20    1.70
   7  -3   6    5.40    1.50
  -7  -3  -6    5.10    1.20
   7   3  -6    4.30    1.10
  -7   3  -6    5.10    1.70
   7  -3  -6    4.60    1.30
  -7  -3   6    4.70    1.60
   7  -3  -6    4.50    1.00
   7   3   6    3.90    1.00
  -7  -3   6    3.30    1.10
   8   3  -6  107.19    4.20
  -8  -3  -6  101.49    4.30
   8  -3   6  104.39    4.50
   8  -3   6  103.49    4.10
   8   3   6  104.39    4.20
   8  -3  -6  104.79    4.10
  -8  -3   6   92.29    4.50
   8  -3  -6   95.49    4.20
  -8  -3   6  104.29    4.20
   9  -3   6   13.50    1.50
  -9  -3  -6   14.60    1.80
   9   3  -6   12.40    1.80
   9  -3  -6   11.90    1.50
   9   3   6   10.00    1.50
  -9  -3   6   14.00    1.80
 -10   3   6  215.18    7.40
  10  -3   6  210.28    7.40
  10   3  -6  206.98    7.50
 -10  -3  -6  211.98    7.40
 -10  -3   6  212.88    7.30
  10   3   6  211.58    7.50
  10  -3  -6  207.48    7.40
  11  -3   6    1.80    0.90
 -11   3   6   -0.20    0.60
  11  -3  -6   -0.30    1.10
  11   3   6    0.90    0.90
   0  -4   6  270.77    8.50
   0   4   6  253.07    8.70
   0   4  -6  258.57    8.60
   0  -4  -6  244.18    8.70
  -1  -4  -6  130.39    4.70
   1   4  -6  125.09    4.60
  -1   4   6  131.09    4.70
  -1  -4   6  125.89    4.60
   1  -4  -6  125.79    4.60
  -1   4  -6  130.89    4.40
   1   4   6  125.59    4.70
  -2   4   6  906.91   29.60
   2   4  -6  950.10   29.70
  -2  -4   6  940.61   29.70
   2  -4  -6  888.01   29.50
   2   4   6  907.71   29.70
   3   4  -6   68.29    3.10
  -3   4   6   59.89    3.00
  -3  -4  -6   66.19    2.60
  -3  -4   6   62.69    3.10
   3   4   6   56.39    3.00
   3   4   6   61.39    3.20
   3  -4  -6   64.39    2.90
   3  -4  -6   64.19    2.50
   4   4  -6   30.00    2.60
  -4   4   6   31.50    2.90
   4   4  -6   33.10    2.30
   4  -4   6   32.40    1.70
   4   4   6   23.10    3.10
   4  -4  -6   33.50    2.50
   4  -4  -6   32.30    1.60
   4   4   6   28.90    2.50
   5   4  -6    0.10    1.00
   5  -4   6    1.00    0.70
  -5  -4  -6   -0.20    1.20
   5  -4  -6   -1.20    1.80
   5   4   6   -0.40    1.90
   5  -4  -6   -2.30    1.30
   5  -4  -6    0.40    0.70
   5   4   6    1.00    0.70
  -6  -4  -6   62.09    3.30
  -6  -4  -6   64.09    3.00
   6  -4   6   65.09    3.40
   6  -4   6   64.19    3.30
   6  -4   6   62.99    2.70
   6   4  -6   64.79    2.90
  -6  -4   6   62.69    3.40
   6  -4  -6   64.99    3.00
  -6  -4   6   56.59    3.20
  -6  -4   6   59.89    3.10
   6   4   6   63.69    2.80
   6  -4  -6   59.99    2.70
   6  -4  -6   59.29    3.10
   7  -4   6   55.69    4.60
   7  -4   6   50.69    2.50
   7  -4   6   49.99    3.10
   7   4  -6   56.59    2.70
   7  -4  -6   56.79    2.60
  -7  -4   6   49.80    2.80
  -7  -4   6   52.19    3.00
   7  -4  -6   49.99    2.80
   7   4   6   50.59    2.60
   8  -4   6    1.50    1.30
  -8  -4  -6    0.50    1.10
   8   4  -6    0.90    1.20
   8  -4   6    0.10    1.30
   8  -4  -6    1.90    1.20
   8  -4  -6    1.20    0.90
  -8  -4   6   -0.10    1.30
  -8  -4   6    4.70    1.30
   9  -4   6   20.60    2.20
  -9  -4  -6   19.60    1.80
   9  -4   6   16.80    1.70
   9   4  -6   18.50    2.10
  -9  -4   6   15.00    2.60
   9  -4  -6   19.80    1.60
  -9  -4   6   23.90    2.10
   9   4   6   18.40    1.70
   9  -4  -6   18.40    2.00
 -10  -4  -6   24.50    1.80
 -10   4   6   25.70    1.60
  10   4  -6   20.90    3.30
  10  -4   6   22.10    1.70
  10  -4  -6   22.00    1.80
  10   4   6   27.70    1.80
 -11  -4  -6   38.20    2.10
 -11   4   6   37.70    1.80
  11  -4   6   39.60    2.10
  11  -4  -6   36.80    2.20
  11   4   6   40.80    2.20
 -11   4  -6   37.70    2.30
   0   5   6   -1.00    0.60
   0  -5  -6   -0.50    0.60
   0   5  -6   -0.10    0.50
  -1  -5  -6  679.93   24.20
  -1   5   6  775.42   24.70
   1   5  -6  811.42   24.60
  -1   5  -6  788.82   24.30
   1  -5  -6  764.72   24.60
  -1   5  -6  779.62   24.30
   1   5   6  735.13   24.70
   1  -5  -6  730.13   24.20
   2   5  -6    3.10    0.90
  -2   5   6    3.40    0.90
  -2  -5  -6    3.30    0.90
  -2  -5   6    2.10    0.90
   2   5   6    1.80    0.90
  -2   5  -6    1.70    0.40
  -2   5  -6    1.90    0.40
   2  -5  -6    2.90    0.70
   2  -5  -6    2.20    0.80
   3   5  -6    4.80    1.00
  -3   5   6    8.80    2.10
   3  -5   6    7.90    1.30
  -3  -5  -6    8.00    1.00
   3   5   6   10.20    1.80
   3   5   6    4.90    1.30
   3  -5  -6    7.30    0.90
   3  -5  -6    8.20    1.60
   4  -5   6   13.70    1.20
   4   5  -6    9.90    2.60
   4   5  -6   11.10    1.80
  -4   5   6   11.50    3.20
   4  -5  -6   14.40    1.10
   4   5   6   11.90    2.60
   4  -5  -6   16.30    2.50
   5   5  -6    0.00    1.20
  -5  -5  -6    0.30    1.30
   5  -5   6    0.20    1.10
   5  -5   6   -0.30    1.40
  -5  -5  -6    1.00    1.10
   5  -5   6    0.30    0.70
   5  -5  -6    0.70    1.30
   5   5   6    0.90    0.70
  -5  -5   6    0.60    1.40
   5   5   6   -1.70    2.40
   5  -5  -6    3.30    1.10
  -5  -5   6    0.60    1.20
   5  -5  -6    0.70    0.60
   5  -5  -6    1.20    3.00
   6  -5   6   78.99    3.70
  -6  -5  -6   75.89    3.60
  -6  -5  -6   77.79    3.40
   6   5  -6   79.19    3.40
   6  -5   6   76.99    3.20
   6  -5   6   78.39    3.60
   6   5   6   79.19    3.40
   6  -5  -6   77.09    3.20
   6  -5  -6   79.29    3.60
  -6  -5   6   69.19    3.60
  -6  -5   6   78.49    3.60
  -6  -5   6   78.49    3.50
   6  -5  -6   74.59    3.40
  -7  -5  -6   42.70    2.40
   7  -5   6   37.90    2.70
  -7  -5  -6   38.90    2.80
   7  -5   6   41.10    2.70
   7  -5   6   41.20    2.20
   7   5  -6   38.30    2.40
   7   5   6   37.90    2.30
  -7  -5   6   34.60    2.50
  -7  -5   6   35.50    2.70
   7  -5  -6   39.90    2.40
   7  -5  -6   36.80    2.10
   8  -5   6   26.30    2.50
   8  -5   6   29.70    2.30
  -8  -5  -6   29.10    2.00
   8   5  -6   30.00    3.40
   8  -5   6   27.80    2.00
  -8  -5   6   34.20    2.30
   8  -5  -6   28.00    1.90
   8  -5  -6   30.30    2.20
  -8  -5   6   32.00    2.50
   8   5   6   31.60    2.20
  -9  -5  -6   33.10    2.10
   9  -5   6   36.20    2.50
   9   5  -6   31.20    2.60
   9  -5   6   38.80    2.40
   9  -5   6   33.10    2.10
   9   5   6   31.10    2.10
   9  -5  -6   33.60    2.00
   9  -5  -6   33.80    2.20
  -9  -5   6   37.70    2.40
 -10  -5  -6   41.90    2.20
 -10   5   6   42.00    2.10
  10  -5   6   41.70    2.20
  10   5   6   42.00    2.30
  10  -5  -6   42.60    2.30
  11  -5   6    8.50    1.50
 -11   5   6    9.70    1.00
 -11  -5  -6    8.60    1.40
 -11   5  -6    7.80    1.40
  11   5   6    8.40    1.50
  11  -5  -6   11.70    1.50
   0  -6  -6   54.69    2.30
   0  -6  -6   55.79    2.90
   0   6   6   55.79    2.90
   0   6  -6   56.59    2.60
   1   6  -6   61.79    3.00
  -1  -6  -6   64.09    2.50
  -1   6   6   59.79    3.20
  -1   6  -6   66.89    2.70
   1  -6  -6   61.99    3.00
   1  -6  -6   62.79    2.50
   1   6   6   59.89    3.30
   2   6  -6   92.29    4.00
  -2   6   6   84.59    4.00
  -2  -6  -6   82.39    3.20
   2  -6  -6   82.59    3.20
   2   6   6   80.99    4.20
   2  -6  -6   89.09    3.80
  -2   6  -6   83.09    3.10
  -2   6  -6   81.49    3.20
  -3  -6  -6  973.10   30.40
  -3   6   6  856.31   30.90
   3   6  -6  982.90   31.20
   3  -6   6  916.41   30.30
   3  -6  -6  948.01   30.90
   3   6   6 1007.90   31.20
   3  -6  -6  955.00   30.30
   4  -6   6    4.70    1.20
   4  -6   6    3.60    0.90
   4  -6   6    6.00    1.50
   4  -6  -6    3.00    1.10
   4  -6  -6    5.30    1.00
   4   6   6    2.40    1.80
   4  -6  -6    3.40    1.80
   5  -6   6  118.59    4.70
   5   6  -6  118.89    4.60
  -5  -6  -6  120.89    4.70
   5  -6   6  121.09    4.40
  -5  -6  -6  119.89    4.60
   5  -6   6  118.79    4.90
  -5  -6   6  116.29    4.70
   5  -6  -6  117.69    4.80
   5  -6  -6  119.79    4.40
  -5  -6   6  111.69    4.90
   5  -6  -6  111.49    4.50
  -5  -6   6  115.89    4.60
   6   6  -6    2.50    1.30
   6  -6   6    2.80    1.30
  -6  -6  -6    5.60    1.30
   6  -6   6    3.70    1.00
   6  -6   6    4.60    1.10
  -6  -6  -6    5.40    1.10
  -6  -6   6    6.00    1.20
   6   6   6    2.60    1.00
   6  -6  -6    2.90    1.00
  -6  -6   6    2.10    1.10
   6  -6  -6    4.80    1.10
  -6  -6   6    5.10    2.20
   6  -6  -6    2.80    1.30
  -7  -6  -6   33.60    2.40
   7  -6   6   34.70    2.10
   7  -6   6   32.80    2.40
   7  -6   6   31.30    2.60
  -7  -6  -6   30.70    2.20
   7   6  -6   34.50    2.50
   7   6   6   33.10    2.20
   7  -6  -6   34.10    2.20
   7  -6  -6   38.50    2.10
  -7  -6   6   34.80    2.30
  -7  -6   6   36.60    2.50
   8  -6   6   18.30    1.90
   8   6  -6   12.70    2.30
   8  -6   6   14.40    2.00
  -8  -6  -6   12.90    2.20
  -8  -6  -6   13.90    1.70
   8  -6   6   13.20    1.50
   8   6   6   15.40    1.80
   8  -6  -6   15.40    1.60
  -8  -6   6   16.30    2.80
  -8  -6   6   15.00    1.80
   8  -6  -6   15.70    1.80
   9  -6   6    0.70    1.00
  -9  -6  -6    2.20    0.90
   9  -6   6    2.60    0.90
   9  -6   6    1.70    1.10
   9   6   6    1.40    1.00
  -9  -6   6    1.00    1.00
   9  -6  -6    2.00    0.90
  10  -6   6    0.20    0.90
 -10  -6  -6    0.90    0.70
 -10   6   6   -0.20    0.60
  10  -6  -6   -0.10    0.90
  10   6   6    1.10    1.00
 -11  -6  -6    0.90    0.80
 -11   6  -6    0.90    0.80
   0  -7  -6    0.00    0.60
   0   7  -6   -0.80    1.40
   0   7  -6    1.30    1.00
  -1  -7  -6  151.88    5.30
   1   7  -6  156.78    6.10
  -1   7  -6  153.98    5.60
  -1   7  -6  145.79    5.70
   1  -7  -6  156.38    5.30
   1  -7  -6  147.39    6.10
   2  -7   6   19.80    1.70
   2   7  -6   17.00    2.70
  -2  -7  -6   19.20    1.40
   2   7   6   19.80    2.60
  -2   7  -6   20.20    1.90
   2  -7  -6   21.20    1.30
  -2   7  -6   21.00    1.80
   2  -7  -6   19.00    2.60
   3  -7   6    5.80    1.30
   3   7  -6    5.70    1.70
   3  -7  -6    6.10    1.80
   3  -7  -6    5.00    1.10
   3   7   6    4.90    1.80
   4  -7   6   25.80    1.80
   4  -7   6   24.60    2.10
   4  -7   6   26.50    2.50
  -4  -7  -6   28.40    2.10
  -4  -7  -6   29.30    2.20
   4  -7  -6   28.30    1.60
  -4  -7   6   26.00    2.00
   4  -7  -6   25.40    2.70
  -4  -7   6   26.00    2.00
   4  -7  -6   26.50    2.00
   4  -7  -6   22.40    5.00
  -5  -7  -6   41.30    2.40
  -5  -7  -6   39.70    2.30
   5  -7   6   35.70    2.00
   5  -7   6   38.50    2.40
   5  -7   6   36.70    2.70
  -5  -7   6   41.10    2.30
  -5  -7   6   36.50    2.30
   5  -7  -6   39.40    2.70
   5  -7  -6   41.10    2.30
   5  -7  -6   41.60    2.10
   6  -7   6   22.70    1.70
   6  -7   6   20.40    2.00
   6  -7   6   23.90    2.30
  -6  -7  -6   25.70    1.90
   6   7   6   23.70    1.90
  -6  -7   6   21.60    2.70
   6  -7  -6   22.60    2.20
   6  -7  -6   25.30    1.80
  -6  -7   6   19.20    1.90
   6  -7  -6   20.90    1.90
  -7  -7  -6   26.10    2.00
   7  -7   6   26.80    2.10
   7  -7   6   28.30    2.40
  -7  -7  -6   29.90    2.30
   7  -7   6   31.80    1.90
   7  -7  -6   30.60    2.00
   7  -7  -6   28.70    2.00
  -7  -7   6   29.00    2.10
  -7  -7   6   29.00    2.20
   7   7   6   30.70    2.20
  -8  -7  -6    3.30    1.30
   8  -7   6    2.80    1.00
  -8  -7  -6    1.60    0.90
   8  -7   6    1.60    1.10
   8  -7   6    3.90    1.00
   8  -7  -6    1.50    0.90
  -8  -7   6    2.10    1.30
  -8  -7   6    3.20    1.00
   8   7   6    1.90    1.10
   8  -7  -6    4.40    1.00
   9  -7   6   28.00    1.90
   9  -7   6   26.90    2.00
   9  -7   6   26.10    1.80
  -9  -7  -6   26.80    1.70
  -9  -7   6   24.50    1.80
   9  -7  -6   26.70    1.80
   9   7   6   28.10    2.00
   9  -7  -6   25.90    1.80
 -10  -7  -6    4.70    1.10
  10  -7   6    3.80    1.10
 -10   7   6    4.00    0.90
 -10  -7   6    6.40    1.70
  10   7   6    7.80    1.50
  10  -7  -6    3.10    0.90
 -11   7   6    8.30    0.90
 -11  -7  -6    8.40    1.10
 -11   7  -6    6.50    1.20
   0  -8  -6   20.30    1.30
   0   8  -6   17.60    2.60
   0   8  -6   20.80    3.60
   1   8  -6    0.90    1.50
  -1  -8  -6    1.00    0.70
  -1   8  -6    1.40    1.30
  -1   8  -6    1.80    1.70
   1  -8  -6    0.20    0.60
  -2  -8  -6    1.20    0.70
   2  -8   6    1.50    1.00
   2   8  -6    5.70    2.00
  -2  -8  -6    4.20    2.00
  -2  -8   6    0.80    1.60
   2  -8  -6    0.40    0.60
  -2  -8   6    1.00    1.30
   3  -8   6   33.90    2.10
  -3  -8  -6   35.90    2.00
  -3  -8  -6   35.30    2.50
   3  -8   6   32.10    2.60
  -3  -8  -6   39.60    2.20
   3  -8   6   35.00    2.40
  -3  -8   6   38.40    2.10
  -3  -8   6   37.00    2.20
   3  -8  -6   32.10    2.30
   3  -8  -6   33.00    5.20
   3  -8  -6   35.60    1.80
  -4  -8  -6    6.60    1.10
  -4  -8  -6    5.50    1.20
   4  -8   6    6.30    1.40
   4  -8   6    6.00    1.50
   4  -8   6    2.20    1.10
   4  -8  -6    5.90    1.10
   4  -8  -6    6.50    1.60
  -4  -8   6    4.00    1.10
   4  -8  -6    6.50    1.60
  -4  -8   6    4.50    1.10
   5  -8   6   92.79    3.60
   5  -8   6   86.69    3.80
   5  -8   6   88.09    4.10
  -5  -8  -6   88.59    3.80
  -5  -8  -6   87.69    3.80
   5  -8  -6   88.69    4.10
   5  -8  -6   90.39    3.70
  -5  -8   6   87.99    3.70
  -5  -8   6   93.09    3.80
   5  -8  -6   92.69    3.70
   6  -8   6    4.20    1.00
   6  -8   6    3.80    1.00
  -6  -8  -6    1.90    1.00
   6  -8   6    2.40    1.20
  -6  -8  -6    2.10    1.10
   6  -8  -6    2.80    1.30
   6  -8  -6    1.80    0.90
   6   8   6    3.10    1.10
  -6  -8   6    1.70    1.00
  -6  -8   6    3.10    1.00
  -7  -8  -6  150.88    5.70
   7  -8   6  148.59    5.60
  -7  -8  -6  147.19    5.60
   7  -8   6  152.38    5.90
   7  -8   6  140.69    5.50
  -7  -8   6  154.28    5.60
   7  -8  -6  155.18    5.60
  -7  -8   6  150.08    5.70
   7  -8  -6  143.19    5.60
   7   8   6  148.99    5.80
  -8  -8  -6   32.00    2.20
   8  -8   6   30.90    2.00
   8  -8   6   32.80    2.30
  -8  -8  -6   33.50    2.00
   8  -8   6   32.10    2.10
  -8  -8   6   30.70    2.00
   8   8   6   29.90    2.20
   8  -8  -6   32.40    2.00
   8  -8  -6   30.00    2.00
  -8  -8   6   32.90    2.20
   9  -8   6    1.20    0.80
   9  -8   6    0.60    1.00
   9  -8   6    0.40    0.90
  -9  -8  -6    0.10    0.70
  -9  -8   6    0.10    0.80
   9   8   6    0.50    1.00
   9  -8  -6    0.90    0.70
   9  -8  -6    1.50    0.80
  10  -8   6   13.70    1.80
  10  -8   6   12.60    1.60
 -10  -8  -6   12.70    1.10
 -10   8   6   14.40    1.10
 -10  -8   6   12.50    1.50
  10  -8  -6   13.40    1.40
  10   8   6   17.50    1.70
   0   9  -6   -2.90    2.00
   0  -9  -6    0.10    0.70
   0  -9   6   -1.90    1.40
   1   9  -6   16.10    4.40
   1  -9   6    9.10    2.40
  -1  -9  -6   15.20    1.30
  -1  -9  -6   14.90    1.90
  -1  -9   6   16.00    2.00
   1  -9  -6   14.90    1.20
  -1  -9   6    9.80    1.90
   2  -9   6   80.39    4.00
  -2  -9  -6   92.29    3.50
  -2  -9  -6   90.39    3.70
   2  -9   6   91.79    3.90
  -2  -9  -6   81.69    4.00
   2  -9   6   84.99    3.50
  -2  -9   6   88.89    3.70
   2  -9  -6   87.39    3.80
   2  -9  -6   90.19    3.40
  -2  -9   6   86.49    3.70
  -3  -9  -6   46.30    2.30
   3  -9   6   41.70    2.30
  -3  -9  -6   43.20    2.70
   3  -9   6   45.90    2.80
   3  -9   6   47.70    2.60
  -3  -9  -6   49.30    2.50
  -3  -9   6   47.80    2.40
  -3  -9   6   42.90    2.50
   3  -9  -6   45.80    2.20
   3  -9  -6   45.90    2.50
   4  -9   6   11.00    1.70
  -4  -9  -6    7.50    1.50
   4  -9   6    8.00    2.00
   4  -9   6    9.10    1.60
  -4  -9  -6    9.30    1.70
  -4  -9   6    9.60    1.50
   4  -9  -6    6.80    1.60
  -4  -9   6    8.30    1.50
   4  -9  -6    9.40    1.20
   4  -9  -6   10.20    2.50
   5  -9   6   31.50    2.20
   5  -9   6   27.70    2.00
  -5  -9  -6   28.70    2.00
   5  -9   6   28.30    2.40
  -5  -9  -6   29.50    2.10
   5  -9  -6   31.20    2.10
  -5  -9   6   29.30    2.00
   5  -9  -6   32.50    1.90
   5  -9  -6   29.90    2.60
  -5  -9   6   32.70    2.10
   6  -9   6   31.50    2.20
  -6  -9  -6   34.60    2.10
  -6  -9  -6   32.90    2.20
   6  -9   6   32.50    2.40
   6  -9   6   35.20    2.30
   6  -9  -6   34.70    2.50
   6   9   6   34.30    2.30
   6  -9  -6   33.60    2.10
  -6  -9   6   33.60    2.10
  -6  -9   6   30.60    2.20
  -7  -9  -6    1.50    0.90
   7  -9   6    1.10    1.10
   7  -9   6    1.30    1.10
  -7  -9  -6    2.50    1.00
   7  -9   6    1.50    0.90
   7  -9  -6    1.70    0.80
   7   9   6    0.70    1.10
  -7  -9   6    2.00    1.00
   7  -9  -6    1.80    0.90
  -7  -9   6    1.00    0.90
  -8  -9  -6    1.50    1.00
   8  -9   6    2.10    1.10
   8   9   6    2.00    1.00
   8  -9  -6    2.10    0.90
  -8  -9   6    1.60    0.90
  -9  -9  -6   25.40    1.60
   9  -9   6   24.30    2.00
   9  -9   6   25.90    1.60
   9  -9   6   26.10    1.80
  -9  -9  -6   23.10    2.00
   9  -9  -6   26.20    1.50
   9  -9  -6   28.00    2.00
   9   9   6   25.50    2.00
  -9  -9   6   22.70    1.60
  10  -9   6    3.80    0.90
 -10  -9  -6    4.40    0.90
 -10   9   6    4.70    0.80
 -10  -9   6    6.00    1.30
  10  -9  -6    6.30    1.30
   0 -10  -6   20.40    1.50
   0 -10   6   19.10    2.10
   0 -10   6   15.70    2.10
   0 -10   6   20.70    2.90
   0 -10  -6   15.30    2.30
   1 -10   6    9.40    2.40
  -1 -10  -6   12.00    1.90
  -1 -10  -6   11.80    1.30
   1 -10   6   14.10    2.20
   1 -10   6   10.40    2.40
  -1 -10   6   12.20    1.80
   1 -10  -6   11.00    1.30
   1 -10  -6   12.20    2.50
  -1 -10   6   14.90    3.10
  -1 -10   6   13.30    1.90
   2 -10   6   31.70    2.40
   2 -10   6   31.20    2.60
  -2 -10  -6   34.50    2.00
  -2 -10  -6   29.50    2.70
  -2 -10  -6   32.00    2.10
   2 -10  -6   30.80    2.40
   2 -10  -6   33.80    1.90
  -2 -10   6   33.80    2.20
  -2 -10   6   33.40    2.10
  -3 -10  -6    0.50    1.20
   3 -10   6   -0.20    1.10
  -3 -10  -6    1.60    1.00
   3 -10   6    0.40    1.10
  -3 -10  -6    0.00    0.90
   3 -10   6    1.00    1.30
  -3 -10   6   -0.30    0.90
   3 -10  -6   -0.30    1.00
  -3 -10   6    1.30    1.00
   3 -10  -6   -0.10    0.80
   4 -10   6   35.00    2.20
   4 -10   6   34.90    2.20
  -4 -10  -6   34.70    2.30
   4 -10   6   29.60    2.50
  -4 -10  -6   32.30    2.10
   4 -10  -6   33.40    2.00
   4 -10  -6   33.40    2.20
  -4 -10   6   32.70    2.10
  -4 -10   6   31.90    2.10
  -5 -10  -6    1.80    0.90
   5 -10   6    6.80    1.70
   5 -10   6    3.10    1.20
   5 -10   6    2.10    0.90
  -5 -10  -6    6.70    1.50
  -5 -10   6    2.20    0.90
   5 -10  -6    6.50    1.40
  -5 -10   6    2.30    1.00
   5 -10  -6    3.10    1.00
   5 -10  -6    0.10    1.40
  -6 -10  -6   29.60    2.00
   6 -10   6   29.30    2.00
  -6 -10  -6   28.60    2.00
   6 -10   6   27.50    2.30
   6 -10   6   25.80    2.00
   6  10   6   22.90    2.10
   6 -10  -6   29.90    2.40
   6 -10  -6   30.60    2.00
  -6 -10   6   29.60    2.00
   6 -10  -6   29.10    1.90
  -6 -10   6   30.00    2.00
   7 -10   6   94.39    3.70
  -7 -10  -6   90.19    3.70
   7 -10   6   93.79    3.90
   7 -10   6   87.59    3.80
  -7 -10  -6   93.49    3.70
   7  10   6   88.49    4.00
   7 -10  -6   79.79    3.70
  -7 -10   6   92.89    3.80
  -7 -10   6   92.09    3.70
   7 -10  -6   88.89    3.60
  -8 -10  -6    0.60    0.70
  -8 -10  -6    1.50    0.90
   8 -10   6    0.30    0.80
   8 -10   6    1.70    0.70
  -8 -10   6    2.20    0.90
  -8 -10   6    1.20    0.80
   8 -10  -6    1.80    0.70
   8 -10  -6    0.40    0.90
   8  10   6   -0.30    1.00
   9 -10   6    1.40    1.50
   9 -10   6    1.10    0.60
  -9 -10  -6    1.00    0.60
  -9 -10  -6    2.40    1.10
   9 -10   6    1.20    0.70
   9 -10  -6    0.70    0.60
   9  10   6   -0.10    1.10
  -9 -10   6    1.10    0.70
   9 -10  -6    2.30    0.80
  -9 -10   6    0.90    1.10
 -10  10   6   10.30    0.90
 -10 -10  -6    7.90    0.90
   0 -11   6    0.40    1.30
   0 -11  -6   -0.70    0.80
   0 -11   6    0.30    1.60
   0 -11   6   -0.80    1.20
   0 -11  -6    2.40    1.40
   1 -11   6   40.40    2.90
  -1 -11  -6   44.20    2.30
   1 -11   6   38.20    2.80
  -1 -11  -6   41.80    2.50
   1 -11   6   38.60    3.10
  -1 -11   6   43.60    2.50
   1 -11  -6   43.30    2.20
   1 -11  -6   41.20    3.50
  -1 -11   6   41.30    2.40
  -2 -11  -6   23.50    2.60
   2 -11   6   29.00    2.50
  -2 -11  -6   24.90    1.80
   2 -11   6   23.80    2.30
   2 -11  -6   26.40    2.30
   2 -11  -6   28.10    1.80
   3 -11   6   20.00    2.40
  -3 -11  -6   20.20    1.80
  -3 -11  -6   22.30    2.10
   3 -11   6   21.40    2.00
  -3 -11  -6   21.40    1.80
  -3 -11   6   21.50    1.80
  -3 -11   6   18.00    1.80
   3 -11  -6   21.40    1.70
   3 -11  -6   17.50    1.90
  -4 -11  -6   55.99    2.80
   4 -11   6   59.09    3.20
  -4 -11  -6   59.79    3.00
   4 -11   6   57.49    3.00
   4 -11   6   56.29    2.90
  -4 -11   6   59.19    2.80
   4 -11  -6   58.69    2.80
  -4 -11   6   59.09    2.90
   4 -11  -6   62.19    2.80
   4 -11  -6   57.39    3.70
  -5 -11  -6   53.89    2.70
   5 -11   6   48.50    2.80
   5 -11   6   51.49    2.90
  -5 -11  -6   53.89    2.70
   5 -11   6   51.09    2.70
   5 -11  -6   48.70    3.10
   5 -11  -6   55.89    2.60
  -5 -11   6   51.69    2.70
   5 -11  -6   49.99    2.60
  -5 -11   6   52.99    2.60
   6 -11   6   26.80    1.90
  -6 -11  -6   28.10    1.90
   6 -11   6   24.30    2.20
   6 -11   6   24.50    2.10
  -6 -11  -6   26.50    1.90
  -6 -11   6   23.60    1.80
   6 -11  -6   21.30    1.70
   6  11   6   27.40    2.10
   6 -11  -6   27.40    1.80
  -6 -11   6   29.30    1.90
  -7 -11  -6    3.20    0.90
   7 -11   6    2.70    1.30
  -7 -11  -6    1.90    0.80
   7 -11   6    3.60    1.00
   7 -11   6    2.50    0.70
   7  11   6    4.20    1.20
   7 -11  -6    3.60    0.90
   7 -11  -6    4.80    1.30
  -7 -11   6    3.10    0.90
  -7 -11   6    2.30    0.80
   8 -11   6    9.10    1.30
   8 -11   6    9.60    1.10
  -8 -11  -6    9.50    1.10
   8 -11   6    5.90    1.60
  -8 -11  -6    7.00    1.20
   8  11   6    8.60    1.80
  -8 -11   6    7.20    1.20
   8 -11  -6    8.90    1.10
   8 -11  -6    7.90    1.30
  -8 -11   6    6.40    1.20
  -9 -11  -6    7.80    0.90
  -9  11   6    8.10    1.00
   9 -11   6    8.90    1.00
  -9 -11  -6    7.60    1.40
  -9 -11   6    8.00    1.00
   9 -11  -6    7.70    0.90
   9 -11  -6    8.80    1.40
  -9 -11   6    9.90    1.90
   0 -12  -6  329.57   11.10
   0 -12  -6  326.37   11.20
   0 -12   6  331.07   11.10
   0 -12   6  330.57   11.20
   0 -12   6  317.87   11.40
   1 -12   6   26.70    2.70
  -1 -12  -6   27.90    2.10
   1 -12   6   26.10    2.80
  -1 -12  -6   31.60    2.00
   1 -12   6   29.20    2.70
  -1 -12   6   28.50    2.10
  -1 -12   6   27.20    2.10
   1 -12  -6   28.10    1.90
  -2 -12  -6   40.40    2.40
   2 -12   6   38.70    2.60
  -2 -12  -6   35.70    3.80
  -2 -12  -6   39.90    2.30
   2 -12   6   48.30    2.90
  -2 -12   6   42.60    2.40
   2 -12  -6   42.00    2.60
   2 -12  -6   41.10    2.30
  -2 -12   6   43.90    2.40
   3 -12   6   45.70    2.60
  -3 -12  -6   44.20    2.70
  -3 -12  -6   47.40    2.50
  -3 -12  -6   44.60    3.40
   3 -12   6   49.00    2.90
   3 -12  -6   48.00    2.50
  -3 -12   6   43.90    2.40
  -3 -12   6   44.90    2.50
   4 -12   6   66.39    3.30
  -4 -12  -6   66.99    3.10
  -4 -12  -6   65.29    3.10
   4 -12   6   67.09    3.10
   4 -12  -6   68.79    3.00
   4 -12  -6   62.89    3.00
  -4 -12   6   64.29    3.00
  -4 -12   6   64.09    3.00
   5 -12   6  211.18    7.80
  -5 -12  -6  211.18    7.70
   5 -12   6  222.38    7.60
  -5 -12  -6  222.28    7.60
   5 -12  -6  223.88    7.60
  -5 -12   6  224.58    7.70
  -5 -12   6  218.08    7.70
   5 -12  -6  206.18    7.60
   5  12   6  203.58    7.80
   6 -12   6  101.29    4.00
  -6 -12  -6   90.99    3.80
   6 -12  -6   95.79    4.00
  -6 -12   6   92.99    3.90
   6  12   6   93.89    4.10
   6 -12  -6   92.29    3.80
  -6 -12   6   98.89    3.90
  -7 -12  -6    1.00    0.70
   7 -12   6    1.40    0.80
   7 -12   6    1.30    0.70
  -7 -12  -6    0.50    0.70
   7 -12  -6    0.40    0.80
  -7 -12   6    0.80    0.70
  -7 -12   6    1.20    0.70
   7 -12  -6    1.00    0.60
   8 -12   6   58.19    2.60
  -8 -12  -6   61.89    2.60
  -8 -12  -6   63.69    2.60
   8 -12   6   62.99    2.50
   8  12   6   64.99    3.20
  -8 -12   6   63.29    2.60
  -8 -12   6   63.49    2.50
   8 -12  -6   64.69    2.50
   8 -12  -6   66.69    2.70
   9 -12   6    8.20    0.90
  -9  12   6   11.30    1.00
  -9 -12  -6   10.90    0.90
  -9 -12   6    9.90    1.00
   0 -13   6    0.80    1.30
   0 -13  -6    0.10    1.10
   0 -13   6   -0.60    1.20
   0 -13  -6    0.40    1.30
  -1 -13  -6  125.29    4.80
  -1 -13  -6  120.99    4.80
   1 -13   6  117.89    5.00
   1 -13   6  126.79    5.30
  -1 -13   6  123.89    4.80
   1 -13  -6  121.29    4.80
  -1 -13   6  124.19    4.80
  -2 -13  -6   -0.30    0.90
  -2 -13  -6    0.10    1.00
   2 -13   6    0.30    1.10
   2 -13   6   -0.10    1.40
   2 -13  -6    0.40    1.20
   2 -13  -6   -0.20    0.80
  -2 -13   6    1.80    1.00
  -2 -13   6    0.60    0.90
   3 -13   6    3.00    1.40
  -3 -13  -6    3.70    1.00
  -3 -13  -6    3.80    1.30
   3 -13   6    7.40    1.70
   3 -13  -6    2.00    1.00
   3 -13  -6    2.90    1.00
  -3 -13   6    3.90    1.00
  -3 -13   6    1.60    1.00
  -4 -13  -6    0.80    0.80
  -4 -13  -6    0.10    1.10
   4 -13   6    3.60    1.00
   4 -13   6    0.80    1.10
  -4 -13   6    0.90    0.80
   4 -13  -6   -0.60    0.90
   4 -13  -6    1.60    0.90
  -4 -13   6    1.40    0.90
  -5 -13  -6    1.60    0.80
  -5 -13  -6    1.80    0.90
   5 -13  -6    0.00    0.90
   5  13   6    0.00    1.00
  -5 -13   6    1.40    0.80
  -5 -13   6    1.40    0.80
   6 -13   6   15.30    1.60
   6 -13   6   13.20    1.30
  -6 -13  -6   14.10    1.30
  -6 -13  -6   15.10    1.40
   6 -13  -6   12.20    1.50
   6 -13  -6   12.90    1.20
   6  13   6   13.20    1.90
  -6 -13   6   13.90    1.30
  -6 -13   6   13.60    1.30
  -7 -13  -6   11.90    1.10
  -7 -13  -6   10.50    1.20
   7 -13   6   10.50    1.30
   7 -13   6   11.80    1.10
   7  13   6   11.10    1.90
   7 -13  -6   11.90    1.10
  -7 -13   6   11.90    1.10
  -7 -13   6   10.70    1.20
   7 -13  -6   11.70    1.40
  -8  13   6   22.50    1.50
   8 -13   6   21.80    1.50
  -8 -13  -6   20.60    1.20
  -8 -13   6   18.60    1.20
   8 -13  -6   21.90    1.30
   0 -14   6   19.90    2.10
   0 -14  -6   24.80    2.40
   0 -14  -6   21.00    1.80
   0 -14   6   22.90    2.30
  -1 -14  -6   41.50    2.50
  -1 -14  -6   39.90    2.30
   1 -14  -6   38.00    2.40
  -1 -14   6   45.80    2.40
  -1 -14   6   44.40    2.50
   2 -14   6    1.70    1.10
  -2 -14  -6    1.00    1.00
  -2 -14  -6   -0.40    0.90
   2 -14   6    0.70    1.50
   2 -14  -6    0.60    0.90
  -2 -14   6    0.90    1.00
  -2 -14   6    0.90    0.90
   3 -14   6  129.69    5.80
  -3 -14  -6  111.69    4.40
   3 -14   6  110.69    4.40
  -3 -14  -6  109.99    4.50
   3 -14  -6  106.29    4.40
  -3 -14   6  111.09    4.40
  -3 -14   6  113.19    4.40
  -4 -14  -6  145.89    5.50
   4 -14   6  151.68    5.60
   4 -14   6  148.19    5.40
  -4 -14  -6  152.98    5.50
  -4 -14   6  140.29    5.60
   4 -14  -6  146.59    5.50
  -4 -14   6  154.28    5.50
   4 -14  -6  150.48    5.40
   5 -14   6   89.59    3.60
   5 -14   6   88.39    3.70
  -5 -14  -6   90.29    3.60
  -5 -14  -6   92.79    3.60
  -5 -14   6   91.09    3.60
   5 -14  -6   94.89    3.50
   5 -14  -6   91.29    3.70
  -5 -14   6   90.99    3.60
   5  14   6   88.69    4.20
  -6 -14  -6   76.99    3.10
   6 -14   6   78.99    3.00
  -6 -14  -6   76.89    3.00
   6 -14  -6   76.59    3.20
   6  14   6   76.89    3.50
  -6 -14   6   72.99    3.00
   6 -14  -6   79.59    3.00
  -6 -14   6   79.79    3.10
  -7 -14  -6    0.60    0.80
   7 -14   6    3.40    0.80
  -7 -14  -6    2.90    0.70
   7 -14  -6    2.10    0.50
  -7 -14   6    2.10    0.60
   7 -14  -6    0.90    1.30
  -7 -14   6    2.00    0.60
   0 -15  -6    0.40    1.00
  -1 -15  -6   63.99    2.90
  -1 -15  -6   61.29    3.00
  -1 -15   6   62.69    3.00
  -1 -15   6   61.69    2.90
   1 -15  -6   61.09    3.00
  -2 -15  -6    0.90    0.90
  -2 -15   6    1.20    0.90
   2 -15  -6   -0.70    1.00
  -2 -15   6   -0.10    0.80
   3 -15   6   29.30    1.90
   3 -15   6   25.30    2.30
  -3 -15  -6   28.60    1.80
   3 -15  -6   25.70    1.90
  -3 -15   6   23.20    1.70
   3 -15  -6   26.60    1.90
  -3 -15   6   26.50    1.80
   4 -15   6   20.60    2.00
  -4 -15  -6   21.00    1.50
   4 -15   6   20.00    1.50
  -4 -15  -6   21.70    1.90
   4 -15  -6   23.60    1.50
  -4 -15   6   18.20    1.50
   4 -15  -6   17.20    1.80
  -4 -15   6   21.10    1.50
   4  15   6   21.20    2.10
  -5 -15  -6    0.10    0.60
  -5 -15  -6    0.60    0.90
   5 -15   6    0.90    0.70
   5 -15   6    0.90    0.90
   5 -15  -6    1.70    0.90
  -5 -15   6    0.70    0.70
   5  15   6   -0.50    1.50
   5 -15  -6    1.00    0.60
  -5 -15   6    0.80    0.60
   6 -15   6    1.00    0.50
  -6 -15  -6    1.10    0.50
  -6 -15  -6    1.20    0.80
   6 -15   6    0.80    0.80
  -6 -15   6    0.20    0.50
  -6 -15   6    1.20    0.60
   7 -15   6    9.50    0.90
  -7 -15   6    7.40    0.80
  -7 -15   6    8.10    0.90
   0 -16  -6   41.70    2.50
  -1 -16  -6   13.00    1.70
  -1 -16   6   21.30    2.50
   1 -16  -6   15.40    1.80
  -1 -16   6   14.20    1.60
  -2 -16  -6   11.80    1.40
  -2 -16   6   10.90    1.60
  -2 -16   6   12.10    1.30
   2 -16  -6   11.30    1.60
  -3 -16  -6   -0.10    0.70
  -3 -16   6   -0.30    0.80
  -3 -16   6    0.50    0.70
   3 -16  -6    1.20    1.10
   4 -16   6   54.49    2.60
  -4 -16  -6   60.79    2.50
   4 -16  -6   64.09    2.90
  -4 -16   6   61.79    2.50
  -4 -16   6   69.29    2.60
  -5 -16  -6    0.80    0.50
   5 -16   6   -0.30    0.60
  -5 -16   6    0.20    0.60
  -5 -16   6    0.90    0.50
  -6 -16   6   46.70    1.90
   1 -17  -6   46.00    3.80
  -2 -17  -6    1.90    1.00
  -2 -17   6    2.70    0.90
  -3 -17  -6   12.10    1.20
  -3 -17   6   10.60    1.10
  -3 -17   6   12.00    1.50
  -4 -17  -6    1.60    0.60
  -4 -17   6    0.40    0.60
  -4 -17   6    0.60    1.10
   0   0   7    0.00    0.30
   0   0  -7   -0.50    0.20
   1   0   7   -0.60    0.30
  -1   0  -7   -0.80    0.20
   1   0  -7   -0.60    0.30
  -1   0   7   -0.70    0.30
  -2   0  -7   -0.20    0.30
  -2   0   7   -0.10    0.40
   2   0  -7    0.20    0.40
   2   0   7   -0.10    0.30
  -3   0   7    0.60    0.70
   3   0   7   -1.00    0.30
   3   0   7   -0.40    0.30
   3   0  -7   -0.50    0.50
  -4   0   7    0.50    0.90
   4   0   7   -0.10    0.60
   4   0   7    0.70    0.50
   4   0   7    0.60    0.50
   4   0  -7    0.70    0.80
   4   0  -7    0.80    0.80
   5   0   7   -0.30    0.70
   5   0  -7   -0.20    1.30
   5   0  -7   -0.90    0.80
  -6   0  -7   -0.20    1.20
   6   0  -7    0.40    0.80
   6   0   7    0.30    0.70
  -7   0  -7   -0.50    1.20
   7   0  -7    0.40    0.80
   7   0   7   -0.10    0.80
   8   0   7   -0.80    0.80
  -8   0  -7   -0.50    1.20
   8   0  -7   -0.40    0.90
  -8   0   7    0.80    0.90
  -9   0   7   -2.10    0.80
  -9   0  -7   -0.90    1.20
   9   0  -7   -0.10    0.90
   9   0   7   -0.40    0.80
 -10   0  -7    0.10    1.30
 -10   0   7    1.10    0.80
  10   0   7   -1.20    0.80
  10   0  -7    0.80    1.00
  11   0   7    0.10    0.80
  11   0  -7    1.50    1.50
 -11   0   7    0.30    0.70
   0   1  -7    0.10    0.30
   0   1   7   -0.60    0.30
   0  -1  -7    0.20    0.30
   0  -1   7   -0.30    0.30
  -1  -1  -7   88.49    3.20
  -1   1   7   90.69    3.30
   1   1  -7   91.59    3.30
   1  -1   7   96.89    3.10
  -1   1  -7   87.79    3.10
  -1  -1   7   84.29    3.30
   1  -1  -7   87.99    3.30
   1   1   7   93.09    3.20
   2   1  -7   25.70    1.40
  -2   1   7   25.40    1.50
   2  -1   7   28.70    1.00
  -2  -1  -7   26.40    1.30
   2  -1  -7   23.70    1.40
  -2  -1   7   24.40    1.50
   2   1   7   26.70    1.30
  -2   1  -7   26.20    1.10
   3   1  -7   67.09    2.90
  -3   1   7   68.49    3.00
   3  -1  -7   72.69    2.90
   3   1   7   70.09    2.70
   3   1   7   67.69    2.60
  -3  -1   7   65.49    3.00
   4  -1   7   -0.10    0.70
  -4   1   7   -1.00    1.10
   4   1  -7    1.50    0.90
   4  -1  -7    1.20    0.80
  -4  -1   7    1.70    1.00
   4  -1  -7    0.70    0.70
   4   1   7    1.30    0.70
   4   1   7    0.60    0.70
   4   1   7    0.90    0.70
   5   1  -7    0.10    1.40
   5  -1   7    1.70    0.70
   5   1  -7    1.60    0.80
   5  -1  -7    1.30    1.30
   5   1   7    2.10    0.70
   5  -1  -7    2.20    0.70
   5   1   7    0.80    1.00
  -6  -1  -7    7.30    1.80
   6   1  -7    7.40    1.30
   6  -1   7    6.30    1.20
   6   1   7    6.00    1.20
  -6  -1   7    6.20    1.70
  -6   1  -7    7.50    1.60
   6  -1  -7    7.90    1.20
   7  -1   7    2.60    1.80
  -7  -1  -7    3.30    1.20
   7   1  -7    1.40    0.90
   7  -1   7    0.80    0.80
   7   1   7    5.60    1.20
  -7  -1   7    3.10    1.00
  -7   1  -7    2.20    1.30
   7  -1  -7    3.20    0.90
   8  -1   7   15.30    1.50
   8   1  -7   18.20    1.70
   8  -1   7   18.50    2.70
  -8  -1  -7   18.30    2.10
   8   1   7   21.40    1.70
   8  -1  -7   20.20    1.70
  -8  -1   7   17.90    1.80
  -8   1  -7   17.50    2.50
   9   1  -7    2.50    1.10
  -9  -1  -7    2.60    1.20
   9  -1   7    1.30    0.90
  -9   1   7    2.50    0.90
  -9  -1   7    2.60    0.90
   9   1   7    2.30    0.90
  -9   1  -7    1.40    1.50
   9  -1  -7    1.60    1.00
  10  -1   7   12.50    1.40
  10   1  -7   10.50    1.80
 -10  -1  -7   12.50    1.80
 -10   1   7   13.00    1.40
  10   1   7    9.90    1.40
  10  -1  -7   12.40    1.60
 -10  -1   7    9.60    1.40
  11  -1   7    5.60    1.20
 -11   1   7    4.50    1.10
  11  -1  -7    4.70    1.40
  11   1   7    5.80    1.20
 -11  -1   7    8.20    1.80
   0  -2  -7    0.30    0.30
   0  -2   7    0.40    0.30
   0   2  -7    0.90    0.30
   0   2   7    0.40    0.30
  -1  -2  -7   80.89    3.00
   1  -2   7   84.09    2.80
   1   2  -7   80.39    3.00
  -1   2  -7   77.39    2.70
   1   2   7   80.59    3.00
   1  -2  -7   81.19    3.00
  -1  -2   7   73.59    3.00
   2   2  -7   24.10    1.40
  -2   2   7   27.00    1.50
   2   2   7   25.10    1.40
  -2  -2   7   24.40    1.50
   2  -2  -7   24.20    1.40
  -3   2   7  189.58    6.90
   3  -2  -7  194.58    6.80
   3   2   7  200.08    6.70
   3   2   7  202.28    6.80
  -3  -2   7  182.88    6.90
  -4   2   7   43.00    2.90
   4   2  -7   48.40    2.80
   4  -2   7   48.60    2.10
   4  -2  -7   50.99    2.70
   4   2   7   48.20    2.40
   4   2   7   46.80    2.10
   4  -2  -7   46.70    2.00
   4   2   7   47.90    2.60
  -4  -2   7   42.30    2.90
   5   2  -7   85.09    4.60
   5  -2   7   88.39    3.30
   5   2  -7   83.79    3.40
   5  -2  -7   87.79    3.30
   5  -2  -7   82.19    4.30
   5   2   7   81.99    4.00
   5   2   7   88.59    3.40
   6  -2   7    0.00    0.70
  -6  -2  -7    1.10    1.20
   6   2  -7   -0.80    0.90
   6  -2   7   -1.10    1.60
   6  -2  -7    0.70    0.70
  -6  -2   7    0.40    1.00
   6  -2  -7   -0.10    1.40
  -6   2  -7   -0.80    1.40
   6   2   7    1.80    0.80
   7   2  -7    1.80    1.00
   7  -2   7    1.80    1.50
   7  -2   7   -0.10    0.70
  -7  -2  -7    1.50    1.10
   7  -2  -7   -1.70    1.30
   7  -2  -7   -0.30    0.70
  -7   2  -7   -0.20    1.30
   7   2   7   -0.70    0.80
  -7  -2   7    0.40    1.00
   8   2  -7   91.29    3.70
   8  -2   7   89.69    3.70
   8  -2   7   86.39    4.10
  -8  -2  -7   86.09    3.80
  -8   2  -7   83.69    4.10
  -8  -2   7   80.79    3.60
   8   2   7   93.79    3.80
   8  -2  -7   88.39    3.60
  -9   2   7    4.60    1.00
   9  -2   7    3.10    0.90
  -9  -2  -7    3.30    1.20
   9   2  -7    4.50    1.10
  -9  -2   7    2.90    1.00
   9   2   7    5.40    1.40
   9  -2  -7    3.30    1.00
  10   2  -7    4.00    1.30
 -10  -2  -7    3.70    1.00
 -10   2   7    3.50    0.80
  10  -2   7    3.60    0.90
 -10  -2   7    6.20    1.40
  10  -2  -7    3.60    1.00
  10   2   7    2.80    0.90
 -11   2   7    9.30    1.10
  11  -2   7    8.20    1.30
  11   2   7   10.60    1.30
  11  -2  -7    6.80    1.80
   0  -3  -7   -0.70    0.40
   0   3   7   -0.60    0.40
   0   3  -7   -0.70    0.30
   0  -3   7   -1.30    0.30
   1   3  -7  701.93   22.10
   1  -3   7  707.63   21.80
  -1  -3  -7  643.64   22.10
  -1   3   7  692.03   22.10
   1   3   7  688.63   22.10
  -1   3  -7  692.23   21.80
   1  -3  -7  661.83   22.10
  -1  -3   7  687.63   22.10
  -2   3   7    9.90    1.20
   2   3  -7    9.10    1.10
   2  -3  -7   10.00    1.10
  -2  -3   7   10.70    1.20
   2   3   7   10.50    1.20
  -3   3   7   25.90    2.00
   3   3  -7   27.60    1.90
   3  -3  -7   26.60    1.70
   3  -3  -7   23.60    1.40
  -3  -3   7   27.50    2.10
   3   3   7   27.30    1.70
   3   3   7   26.40    2.00
   4   3  -7    2.50    1.00
   4  -3   7    2.10    0.70
  -4   3   7    1.40    1.20
   4  -3  -7    0.70    0.90
   4  -3  -7    1.20    0.60
   4   3   7    1.50    1.20
   4   3   7    2.60    1.20
   5   3  -7   17.30    2.40
   5   3  -7   16.40    1.70
   5  -3   7   19.10    1.40
   5   3   7   19.80    1.40
   5  -3  -7   19.40    1.30
   5   3   7   20.20    3.00
   5  -3  -7   26.00    3.00
   6  -3   7   12.50    1.30
   6  -3   7   18.20    2.40
   6   3  -7   12.80    1.60
   6  -3   7   11.80    2.50
  -6  -3  -7    8.40    1.80
  -6  -3   7   13.10    2.50
   6  -3  -7   12.50    1.20
  -6  -3   7   10.80    1.80
   6   3   7   12.50    1.40
  -6   3  -7   11.00    2.50
   6  -3  -7    9.30    2.00
   7  -3   7    3.10    1.50
   7  -3   7    2.00    0.90
  -7  -3  -7    3.10    1.10
   7  -3   7    1.20    1.50
   7   3  -7    3.40    1.10
   7  -3  -7    1.10    1.10
  -7  -3   7    0.00    1.00
   7  -3  -7    2.90    0.90
  -7  -3   7    3.20    1.60
  -7   3  -7    1.70    1.50
   7   3   7    2.60    0.90
  -8  -3  -7   11.10    1.80
   8   3  -7   16.60    1.90
   8  -3   7   17.20    1.60
   8  -3   7   14.90    2.30
   8   3   7   15.10    1.60
   8  -3  -7   17.00    1.60
  -8  -3   7   15.90    1.90
   8  -3  -7   12.80    2.10
  -8   3  -7   16.10    3.60
  -9  -3  -7    7.30    1.70
  -9   3   7    8.00    1.40
   9  -3   7    7.50    1.30
   9   3  -7    7.50    1.80
   9   3   7    5.40    1.40
   9  -3  -7    7.70    1.40
  -9  -3   7   11.90    1.80
  10  -3   7   11.90    1.50
 -10  -3  -7   11.40    1.60
 -10   3   7   13.30    1.30
  10  -3  -7   12.30    1.50
  10   3   7   13.50    1.40
 -10  -3   7   14.40    1.70
 -11   3   7    3.30    0.70
  11  -3   7    2.30    0.90
 -11  -3  -7    1.60    1.10
  11   3   7    3.80    1.00
  11  -3  -7    1.30    1.10
   0  -4   7   18.40    1.20
   0  -4  -7   19.10    1.30
   0   4   7   19.70    1.40
   0   4  -7   18.90    1.20
  -1  -4  -7   84.99    3.40
   1   4  -7   81.49    3.30
  -1   4   7   81.29    3.30
   1   4   7   79.79    3.40
  -1  -4   7   85.09    3.30
  -1   4  -7   83.69    3.00
   1  -4  -7   81.09    3.30
  -2  -4  -7   21.00    1.30
   2   4  -7   21.40    1.50
  -2   4   7   22.40    1.70
  -2  -4   7   18.60    1.70
   2   4   7   20.40    1.70
   2  -4  -7   16.90    1.20
   2  -4  -7   21.40    1.60
   3   4  -7    0.30    0.70
  -3  -4  -7   -0.70    0.60
  -3   4   7   -0.30    0.90
  -3  -4   7    0.40    0.90
   3   4   7   -1.20    1.00
   3  -4  -7    0.90    0.60
   3   4   7    0.70    0.80
   3  -4  -7   -0.10    0.80
  -4   4   7    8.40    1.70
   4   4  -7   10.00    2.40
   4  -4   7    7.20    1.20
   4   4   7   10.30    1.90
   4   4   7   12.30    2.20
   4  -4  -7    9.30    2.30
   4  -4  -7   10.70    1.10
   5  -4   7   20.40    2.50
  -5  -4  -7   22.10    2.00
   5   4  -7   17.50    1.90
   5  -4  -7   25.50    3.80
   5  -4  -7   20.90    1.40
   5  -4  -7   20.40    2.00
   5   4   7   23.90    3.90
   5  -4  -7   20.10    2.30
   5   4   7   20.80    1.50
  -6  -4  -7   94.99    3.80
   6   4  -7   90.09    3.70
   6  -4   7   97.39    4.20
   6  -4   7   83.79    4.00
  -6  -4  -7   83.29    4.10
   6  -4   7   94.09    3.60
   6  -4  -7   85.49    3.70
  -6  -4   7   85.89    4.10
  -6  -4   7   86.69    4.00
   6  -4  -7   93.49    3.60
  -6   4  -7   82.49    4.30
   6   4   7   93.69    3.70
  -6  -4   7   88.59    3.80
   7  -4   7    1.00    1.20
  -7  -4  -7    0.20    1.00
   7  -4   7    1.70    0.90
   7   4  -7    1.40    1.20
   7  -4   7   -0.20    1.80
  -7  -4   7    1.40    1.40
   7  -4  -7    1.20    1.40
  -7  -4   7    3.10    1.40
   7  -4  -7    0.80    0.80
   7   4   7   -0.30    0.80
   8  -4   7   57.49    3.10
   8  -4   7   58.39    3.00
   8   4  -7   57.29    3.00
  -8  -4  -7   57.89    2.90
   8  -4   7   55.39    3.20
   8   4   7   61.49    3.70
  -8  -4   7   52.19    3.10
   8  -4  -7   55.29    2.90
  -8  -4   7   58.29    2.90
   9   4  -7   45.20    2.80
  -9  -4  -7   50.99    2.60
   9  -4   7   52.79    2.90
   9  -4   7   49.00    2.50
  -9  -4   7   51.29    2.60
   9  -4  -7   50.39    2.70
   9   4   7   44.70    2.50
   9  -4  -7   45.90    2.50
 -10  -4  -7   19.30    1.60
  10  -4   7   15.20    1.50
 -10   4   7   17.70    1.40
  10   4   7   17.00    1.60
  10  -4  -7   14.70    1.70
 -11   4   7    7.70    1.00
 -11  -4  -7    5.80    1.40
  11  -4   7    9.40    1.40
  11  -4  -7    6.00    1.60
  11   4   7    9.00    1.40
   0  -5  -7   -0.70    0.60
   0   5   7    0.40    0.70
   0   5  -7   -0.10    0.50
  -1  -5  -7   13.90    1.10
   1   5  -7   14.40    1.40
  -1   5   7   16.40    1.70
   1   5   7   11.80    1.80
  -1   5  -7   15.30    1.10
   1  -5  -7   18.80    1.60
  -1  -5   7   15.40    1.60
  -2  -5  -7   39.70    1.80
  -2   5   7   40.10    2.50
   2   5  -7   38.30    2.40
   2   5   7   32.80    2.50
  -2   5  -7   38.70    1.50
  -2   5  -7   38.90    1.50
  -2  -5   7   36.70    2.40
   2  -5  -7   40.00    1.80
   2  -5  -7   39.90    2.20
  -3   5   7   62.69    3.60
  -3  -5  -7   61.89    2.50
   3  -5   7   59.69    2.60
   3   5  -7   66.09    3.40
   3   5   7   62.09    3.30
   3   5   7   54.69    3.70
   3  -5  -7   61.59    2.50
   3  -5  -7   57.69    3.10
   4  -5   7  254.67    8.40
   4   5  -7  249.97    9.60
   4  -5  -7  248.88    8.40
   4   5   7  250.67    9.40
   4  -5  -7  244.48    9.20
   5  -5   7  310.97   11.00
  -5  -5  -7  319.77   10.80
   5   5  -7  301.67   10.60
   5  -5   7  312.47   10.80
   5  -5   7  326.57   10.60
  -5  -5  -7  310.57   10.70
   5  -5  -7  316.17   10.60
   5   5   7  332.57   10.80
   5  -5  -7  297.87   12.00
  -5  -5   7  308.27   10.70
  -5  -5   7  310.47   10.70
  -5  -5   7  310.77   10.80
   5   5   7  366.86   13.50
   5  -5  -7  311.07   10.80
   5  -5  -7  319.17   10.70
   6  -5   7   43.00    2.70
   6   5  -7   45.00    2.60
  -6  -5  -7   44.90    2.80
  -6  -5  -7   45.10    2.50
   6  -5   7   45.50    2.90
   6  -5   7   47.00    2.30
  -6  -5   7   44.70    2.80
   6  -5  -7   51.09    2.50
   6   5   7   45.50    2.40
  -6  -5   7   47.10    2.60
   6  -5  -7   46.70    2.30
  -6  -5   7   43.40    2.80
  -7  -5  -7  576.54   18.40
   7   5  -7  570.44   18.30
   7  -5   7  574.04   18.60
   7  -5   7  561.54   18.40
   7  -5   7  563.84   18.30
  -7  -5  -7  480.35   19.10
   7  -5  -7  565.24   18.30
  -7  -5   7  547.55   18.30
  -7  -5   7  552.54   18.30
   7  -5  -7  577.24   18.40
   8  -5   7    2.20    1.00
   8  -5   7    0.90    1.10
   8   5  -7    4.40    1.50
  -8  -5  -7    3.20    1.00
   8  -5   7    1.70    1.20
   8   5   7    0.70    1.00
  -8  -5   7    2.50    1.20
  -8  -5   7    2.00    1.30
   8  -5  -7    1.30    0.90
   8  -5  -7    1.20    1.10
  -9  -5  -7   21.20    1.80
   9  -5   7   16.10    1.70
   9  -5   7   25.00    2.20
   9  -5  -7   24.00    2.00
   9  -5  -7   19.40    1.70
   9   5   7   20.20    1.80
 -10   5   7    2.60    0.70
 -10  -5  -7    1.90    0.80
  10  -5  -7    3.60    1.00
  10   5   7    1.70    0.90
 -11   5   7    0.40    0.50
 -11  -5  -7   -0.10    0.80
  11   5   7   -0.80    1.00
 -11   5  -7    0.40    1.00
   0  -6  -7  459.95   15.40
   0   6  -7  472.55   15.20
   0  -6  -7  445.06   14.80
   0   6   7  453.25   15.50
  -1  -6  -7    9.10    1.10
   1   6  -7   13.60    1.70
  -1   6   7    8.20    2.00
   1  -6  -7    6.30    1.70
  -1   6  -7    9.00    1.30
   1  -6  -7    8.50    1.00
   1   6   7    7.80    2.30
  -2   6   7  179.28    7.30
  -2  -6  -7  193.48    6.50
   2   6  -7  192.78    7.20
  -2   6  -7  186.78    6.40
  -2   6  -7  191.88    6.40
   2  -6  -7  199.38    6.50
   2  -6  -7  187.18    7.10
   3   6  -7   30.10    2.90
  -3  -6  -7   31.80    1.70
   3  -6   7   30.50    1.80
   3   6   7   34.70    3.00
   3  -6  -7   31.30    1.60
   3  -6  -7   28.50    2.80
  -4  -6  -7    7.30    1.70
   4  -6   7   11.00    1.90
  -4  -6  -7    8.70    1.90
   4  -6   7   10.50    1.30
   4  -6   7    9.00    2.10
   4  -6  -7   12.90    1.20
  -4  -6   7    7.00    1.80
   4  -6  -7    8.30    2.10
   4   6   7    7.40    2.10
  -4  -6   7    9.40    1.70
   4  -6  -7    9.00    1.70
   5  -6   7  105.79    4.50
  -5  -6  -7  100.99    4.10
  -5  -6  -7  102.89    4.10
   5  -6   7  103.39    3.90
   5  -6   7  105.59    4.20
  -5  -6   7   95.29    4.30
  -5  -6   7   94.69    4.10
  -5  -6   7  101.89    4.10
   5  -6  -7  103.59    4.40
   5  -6  -7   97.89    4.00
   5  -6  -7  101.09    3.90
  -6  -6  -7   27.40    2.10
   6  -6   7   30.40    2.50
   6  -6   7   32.20    1.90
  -6  -6  -7   32.30    2.30
   6  -6   7   29.80    2.20
   6  -6  -7   33.50    2.40
  -6  -6   7   25.70    2.20
  -6  -6   7   28.60    2.60
   6  -6  -7   29.10    1.80
  -6  -6   7   29.40    2.20
   6   6   7   30.20    2.00
   6  -6  -7   31.20    2.10
  -7  -6  -7    1.10    1.20
   7  -6   7    1.00    1.20
  -7  -6  -7   -0.60    0.90
   7  -6   7    2.10    1.10
   7  -6   7    1.70    0.90
   7   6   7   -0.40    1.00
  -7  -6   7    2.80    1.10
  -7  -6   7    1.10    1.20
  -7  -6   7    1.90    1.50
   7  -6  -7    1.40    1.00
   7  -6  -7    0.40    0.80
  -8  -6  -7    1.30    1.00
  -8  -6  -7    1.60    1.40
   8  -6   7    1.70    0.90
   8  -6   7    0.30    1.00
   8  -6   7   -1.10    1.20
  -8  -6   7    1.30    1.50
   8   6   7    1.70    1.00
  -8  -6   7    1.30    1.00
   8  -6  -7    1.40    0.90
   8  -6  -7    0.00    0.90
   9  -6   7   45.50    2.60
   9  -6   7   46.20    2.40
   9   6   7   45.80    2.50
  -9  -6   7   45.70    2.50
   9  -6  -7   43.30    2.40
   9  -6  -7   44.70    2.30
 -10   6   7   88.29    3.50
  10  -6   7   90.09    3.60
 -10  -6  -7   90.49    3.50
  10   6   7   88.49    3.70
  10  -6  -7   92.39    3.70
 -11  -6  -7   17.60    1.40
 -11   6   7   19.80    1.10
 -11   6  -7   17.00    1.50
   0   7  -7    1.10    1.50
   0   7  -7   -1.00    1.00
   0  -7  -7    0.10    0.60
   1   7  -7  377.66   12.80
  -1  -7  -7  365.36   12.10
  -1   7  -7  367.96   12.40
   1  -7  -7  377.26   12.90
   1  -7  -7  373.16   12.10
  -1   7  -7  352.96   12.50
  -2  -7  -7  537.45   18.10
   2   7  -7  570.74   19.00
  -2   7  -7  574.84   18.10
  -2   7  -7  548.45   18.30
   2  -7  -7  546.55   18.90
   2  -7  -7  571.64   18.10
   3  -7   7    0.70    1.10
  -3  -7  -7    1.60    1.10
   3  -7   7    2.30    1.30
  -3  -7  -7    0.10    0.70
   3  -7   7    1.10    1.00
  -3  -7   7    2.00    1.10
  -3  -7   7   -0.60    1.10
   3  -7  -7    1.50    0.60
   3  -7  -7    1.50    1.80
   3   7   7   -1.60    2.60
   3  -7  -7    2.40    1.90
  -4  -7  -7   57.39    2.80
   4  -7   7   57.39    3.10
   4  -7   7   52.39    2.70
   4  -7   7   59.69    2.90
  -4  -7  -7   55.49    2.90
  -4  -7   7   59.79    2.80
   4  -7  -7   57.09    2.80
   4  -7  -7   61.59    2.60
   4  -7  -7   47.30    5.70
   4  -7  -7   53.19    3.40
  -4  -7   7   56.19    2.80
   5  -7   7  255.17    9.10
  -5  -7  -7  261.07    8.90
  -5  -7  -7  254.17    8.90
   5  -7   7  254.37    8.90
   5  -7   7  248.88    8.70
  -5  -7   7  252.67    8.80
   5  -7  -7  254.87    8.80
  -5  -7   7  259.37    8.90
   5  -7  -7  259.47    9.10
   5  -7  -7  259.77    8.80
  -5  -7   7  247.58    9.00
  -6  -7  -7  308.77   10.70
   6  -7   7  312.57   11.00
   6  -7   7  323.47   10.60
   6  -7   7  317.97   10.70
  -6  -7  -7  307.97   10.70
   6  -7  -7  311.37   10.60
   6  -7  -7  319.17   10.70
  -6  -7   7  313.77   10.70
  -6  -7   7  302.97   10.60
   6   7   7  313.77   10.90
   6  -7  -7  301.47   10.80
   7  -7   7  496.55   16.00
   7  -7   7  487.45   16.20
  -7  -7  -7  481.15   16.00
  -7  -7  -7  470.85   16.00
  -7  -7   7  470.15   15.90
   7  -7  -7  469.95   15.90
  -7  -7   7  483.35   16.00
   8  -7   7    2.40    1.00
   8  -7   7    2.30    1.10
  -8  -7  -7    0.80    1.20
   8  -7   7    1.10    1.00
  -8  -7  -7    1.40    0.90
   8  -7  -7    1.10    0.90
   8  -7  -7    0.50    0.90
   8   7   7    2.80    1.10
  -8  -7   7    4.00    1.10
  -8  -7   7    2.90    1.30
   9  -7   7    5.40    1.00
  -9  -7  -7    7.00    1.30
   9  -7   7    4.50    1.10
   9  -7   7    5.80    1.10
   9  -7  -7    5.10    1.30
   9  -7  -7    6.00    1.40
   9   7   7    4.50    1.10
  -9  -7   7    6.10    1.50
 -10   7   7   10.80    1.10
  10  -7   7   11.50    1.70
 -10  -7  -7   15.20    1.30
  10   7   7   11.70    1.50
  10  -7  -7    8.00    1.40
 -11  -7  -7   -0.10    0.70
 -11   7   7    0.60    0.50
   0  -8  -7   84.99    3.40
   0   8  -7   81.59    5.10
   0   8  -7   88.59    4.50
  -1  -8  -7    5.40    1.30
   1   8  -7    3.20    1.70
  -1   8  -7    4.60    1.60
  -1   8  -7    5.20    2.40
  -2  -8  -7  410.06   13.40
  -2  -8  -7  416.96   13.30
   2   8  -7  392.26   14.50
   2  -8   7  380.16   13.40
   2  -8   7  418.66   13.60
   2  -8  -7  384.26   14.40
  -2  -8   7  400.66   13.40
   2  -8  -7  405.96   13.20
  -2  -8   7  389.96   13.30
   3  -8   7    6.20    1.60
  -3  -8  -7    8.60    1.30
  -3  -8  -7    8.80    2.00
  -3  -8  -7    8.70    1.60
   3  -8   7   10.10    1.80
   3  -8   7   10.40    1.70
  -3  -8   7    7.80    1.60
   3  -8  -7   10.60    1.70
  -3  -8   7    8.90    1.60
   3  -8  -7    8.70    1.10
  -4  -8  -7    6.90    1.70
   4  -8   7    5.80    1.20
  -4  -8  -7    4.30    1.00
   4  -8   7    6.30    1.40
   4  -8   7    6.40    1.20
   4  -8  -7    5.70    1.10
   4  -8  -7    8.50    1.80
   4  -8  -7    4.80    1.10
  -4  -8   7    6.90    1.50
  -4  -8   7    8.60    1.50
   5  -8   7   11.50    1.90
   5  -8   7   12.40    1.60
  -5  -8  -7   13.50    1.70
  -5  -8  -7   12.50    1.70
   5  -8   7   13.00    2.70
   5  -8  -7    9.90    2.00
   5  -8  -7   12.00    2.30
  -5  -8   7   13.00    1.60
  -5  -8   7   12.10    1.60
   5  -8  -7   14.90    1.50
  -6  -8  -7   54.09    2.90
  -6  -8  -7   55.79    2.80
   6  -8   7   53.79    2.70
   6  -8   7   54.99    3.10
   6  -8   7   58.39    2.90
  -6  -8   7   54.09    2.70
   6  -8  -7   60.09    2.80
   6   8   7   52.99    2.90
   6  -8  -7   56.49    2.70
   6  -8  -7   56.19    3.00
  -6  -8   7   58.09    2.90
  -7  -8  -7   27.20    2.10
   7  -8   7   25.60    2.00
   7  -8   7   26.10    2.30
  -7  -8  -7   28.60    2.00
   7  -8   7   25.50    2.00
  -7  -8   7   24.60    2.00
   7  -8  -7   25.00    1.90
   7  -8  -7   25.40    1.90
  -7  -8   7   27.80    2.10
   7   8   7   23.40    2.10
   8  -8   7   45.70    2.70
  -8  -8  -7   47.40    2.40
  -8  -8  -7   47.40    2.60
   8  -8   7   49.30    2.50
   8  -8   7   45.70    2.60
   8  -8  -7   42.30    2.40
  -8  -8   7   47.50    2.40
  -8  -8   7   48.50    2.60
   8  -8  -7   49.10    2.40
   8   8   7   46.40    2.60
   9  -8   7  114.19    4.30
   9  -8   7  115.19    4.70
  -9  -8  -7  112.59    4.30
   9  -8   7  112.29    4.50
   9   8   7  113.79    4.60
   9  -8  -7  111.49    4.40
   9  -8  -7  115.59    4.20
  -9  -8   7  116.39    4.30
  10  -8   7    1.60    1.10
 -10  -8  -7    2.50    0.60
 -10   8   7    3.20    0.60
  10  -8  -7    4.50    1.00
  10   8   7    2.30    1.10
 -10  -8   7    4.60    1.10
   0  -9  -7    0.40    0.70
   0  -9   7    1.30    1.20
   0  -9   7   -0.60    1.40
   0   9  -7   -0.50    2.30
   0  -9   7    1.30    1.60
   1  -9   7  653.73   22.40
   1  -9   7  663.93   22.50
  -1  -9  -7  715.03   22.50
  -1  -9  -7  716.93   22.30
   1  -9   7  664.33   22.40
  -1  -9   7  691.53   22.40
  -1  -9   7  702.93   22.40
   1  -9  -7  700.73   22.30
  -2  -9  -7   61.19    2.70
   2  -9   7   63.69    3.30
   2  -9   7   60.99    3.10
  -2  -9  -7   64.79    3.00
  -2  -9  -7   55.59    3.40
   2  -9   7   58.19    3.60
   2  -9  -7   66.39    2.70
  -2  -9   7   58.39    3.80
  -2  -9   7   61.49    2.90
   2  -9  -7   62.59    3.10
  -2  -9   7   64.99    2.90
  -3  -9  -7  186.58    6.50
   3  -9   7  168.68    6.30
  -3  -9  -7  171.78    6.50
  -3  -9  -7  174.98    6.40
   3  -9   7  175.58    6.70
   3  -9   7  179.88    6.50
  -3  -9   7  183.78    6.50
   3  -9  -7  179.78    6.40
  -3  -9   7  182.58    6.40
   3  -9  -7  176.28    6.30
  -4  -9  -7    1.20    1.00
   4  -9   7    1.10    1.00
  -4  -9  -7   -0.50    0.90
   4  -9   7    0.20    1.10
   4  -9   7    1.90    1.30
   4  -9  -7    0.20    0.90
   4  -9  -7   -1.20    1.60
   4  -9  -7    0.80    0.80
  -4  -9   7   -0.80    0.90
  -4  -9   7    0.10    0.90
   5  -9   7  125.49    5.20
   5  -9   7  128.39    5.00
  -5  -9  -7  132.49    5.10
  -5  -9  -7  125.09    5.00
   5  -9   7  128.79    4.90
   5  -9  -7  125.89    5.20
  -5  -9   7  133.89    5.00
   5  -9  -7  128.59    4.90
   5  -9  -7  130.79    4.90
  -5  -9   7  128.29    5.00
  -6  -9  -7    2.90    1.00
   6  -9   7    4.10    1.20
   6  -9   7    3.10    1.00
  -6  -9  -7    5.60    1.10
  -6  -9   7    5.10    1.10
  -6  -9   7    3.00    1.00
   6  -9  -7    3.20    0.90
   6  -9  -7    1.80    1.40
  -7  -9  -7  137.59    5.00
   7  -9   7  140.39    5.00
  -7  -9  -7  132.29    5.00
   7  -9   7  130.79    5.30
   7  -9   7  121.59    5.00
  -7  -9   7  131.49    5.00
   7  -9  -7  121.69    5.00
  -7  -9   7  132.79    5.00
   7   9   7  118.29    5.20
   7  -9  -7  131.39    4.90
  -8  -9  -7    4.40    1.00
   8  -9   7    4.30    1.50
   8  -9   7    8.00    1.30
   8  -9   7    8.40    1.80
  -8  -9  -7    3.50    1.20
  -8  -9   7    7.20    1.50
   8  -9  -7    5.40    1.30
   8  -9  -7    6.00    1.20
  -8  -9   7    5.50    1.30
   8   9   7    7.50    1.60
   9  -9   7   10.30    1.20
   9  -9   7   10.60    1.40
   9  -9   7   14.00    1.80
  -9  -9  -7    7.90    1.70
  -9  -9  -7   10.60    1.20
  -9  -9   7    9.50    1.30
   9  -9  -7    8.40    1.20
   9  -9  -7    9.40    1.30
   9   9   7   13.40    1.60
  10  -9   7   -0.40    0.90
 -10  -9   7    2.30    1.00
   0 -10   7   -1.20    1.30
   0 -10  -7    0.40    1.40
   0 -10   7    2.30    1.20
   0 -10  -7    2.30    0.80
   0 -10   7    1.80    1.60
   1 -10   7   53.59    3.10
   1 -10   7   51.19    3.10
  -1 -10  -7   52.69    2.50
  -1 -10  -7   53.09    2.80
   1 -10   7   50.29    3.00
  -1 -10   7   51.49    3.50
   1 -10  -7   49.40    3.10
   1 -10  -7   51.79    2.40
  -1 -10   7   51.39    2.70
  -1 -10   7   55.19    2.70
  -2 -10  -7    7.40    1.20
  -2 -10  -7    9.90    1.30
  -2 -10  -7    9.00    1.70
   2 -10   7    8.00    1.80
   2 -10   7   10.10    2.20
   2 -10   7    9.30    1.40
   2 -10  -7    7.10    1.20
  -2 -10   7    7.40    1.60
   2 -10  -7   11.90    2.00
  -2 -10   7    7.60    1.60
  -2 -10   7   10.20    2.20
   3 -10   7  123.09    5.10
   3 -10   7  121.79    4.90
  -3 -10  -7  127.69    4.90
  -3 -10  -7  123.29    4.90
  -3 -10  -7  130.59    4.90
  -3 -10   7  123.09    4.80
   3 -10  -7  117.19    4.80
   3 -10  -7  132.39    4.80
  -3 -10   7  123.09    4.90
   4 -10   7  167.58    6.10
  -4 -10  -7  167.08    6.20
   4 -10   7  160.98    6.40
   4 -10   7  167.28    6.20
  -4 -10  -7  167.48    6.20
   4 -10  -7  175.28    6.10
  -4 -10   7  157.88    6.20
   4 -10  -7  178.78    6.20
  -4 -10   7  166.38    6.10
  -5 -10  -7   43.40    2.50
   5 -10   7   43.70    2.50
   5 -10   7   44.80    2.60
   5 -10   7   43.30    2.80
  -5 -10  -7   48.50    2.60
  -5 -10   7   45.70    2.50
   5 -10  -7   44.40    3.00
  -5 -10   7   44.60    2.40
   5 -10  -7   43.50    2.40
   5 -10  -7   49.10    2.50
  -6 -10  -7   22.90    1.80
   6 -10   7   22.60    2.10
   6 -10   7   20.60    2.00
   6 -10   7   21.30    1.80
  -6 -10  -7   21.00    1.80
  -6 -10   7   23.60    1.80
  -6 -10   7   24.60    1.80
   6 -10  -7   19.30    1.80
   6  10   7   23.80    2.00
   6 -10  -7   24.30    1.80
  -7 -10  -7    9.90    1.40
   7 -10   7    8.90    1.90
   7 -10   7   11.60    1.70
  -7 -10  -7   10.60    1.50
   7 -10   7    9.20    1.40
  -7 -10   7    8.80    1.40
  -7 -10   7   12.20    1.40
   7 -10  -7    9.50    1.40
   7 -10  -7   10.40    1.40
   7  10   7    6.70    1.70
  -8 -10  -7    1.10    0.70
   8 -10   7    2.20    0.90
  -8 -10  -7    1.30    0.80
   8 -10   7    0.10    1.30
   8 -10   7    0.90    0.70
  -8 -10   7    1.40    0.80
   8 -10  -7    1.70    0.70
   8  10   7    0.40    1.00
   8 -10  -7    0.90    0.80
  -8 -10   7    1.90    0.70
  -9  10   7   61.39    2.50
   9 -10   7   54.69    2.50
   9 -10   7   61.49    2.40
  -9 -10  -7   61.29    2.50
  -9 -10  -7   56.89    2.60
   9 -10  -7   59.49    2.60
   9 -10  -7   59.19    2.40
  -9 -10   7   56.99    2.40
   9  10   7   61.59    2.90
 -10  10   7    3.10    0.80
 -10 -10  -7    2.10    0.50
   0 -11   7    1.50    1.20
   0 -11  -7    1.60    1.30
   0 -11  -7   -0.10    0.80
   0 -11   7   -0.40    1.40
   0 -11   7   -0.40    1.30
  -1 -11  -7  141.09    5.10
   1 -11   7  130.59    5.30
  -1 -11  -7  142.49    5.30
   1 -11   7  131.19    5.40
   1 -11   7  131.19    5.40
   1 -11  -7  141.39    5.10
  -1 -11   7  130.79    5.70
  -1 -11   7  135.99    5.20
   1 -11  -7  132.09    5.50
  -1 -11   7  139.99    5.20
  -2 -11  -7   19.50    1.70
  -2 -11  -7   20.00    2.60
   2 -11   7   22.50    2.80
  -2 -11  -7   21.30    1.90
   2 -11   7   15.30    2.90
  -2 -11   7   19.90    1.70
   2 -11  -7   20.90    1.60
  -2 -11   7   15.70    1.70
   2 -11  -7   18.10    2.30
  -3 -11  -7  146.39    5.50
   3 -11   7  138.19    5.40
  -3 -11  -7  142.49    5.50
   3 -11   7  139.49    5.60
  -3 -11  -7  143.89    5.40
   3 -11  -7  136.89    5.30
  -3 -11   7  142.99    5.40
  -3 -11   7  140.49    5.40
   3 -11  -7  148.29    5.40
  -4 -11  -7   77.09    3.40
  -4 -11  -7   74.89    3.40
   4 -11   7   72.29    3.60
   4 -11   7   73.39    3.40
   4 -11  -7   74.79    3.30
  -4 -11   7   72.59    3.30
  -4 -11   7   77.19    3.40
   4 -11  -7   80.39    3.30
   5 -11   7  147.09    6.50
   5 -11   7  139.19    5.70
  -5 -11  -7  151.28    5.50
  -5 -11  -7  146.69    5.60
   5 -11   7  149.49    5.60
   5 -11  -7  144.89    5.40
  -5 -11   7  149.19    5.50
  -5 -11   7  149.49    5.60
   5 -11  -7  139.09    5.50
   6 -11   7    4.60    1.40
  -6 -11  -7    2.80    0.90
   6 -11   7    4.60    1.20
  -6 -11  -7    6.60    1.50
   6 -11   7    5.70    1.40
   6 -11  -7    5.60    1.30
   6 -11  -7    3.60    0.80
   6  11   7    6.70    1.30
  -6 -11   7    8.20    1.40
  -6 -11   7    3.20    0.90
  -7 -11  -7   20.80    1.60
  -7 -11  -7   20.50    1.60
   7 -11   7   20.90    1.60
   7 -11   7   20.20    1.80
   7  11   7   19.30    1.90
  -7 -11   7   21.50    1.60
  -7 -11   7   20.10    1.60
   7 -11  -7   20.10    1.50
   7 -11  -7   20.10    1.60
  -8 -11  -7   11.30    1.20
   8 -11   7   12.10    1.30
   8 -11   7   10.80    1.20
  -8 -11  -7   11.10    1.30
  -8 -11   7   12.90    1.20
   8 -11  -7    8.60    1.30
   8 -11  -7   10.30    1.10
   8  11   7   12.20    1.80
  -8 -11   7    8.90    1.20
   9 -11   7   16.50    1.40
  -9 -11  -7   15.60    1.10
  -9  11   7   14.40    1.10
  -9 -11  -7   14.90    1.60
  -9 -11   7   17.70    1.20
   9 -11  -7   16.00    1.00
   9 -11  -7   12.20    1.50
   0 -12  -7    1.00    0.90
   0 -12  -7   -1.00    1.30
   0 -12   7   -0.10    1.50
   0 -12   7    0.20    1.30
   0 -12   7    0.70    1.20
   1 -12   7   30.50    2.60
  -1 -12  -7   30.40    2.20
   1 -12   7   29.80    2.60
  -1 -12  -7   28.90    2.00
   1 -12   7   34.50    2.80
  -1 -12   7   31.00    2.10
  -1 -12   7   35.70    2.20
   1 -12  -7   33.30    2.00
   2 -12   7   -1.40    1.10
   2 -12   7    0.50    1.30
  -2 -12  -7    0.00    0.90
  -2 -12  -7    0.10    0.90
   2 -12  -7    0.30    1.20
  -2 -12   7    0.60    1.00
  -2 -12   7    1.00    1.00
   2 -12  -7    0.10    0.90
  -3 -12  -7   50.79    2.80
  -3 -12  -7   51.89    2.70
   3 -12   7   50.39    3.00
   3 -12   7   57.29    2.70
   3 -12  -7   50.09    2.70
   3 -12  -7   42.90    3.20
  -3 -12   7   51.69    2.60
  -3 -12   7   49.80    2.60
   4 -12   7   21.90    2.10
  -4 -12  -7   24.10    1.90
   4 -12   7   16.80    1.90
  -4 -12  -7   20.40    1.70
   4 -12  -7   20.40    1.80
  -4 -12   7   21.80    1.80
   4 -12  -7   20.10    1.70
  -4 -12   7   23.50    1.80
   5 -12   7  106.59    4.50
   5 -12   7  109.09    4.30
  -5 -12  -7  110.79    4.30
  -5 -12  -7  106.89    4.40
  -5 -12   7  112.69    4.40
   5 -12  -7  105.39    4.30
   5 -12  -7  110.19    4.20
  -5 -12   7  113.49    4.30
   6 -12   7    2.10    1.60
  -6 -12  -7    1.00    0.80
   6 -12  -7    1.70    0.90
   6  12   7    3.50    1.10
   7 -12   7    0.40    0.60
  -7 -12  -7    0.30    0.70
  -7 -12  -7    0.60    0.70
   7 -12   7    1.80    0.80
  -7 -12   7    0.10    0.70
   7 -12  -7    0.90    0.60
  -7 -12   7   -0.10    0.70
   7 -12  -7    2.70    0.90
   7  12   7    0.40    1.60
   8 -12   7   17.80    1.40
  -8  12   7   17.20    1.40
  -8 -12  -7   17.10    1.20
   8 -12   7   17.80    1.20
  -8 -12  -7   18.10    1.30
  -8 -12   7   19.10    1.20
   8 -12  -7   20.90    1.50
   8 -12  -7   17.60    1.10
   8  12   7   18.30    2.00
  -8 -12   7   17.40    1.30
  -9 -12  -7   49.30    2.00
  -9 -12   7   54.89    2.10
   0 -13  -7    0.00    0.90
   0 -13   7    0.10    1.20
   0 -13   7    1.60    1.30
   0 -13   7   -1.30    1.70
   0 -13  -7    2.10    1.40
   1 -13   7   49.70    3.20
   1 -13   7   52.79    3.30
  -1 -13  -7   57.09    2.80
  -1 -13  -7   50.59    2.70
   1 -13   7   52.89    3.10
  -1 -13   7   57.59    2.70
   1 -13  -7   52.09    2.70
  -1 -13   7   55.29    2.80
  -2 -13  -7  122.59    4.80
  -2 -13  -7  117.79    4.90
   2 -13   7  127.59    4.90
   2 -13   7  122.59    5.10
   2 -13  -7  128.89    4.80
   2 -13  -7  120.69    4.80
  -2 -13   7  123.29    4.80
  -2 -13   7  127.09    4.80
  -3 -13  -7   25.20    2.40
   3 -13   7   29.90    2.50
   3 -13   7   31.30    2.20
  -3 -13  -7   31.30    2.00
  -3 -13   7   28.80    1.90
   3 -13  -7   31.00    2.00
   3 -13  -7   23.30    1.90
  -3 -13   7   26.60    2.00
  -4 -13  -7   15.30    1.90
   4 -13   7   18.20    1.60
   4 -13   7   17.60    2.00
  -4 -13  -7   13.80    1.50
   4 -13  -7   20.00    1.60
  -4 -13   7   14.30    1.60
  -4 -13   7   15.30    1.60
   4 -13  -7   12.50    1.60
   5 -13   7   29.80    2.60
  -5 -13  -7   33.30    2.00
   5 -13   7   33.90    2.20
   5 -13  -7   31.40    2.00
   5 -13  -7   32.00    2.00
   5  13   7   34.00    2.30
  -6 -13  -7   33.90    1.90
   6 -13   7   34.40    1.80
   6 -13   7   33.60    2.10
  -6 -13  -7   34.30    1.90
  -6 -13   7   36.00    1.90
   6 -13  -7   35.60    1.80
   6  13   7   32.30    2.30
  -6 -13   7   35.20    1.90
   6 -13  -7   36.30    2.00
  -7 -13  -7   18.10    1.30
  -7 -13  -7   16.30    1.20
   7 -13   7   18.00    1.20
   7 -13   7   16.70    1.40
   7 -13  -7   16.60    1.20
  -7 -13   7   17.70    1.20
   7 -13  -7   16.90    1.50
   7  13   7   15.70    1.90
  -7 -13   7   16.80    1.20
   8 -13   7    8.80    1.00
  -8 -13  -7    9.50    0.90
  -8 -13  -7    9.10    0.90
   8 -13   7    7.70    0.90
  -8 -13   7    8.90    0.90
   8 -13  -7    9.00    0.90
  -8 -13   7    8.20    1.00
   0 -14  -7   68.59    3.20
   0 -14  -7   76.39    3.50
   0 -14   7   74.09    3.40
   0 -14   7   69.79    3.40
  -1 -14  -7  125.99    5.10
   1 -14   7  138.09    5.50
  -1 -14  -7  141.09    5.20
   1 -14  -7  125.49    5.10
  -1 -14   7  135.19    5.10
  -1 -14   7  140.59    5.10
   2 -14   7    2.90    1.40
  -2 -14  -7    0.50    1.00
  -2 -14  -7   -0.10    0.90
   2 -14   7   -0.60    1.10
   2 -14  -7    0.10    0.90
  -2 -14   7    1.10    0.90
  -2 -14   7    2.10    1.00
  -3 -14  -7   26.30    1.80
  -3 -14   7   22.70    1.80
  -3 -14   7   21.90    1.70
   3 -14  -7   16.70    2.20
   3 -14  -7   21.70    1.70
   4 -14   7    0.50    1.00
   4 -14   7    1.40    0.80
  -4 -14  -7    0.80    1.10
  -4 -14  -7    1.90    0.80
  -4 -14   7    2.00    0.80
   4 -14  -7    0.00    0.80
   4 -14  -7    0.50    0.90
  -4 -14   7    0.10    0.70
  -5 -14  -7   20.80    1.70
  -5 -14  -7   19.20    1.40
   5 -14   7   18.00    1.80
   5 -14   7   23.00    1.50
   5 -14  -7   21.10    1.70
  -5 -14   7   20.30    1.50
   5 -14  -7   19.70    1.50
  -5 -14   7   19.30    1.40
   6 -14   7    1.70    0.60
   6 -14   7    2.40    0.80
  -6 -14  -7    1.60    0.80
  -6 -14  -7    1.80    0.60
   6 -14  -7    1.90    0.60
   6 -14  -7    2.50    1.00
  -6 -14   7    0.90    0.60
  -6 -14   7    1.10    0.60
   6  14   7    3.20    1.30
  -7 -14  -7    4.70    1.00
  -7 -14  -7    4.80    0.80
   7 -14   7    5.00    1.10
   7 -14   7    3.80    0.80
  -7 -14   7    3.80    0.80
   7 -14  -7    6.80    0.80
  -7 -14   7    4.10    0.80
   0 -15  -7    1.70    1.00
   0 -15   7   -0.20    1.30
  -1 -15  -7    1.10    1.00
  -1 -15  -7    3.50    1.10
  -1 -15   7    2.10    1.10
  -1 -15   7    1.80    1.00
   1 -15  -7    1.80    1.00
  -2 -15  -7   12.70    1.40
   2 -15   7   12.80    2.40
   2 -15  -7   12.70    1.60
  -2 -15   7   11.70    1.40
  -2 -15   7   14.60    1.50
   3 -15   7   -0.10    1.20
  -3 -15  -7    1.70    0.80
   3 -15   7    1.80    0.90
  -3 -15   7    2.60    0.80
  -3 -15   7    1.70    0.80
   3 -15  -7    1.90    1.00
   3 -15  -7    1.50    1.00
   4 -15   7    1.70    1.00
   4 -15   7    3.80    0.80
  -4 -15  -7    3.10    0.80
  -4 -15   7    4.10    1.00
   4 -15  -7    3.10    1.00
   4 -15  -7    3.10    0.80
  -4 -15   7    3.50    0.80
   4  15   7    5.20    1.20
  -5 -15  -7    0.20    1.10
   5 -15   7    0.70    0.90
  -5 -15  -7   -0.50    0.60
   5 -15   7    0.60    0.60
   5 -15  -7   -1.10    0.60
  -5 -15   7    1.20    0.60
   5  15   7    0.50    1.40
  -5 -15   7    0.20    0.60
   5 -15  -7   -0.60    0.90
   6 -15   7   14.10    1.40
  -6 -15  -7   15.60    1.00
  -6 -15   7   15.50    1.10
   6 -15  -7   16.40    1.10
  -6 -15   7   16.10    1.10
   7 -15   7   28.70    1.30
   0 -16  -7    0.10    1.10
  -1 -16  -7    6.30    1.60
   1 -16  -7    6.00    1.60
  -1 -16   7    4.10    1.10
  -1 -16   7    3.90    1.20
  -2 -16  -7   23.10    1.70
  -2 -16   7   25.70    1.60
   2 -16  -7   27.60    2.00
  -2 -16   7   26.50    1.80
  -3 -16  -7    0.80    0.70
  -3 -16   7    1.70    0.80
   3 -16  -7    0.20    1.00
  -3 -16   7    0.50    0.70
  -4 -16  -7    0.50    0.60
   4 -16   7    1.90    0.80
   4 -16  -7    1.10    1.10
  -4 -16   7    1.30    0.70
  -4 -16   7   -0.70    0.50
   5 -16   7    0.80    0.70
  -5 -16  -7   -0.30    0.60
  -5 -16   7   -0.10    0.60
  -5 -16   7    0.70    0.60
   1 -17  -7   -1.90    1.60
  -2 -17  -7    2.30    1.10
  -2 -17   7    1.30    0.90
  -3 -17  -7    1.10    0.70
  -3 -17   7    2.40    1.00
  -3 -17   7    2.70    0.70
  -4 -17   7   11.00    1.00
   0   0  -8  631.84   21.50
   0   0   8  708.33   21.50
   1   0  -8   39.40    1.80
   1   0   8   46.80    1.80
  -1   0  -8   44.10    1.70
  -1   0   8   40.60    1.90
   2   0  -8   52.59    2.40
  -2   0   8   53.79    2.40
  -2   0  -8   54.49    2.10
   2   0   8   59.69    2.10
   3   0  -8   48.30    2.50
  -3   0   8   52.99    2.60
   3   0   8   53.99    2.00
   3   0   8   51.29    2.00
   4   0   8    4.30    1.00
   4   0   8    4.60    1.10
   4   0  -8    5.90    1.20
  -4   0   8    4.70    1.40
   4   0  -8    4.20    0.90
   4   0   8    4.70    0.90
   5   0  -8   29.20    1.70
   5   0   8   28.60    1.70
   5   0  -8   25.90    3.10
   6   0   8  508.45   16.40
  -6   0  -8  472.15   16.40
   6   0  -8  511.65   16.30
   7   0  -8   43.90    2.30
  -7   0   8   40.30    2.30
  -7   0  -8   41.70    2.60
   7   0   8   41.20    2.20
  -8   0  -8  137.89    5.40
   8   0   8  137.39    5.30
   8   0  -8  140.69    5.20
  -8   0   8  134.29    5.20
  -9   0   8   36.00    2.10
   9   0  -8   33.60    2.20
   9   0   8   35.30    2.10
  -9   0  -8   39.60    2.50
 -10   0  -8   14.40    2.00
  10   0   8    9.40    1.40
 -10   0   8   12.30    1.40
  10   0  -8   10.10    1.70
 -11   0   8    7.80    1.10
  11   0   8    2.20    0.90
   0   1   8    0.10    0.40
   0  -1   8   -0.20    0.30
   0  -1  -8    0.00    0.30
   0   1  -8    0.00    0.30
  -1   1   8 1306.17   43.40
  -1  -1  -8 1324.77   43.30
   1  -1   8 1443.76   43.20
   1   1  -8 1382.66   43.40
   1   1   8 1419.16   43.30
  -1  -1   8 1462.05   43.50
   1  -1  -8 1263.37   43.40
  -1   1  -8 1302.17   43.20
   2  -1   8   13.40    0.70
  -2   1   8   12.60    1.20
  -2  -1  -8   13.90    1.10
   2   1  -8   13.20    1.10
  -2   1  -8   13.80    0.80
   2  -1  -8   13.70    1.10
   2   1   8   13.10    1.00
  -2  -1   8   13.10    1.30
   3   1  -8  559.64   18.30
  -3   1   8  540.35   18.20
  -3  -1   8  536.25   18.20
   3  -1  -8  545.75   18.10
   3   1   8  545.15   17.80
   3   1   8  577.14   17.80
  -4   1   8   78.19    4.00
   4   1  -8   84.19    3.80
   4  -1   8   77.89    3.10
   4   1   8   86.09    3.30
   4  -1  -8   82.19    3.60
   4   1   8   82.29    3.20
  -4  -1   8   68.19    3.90
   4  -1  -8   78.79    3.10
   4   1   8   83.29    3.10
   5  -1   8   28.80    1.60
   5   1  -8   25.20    1.70
   5   1  -8   31.20    3.20
   5  -1  -8   26.10    1.60
   5   1   8   27.00    1.60
   5  -1  -8   26.60    3.00
   6   1  -8    1.10    0.90
   6  -1   8    0.10    0.70
  -6  -1  -8    1.80    1.20
  -6  -1   8    1.90    1.10
   6   1   8    0.90    0.70
  -6   1  -8    3.10    1.40
   6  -1  -8    1.90    0.80
   7   1  -8   13.80    1.50
   7  -1   8   11.40    2.00
   7  -1   8   13.20    1.40
  -7  -1  -8   13.40    1.90
   7   1   8   10.20    1.40
  -7   1  -8   14.50    2.00
   7  -1  -8   16.40    1.80
  -7  -1   8   11.40    1.60
   8  -1   8   45.70    3.40
  -8   1   8   52.19    2.70
   8   1  -8   55.99    2.70
  -8  -1  -8   56.09    2.90
   8  -1   8   53.79    2.70
  -8   1  -8   55.59    3.10
  -8  -1   8   51.39    2.70
   8  -1  -8   58.79    2.70
   8   1   8   52.89    2.70
   9   1  -8   56.79    2.90
  -9  -1  -8   61.39    3.00
  -9   1   8   58.69    2.80
   9  -1   8   56.89    2.80
  -9   1  -8   60.19    3.10
   9   1   8   52.89    2.80
   9  -1  -8   59.89    2.80
  -9  -1   8   62.69    2.80
 -10   1   8    0.60    0.70
  10  -1   8    1.30    0.90
 -10  -1  -8    2.80    1.10
  10   1  -8    1.00    1.20
 -10  -1   8    0.80    0.80
  10  -1  -8    1.10    1.00
  10   1   8    2.20    0.80
  11  -1   8   51.29    2.40
 -11   1   8   52.69    2.20
  11  -1  -8   45.90    3.00
  11   1   8   52.99    2.40
   0   2  -8 4379.96  134.09
   0  -2   8 4520.75  133.79
   0  -2  -8 4425.36  134.89
   0   2   8 3620.14  134.39
  -1  -2  -8  278.47    9.40
   1   2  -8  284.07    9.40
   1  -2   8  301.37    9.20
  -1   2   8  286.57    9.50
  -1  -2   8  268.97    9.50
   1   2   8  283.17    9.40
  -1   2  -8  294.97    9.20
   1  -2  -8  263.87    9.40
  -2  -2  -8   28.50    1.60
  -2   2   8   27.20    1.70
   2   2  -8   28.20    1.70
   2  -2  -8   30.50    1.60
  -2  -2   8   27.90    1.70
   3   2  -8   20.30    1.70
  -3   2   8   18.60    1.80
   3  -2  -8   23.10    1.80
  -3  -2   8   18.60    1.90
   3   2   8   20.40    1.60
   4   2  -8  173.78    6.40
   4  -2   8  168.88    5.70
  -4   2   8  152.98    6.40
   4  -2  -8  160.58    5.60
   4  -2  -8  165.78    6.30
   4   2   8  165.58    6.10
   4   2   8  163.08    5.70
   4   2   8  164.78    6.00
   5  -2   8  102.49    3.90
   5   2  -8  101.89    5.30
   5   2  -8  103.89    4.00
   5  -2  -8  108.29    3.90
   5   2   8  104.89    4.70
   5  -2  -8  104.39    5.10
   6   2  -8    1.40    1.00
   6  -2   8    0.90    1.80
   6  -2   8   -0.10    0.70
   6  -2   8    1.90    1.70
  -6  -2  -8    1.60    1.10
  -6  -2   8    1.40    1.00
   6   2   8    0.90    0.70
   6  -2  -8    0.60    0.80
  -6   2  -8    1.90    1.40
   6  -2  -8    0.10    1.30
  -7  -2  -8    0.80    1.10
   7  -2   8   -0.90    1.60
   7   2  -8    0.30    1.10
   7  -2   8    1.80    0.80
   7  -2  -8    1.70    0.80
  -7  -2   8    0.80    0.90
   7   2   8    1.30    0.90
   7  -2  -8    1.40    1.30
  -7   2  -8    3.90    1.40
   8  -2   8   24.60    2.60
   8   2  -8   22.40    2.00
   8  -2   8   24.00    1.80
  -8  -2  -8   20.60    2.00
  -8  -2   8   21.00    1.90
  -8   2  -8   25.20    2.60
   8   2   8   20.60    1.70
   8  -2  -8   24.30    1.80
   8  -2  -8   21.30    3.00
   9   2  -8    0.00    1.20
  -9   2   8    0.10    0.80
   9  -2   8   -0.50    0.80
  -9  -2  -8    1.30    1.00
   9  -2  -8    0.50    0.90
   9   2   8    0.50    0.80
  -9   2  -8   -0.80    1.40
  -9  -2   8    0.00    0.90
 -10   2   8   38.00    2.00
  10  -2   8   33.30    2.00
 -10  -2  -8   37.90    2.20
  10   2   8   39.00    2.10
  10  -2  -8   36.50    2.20
 -10  -2   8   36.50    2.10
  11  -2   8   10.90    1.40
 -11   2   8   13.60    1.20
  11  -2  -8   15.40    2.00
  11   2   8   11.70    1.40
 -11  -2   8   11.30    1.60
   0  -3  -8    0.20    0.40
   0   3  -8   -0.30    0.40
   0  -3   8   -0.30    0.40
   0   3   8    0.00    0.50
  -1  -3  -8 1128.99   36.00
   1   3  -8 1092.49   35.90
   1  -3   8 1150.38   35.70
  -1   3   8 1133.09   36.00
   1   3   8 1151.88   36.00
  -1   3  -8 1103.79   35.70
  -1  -3   8 1127.39   36.00
   1  -3  -8 1104.89   36.00
   2   3  -8  343.87   11.60
  -2   3   8  333.07   11.60
   2  -3  -8  350.56   11.50
   2   3   8  349.96   11.50
  -2  -3   8  339.07   11.60
   3   3  -8   24.30    1.90
  -3   3   8   24.10    2.20
  -3  -3   8   25.70    2.10
   3  -3  -8   22.90    1.80
   3   3   8   25.20    2.10
   3  -3  -8   23.90    1.40
   4   3  -8   62.29    3.40
   4  -3   8   62.59    2.50
  -4   3   8   57.89    3.80
   4  -3  -8   60.19    2.50
   4  -3  -8   61.19    3.30
   4   3   8   61.09    3.50
   4   3   8   58.29    3.10
   5  -3   8    6.20    1.10
   5   3  -8    6.80    1.20
  -5  -3  -8    6.60    1.60
   5   3   8   14.00    3.10
   5  -3  -8    6.40    1.90
   5   3   8    6.60    1.10
  -6  -3  -8    3.70    1.20
   6  -3   8   -0.10    1.40
  -6  -3  -8   -0.10    1.70
   6   3  -8    1.60    1.10
   6  -3   8    1.70    1.50
   6  -3   8    1.50    0.80
   6   3   8    2.00    0.80
  -6   3  -8    0.60    1.40
   6  -3  -8    2.00    1.20
  -6  -3   8    1.10    1.00
   6  -3  -8    2.50    0.80
  -6  -3   8   -0.50    1.60
   7  -3   8  426.16   13.20
  -7  -3  -8  335.07   14.20
   7  -3   8  384.06   13.30
   7  -3   8  410.06   13.50
   7   3  -8  411.26   13.20
  -7  -3   8  391.66   13.50
   7   3   8  399.56   13.30
   7  -3  -8  387.46   13.10
  -7   3  -8  400.46   13.30
  -7  -3   8  349.17   13.50
   7  -3  -8  431.06   13.20
  -8  -3  -8   82.49    3.70
   8  -3   8   86.19    4.00
   8   3  -8   86.69    3.80
   8  -3  -8   90.19    3.90
  -8   3  -8   86.89    4.20
  -8  -3   8   85.69    3.70
   8  -3  -8   86.99    3.70
   9  -3   8   22.10    1.80
  -9   3   8   24.40    1.80
  -9  -3  -8   27.00    2.00
   9   3  -8   22.70    2.30
  -9  -3   8   29.20    2.00
   9  -3  -8   23.80    1.80
   9   3   8   22.60    1.90
  10  -3   8   -1.00    0.80
 -10   3   8    0.70    0.70
 -10  -3  -8    0.60    0.80
  10  -3  -8    0.00    1.00
  10   3   8    0.10    0.80
 -10  -3   8    0.20    0.90
 -11   3   8   71.19    2.80
  11  -3   8   69.19    3.00
 -11  -3  -8   73.79    3.00
  11  -3  -8   67.09    3.20
  11   3   8   74.29    3.00
   0   4   8 1470.65   47.30
   0   4  -8 1456.55   47.10
   0  -4   8 1507.25   47.10
   0  -4  -8 1481.15   47.30
   1   4  -8  573.44   18.90
  -1   4   8  567.64   18.90
  -1  -4  -8  572.84   18.90
  -1  -4   8  602.74   18.90
   1  -4  -8  562.74   18.90
   1   4   8  587.44   19.00
  -1   4  -8  575.14   18.50
   2   4  -8   13.70    1.50
  -2  -4  -8   15.30    1.20
  -2   4   8   14.50    1.80
   2  -4  -8   17.70    1.50
   2   4   8   16.00    1.80
   2  -4  -8   13.40    1.10
  -2  -4   8   14.60    1.70
  -3  -4  -8   12.10    1.10
  -3   4   8   11.40    2.20
   3   4  -8   14.60    1.90
   3  -4  -8   11.50    1.10
   3   4   8   13.80    2.30
   3  -4  -8   13.10    1.80
  -3  -4   8   10.80    2.20
   3   4   8   12.20    1.80
   4   4  -8    9.40    2.40
   4  -4   8    8.20    1.20
   4   4   8    5.10    1.90
   4   4   8    9.40    2.50
   4  -4  -8    7.70    1.00
   4  -4  -8    6.70    1.50
   5   4  -8   19.80    2.00
   5  -4   8   21.00    1.50
   5  -4   8   18.00    2.60
   5  -4   8   24.00    2.40
  -5  -4  -8   22.70    1.80
   5   4   8   22.30    1.60
   5  -4  -8   21.70    1.40
  -5  -4   8   16.20    2.10
   5  -4  -8   17.40    1.90
   5  -4  -8   20.00    4.30
   5   4   8   15.30    4.30
   6  -4   8   -0.50    0.80
  -6  -4  -8    1.30    1.50
   6   4  -8    0.50    1.20
  -6  -4  -8    1.10    1.10
   6  -4   8   -0.60    1.40
   6  -4   8    1.20    1.20
  -6  -4   8   -1.00    1.40
   6   4   8   -0.60    0.80
  -6   4  -8   -0.10    1.60
   6  -4  -8    1.20    0.70
  -6  -4   8    3.60    1.50
  -6  -4   8    0.90    1.10
   6  -4  -8    0.60    1.10
   7   4  -8    3.80    1.30
  -7  -4  -8    3.00    1.10
   7  -4   8    2.90    1.40
   7  -4   8    3.40    1.00
  -7  -4  -8    2.10    2.20
  -7  -4   8    1.40    1.40
   7  -4  -8    3.40    1.10
  -7  -4   8    3.40    1.20
  -7   4  -8    5.60    1.70
   7   4   8    2.80    1.00
   7  -4  -8    3.10    0.90
   8  -4   8  149.49    5.70
   8  -4   8  146.89    5.50
   8  -4   8  158.58    5.90
  -8  -4  -8  150.18    5.70
  -8  -4   8  138.79    5.70
   8  -4  -8  144.29    5.50
   8   4   8  143.49    5.70
   8  -4  -8  158.98    5.60
  -8  -4   8  150.68    5.60
   9  -4   8   53.09    2.80
   9  -4   8   66.39    3.20
  -9   4   8   59.89    2.80
  -9  -4  -8   62.39    2.90
   9   4   8   56.89    2.90
   9  -4  -8   61.19    2.90
  -9  -4   8   65.09    2.90
   9  -4  -8   55.49    2.80
 -10  -4  -8   53.09    2.50
 -10   4   8   52.89    2.40
  10  -4   8   50.79    2.50
  10  -4  -8   49.20    2.60
  10   4   8   55.69    2.60
 -11  -4  -8    7.10    1.40
  11  -4   8    9.20    1.60
 -11   4   8    8.60    1.00
  11   4   8    8.80    1.50
   0  -5  -8   -0.50    0.70
   0  -5  -8   -0.20    0.60
   0   5  -8   -0.10    0.60
   0   5   8   -0.70    0.90
  -1   5   8    2.00    1.00
  -1  -5  -8    0.00    0.80
  -1  -5  -8    2.40    0.70
   1   5  -8    0.30    0.60
   1  -5  -8    0.80    0.70
  -1  -5   8    0.80    0.70
  -1   5  -8    1.00    0.60
   1  -5  -8    1.80    0.70
   1   5   8   -0.20    0.80
  -2  -5  -8    3.80    1.00
  -2   5   8    1.10    1.00
   2   5  -8    3.20    1.10
   2  -5  -8    2.30    0.80
   2  -5  -8    3.60    0.70
  -2   5  -8    2.60    0.70
  -2  -5   8    2.70    1.00
  -2   5  -8    3.40    0.60
   2   5   8    2.20    1.20
  -3  -5  -8   10.40    1.10
   3  -5   8   11.10    1.50
   3   5  -8   14.20    2.10
  -3   5   8   10.60    2.60
   3  -5  -8   10.40    2.10
   3   5   8   14.80    2.20
   3  -5  -8   11.40    1.10
   4   5  -8  142.39    6.60
   4  -5   8  148.79    5.20
   4  -5  -8  150.98    6.30
   4  -5  -8  136.99    5.20
   4   5   8  149.59    6.50
   5  -5   8   10.60    2.00
  -5  -5  -8   12.90    1.90
   5  -5   8   10.80    2.30
   5  -5   8   14.00    1.30
  -5  -5  -8    8.20    1.70
  -5  -5   8   10.10    1.90
   5  -5  -8   12.30    1.70
   5  -5  -8   14.10    3.40
  -5  -5   8   12.10    2.00
   5  -5  -8    9.40    2.10
   5  -5  -8   13.10    1.20
  -5  -5   8   13.80    1.90
   6  -5   8    3.40    0.90
  -6  -5  -8    3.00    1.00
   6  -5   8    3.50    1.30
   6  -5   8    3.70    1.20
  -6  -5  -8    3.80    1.30
   6  -5  -8    4.00    1.10
  -6  -5   8    3.60    1.30
  -6  -5   8    5.40    1.30
   6   5   8    5.60    1.30
   6  -5  -8    3.00    0.80
  -6  -5   8    5.20    1.20
  -7  -5  -8  373.06   12.70
   7  -5   8  373.96   12.60
   7  -5   8  385.16   12.90
   7  -5   8  367.96   12.60
  -7  -5  -8  370.96   12.70
  -7  -5   8  358.86   12.60
   7   5   8  394.26   12.80
  -7  -5   8  355.86   12.50
   7  -5  -8  370.26   12.50
  -7  -5   8  366.46   12.60
   7  -5  -8  398.56   12.60
   8  -5   8   62.19    3.20
  -8  -5  -8   58.29    3.00
   8  -5   8   69.29    3.30
   8  -5   8   59.69    2.90
   8  -5  -8   66.49    3.00
   8  -5  -8   62.19    2.90
   8   5   8   59.29    3.10
  -8  -5   8   64.29    3.10
  -8  -5   8   63.19    3.20
   9  -5   8   16.10    2.30
   9  -5   8   17.50    1.70
  -9  -5  -8   16.60    1.60
   9  -5   8   21.50    2.10
   9  -5  -8   18.30    1.70
   9   5   8   15.10    1.70
  -9  -5   8   13.50    2.40
  -9  -5   8   15.00    2.10
 -10  -5  -8    1.50    0.80
 -10   5   8    1.20    0.60
  10  -5   8    2.70    0.90
  10   5   8    1.60    1.00
  10  -5  -8    2.80    1.00
 -11  -5  -8   19.30    1.40
 -11   5   8   20.60    1.30
   0  -6  -8   63.89    2.50
   0  -6  -8   62.69    3.20
   0   6  -8   61.99    2.90
   0   6   8   58.19    3.40
  -1  -6  -8    0.90    0.60
  -1   6   8    0.80    1.20
   1   6  -8    1.60    1.00
  -1   6  -8    1.20    1.00
  -1   6  -8    1.20    0.70
   1  -6  -8    1.70    1.00
   1  -6  -8    1.50    0.70
  -2  -6  -8    1.60    0.70
   2   6  -8    0.60    1.20
  -2   6  -8    1.50    0.70
   2  -6  -8    1.30    1.10
   2  -6  -8    1.80    0.60
  -2   6  -8    1.40    0.60
   3   6  -8  160.58    6.80
  -3  -6  -8  164.68    5.70
   3  -6   8  151.48    5.60
   3  -6  -8  160.58    5.60
   3  -6  -8  160.18    6.60
   3   6   8  164.68    6.80
  -4  -6  -8  372.26   12.00
   4  -6   8  345.57   12.10
   4  -6   8  357.16   11.70
   4  -6   8  348.87   11.90
  -4  -6  -8  350.06   11.90
   4  -6  -8  354.76   11.80
  -4  -6   8  362.96   11.90
   4  -6  -8  329.87   12.80
  -4  -6   8  349.57   11.80
   4  -6  -8  360.66   11.70
  -5  -6  -8   34.00    2.30
   5  -6   8   31.80    2.60
  -5  -6  -8   33.30    2.20
   5  -6   8   35.90    2.30
   5  -6   8   35.30    2.00
  -5  -6   8   34.90    2.30
  -5  -6   8   35.20    2.30
   5  -6  -8   34.30    2.10
  -5  -6   8   30.70    2.60
   5  -6  -8   36.60    1.90
   5  -6  -8   35.80    2.60
  -6  -6  -8  154.08    5.80
   6  -6   8  153.88    5.70
   6  -6   8  156.68    5.50
   6  -6   8  148.99    6.60
   6  -6  -8  128.49    6.00
   6   6   8  162.38    5.80
  -6  -6   8  155.08    5.80
  -6  -6   8  146.99    5.60
  -6  -6   8  145.99    5.80
   6  -6  -8  160.38    5.60
   7  -6   8    0.50    0.90
   7  -6   8    1.30    1.00
  -7  -6  -8    0.90    1.00
   7  -6   8    2.90    1.40
  -7  -6  -8    0.90    1.30
   7  -6  -8    3.10    1.00
  -7  -6   8    0.90    1.40
   7  -6  -8    0.60    0.90
  -7  -6   8    1.20    1.10
   7   6   8    1.60    1.00
  -7  -6   8   -0.80    1.20
   8  -6   8  176.98    6.20
   8  -6   8  154.68    6.10
  -8  -6  -8  169.38    6.20
  -8  -6  -8  164.08    6.20
   8  -6   8  180.08    6.50
  -8  -6   8  166.78    6.20
   8  -6  -8  161.18    6.10
  -8  -6   8  169.48    6.20
   8   6   8  162.08    6.30
  -8  -6   8  166.58    6.50
   8  -6  -8  172.78    6.10
  -9  -6  -8   12.90    2.10
   9  -6   8   12.70    1.50
   9  -6   8   13.30    1.80
   9  -6   8    8.40    1.80
   9   6   8   13.10    1.60
  -9  -6   8   10.50    1.90
   9  -6  -8   12.10    1.50
   9  -6  -8   11.00    1.50
  10  -6   8    7.90    1.60
 -10  -6  -8    9.10    1.10
 -10   6   8    7.00    1.10
  10   6   8    7.90    1.50
  10  -6  -8    9.20    1.40
 -11  -6  -8   30.40    1.60
 -11   6   8   29.60    1.40
   0   7  -8   -0.30    1.00
   0  -7  -8    0.60    0.60
  -1  -7  -8   46.10    2.10
   1   7  -8   50.59    3.20
  -1   7  -8   47.40    2.60
  -1   7  -8   41.20    3.00
   1  -7  -8   42.60    2.00
   1  -7  -8   41.20    3.20
  -2  -7  -8   -1.20    0.70
   2   7  -8    0.20    1.50
   2  -7  -8    1.00    0.60
   2  -7  -8    0.70    1.60
   3  -7   8   90.19    3.70
  -3  -7  -8   83.79    3.60
   3  -7   8   85.09    3.50
  -3  -7  -8   89.69    3.50
   3  -7   8   82.59    3.90
   3  -7  -8   84.89    3.60
   3  -7  -8   88.89    3.40
  -3  -7   8   85.79    3.60
   3  -7  -8   85.39    5.30
  -3  -7   8   81.99    3.60
   4  -7   8   25.90    2.30
  -4  -7  -8   25.90    2.10
   4  -7   8   25.80    1.80
   4  -7   8   25.30    2.10
   4  -7   8   22.40    3.40
  -4  -7  -8   25.70    1.90
   4  -7  -8   23.60    1.90
   4  -7  -8   27.30    1.70
  -4  -7   8   27.70    1.90
  -4  -7   8   27.30    2.60
   4  -7  -8   24.20    2.80
  -4  -7   8   24.40    2.00
  -5  -7  -8  121.69    4.60
   5  -7   8  111.89    4.80
   5  -7   8  114.19    4.60
  -5  -7  -8  122.09    4.60
   5  -7   8  116.99    4.40
   5  -7  -8  118.19    4.40
   5  -7  -8  112.09    4.80
  -5  -7   8  113.99    4.60
  -5  -7   8  111.29    4.50
   5  -7  -8  117.09    4.50
  -5  -7   8  114.19    4.80
  -6  -7  -8   20.70    1.90
   6  -7   8   14.40    2.10
   6  -7   8   15.50    1.90
  -6  -7  -8   17.90    1.80
   6  -7   8   13.00    1.50
   6  -7  -8   17.00    1.50
   6   7   8   15.30    1.70
  -6  -7   8   16.40    1.80
  -6  -7   8   13.60    1.80
   6  -7  -8   15.60    1.70
   7  -7   8  255.87    8.80
   7  -7   8  251.37    9.00
   7  -7   8  239.38    8.70
  -7  -7  -8  243.98    8.80
  -7  -7  -8  257.47    8.80
   7   7   8  243.48    9.00
  -7  -7   8  249.18    8.80
  -7  -7   8  255.27    8.70
   7  -7  -8  243.08    8.80
   7  -7  -8  260.57    8.70
  -8  -7  -8    0.20    1.20
   8  -7   8    1.40    1.10
  -8  -7  -8    0.40    0.90
   8  -7   8   -0.20    0.90
   8  -7   8    0.70    1.00
  -8  -7   8   -0.90    1.00
   8  -7  -8   -0.70    0.80
   8  -7  -8    0.90    0.80
   8   7   8   -1.20    0.90
  -8  -7   8    1.60    1.20
   9  -7   8    2.90    0.90
   9  -7   8    2.60    1.00
   9  -7   8    2.30    1.10
  -9  -7  -8    2.40    0.80
  -9  -7   8    3.30    1.00
   9  -7  -8    2.40    1.00
   9  -7  -8    3.50    0.80
   9   7   8    2.60    1.00
 -10   7   8    1.70    0.60
  10  -7   8    1.40    1.30
 -10  -7  -8    1.50    0.70
  10   7   8    1.10    1.00
  10  -7  -8    0.60    0.90
 -11   7   8   -0.30    0.50
 -11  -7  -8    1.00    0.80
   0  -8  -8  280.97    9.40
   0   8  -8  276.47   10.30
   0   8  -8  284.77   11.80
  -1  -8  -8    0.00    0.70
   1   8  -8   -0.90    1.70
   1  -8  -8    0.40    0.60
  -1   8  -8   -1.90    1.50
  -1  -8   8   -2.80    1.50
  -2  -8  -8  142.49    5.20
   2  -8   8  136.19    5.30
  -2  -8  -8  143.19    5.00
   2  -8   8  128.29    5.20
   2  -8  -8  141.89    4.90
  -2  -8   8  136.99    5.10
   2  -8  -8  125.69    5.10
  -2  -8   8  133.29    5.10
   3  -8   8    4.70    1.90
   3  -8   8    1.90    1.40
  -3  -8  -8    0.00    0.70
  -3  -8  -8    1.00    1.40
  -3  -8  -8    0.70    1.00
   3  -8   8    0.10    1.10
  -3  -8   8    1.60    1.10
  -3  -8   8    0.60    1.00
  -3  -8   8   -0.40    1.50
   3  -8  -8   -0.40    0.60
   3  -8  -8    1.60    1.10
  -4  -8  -8   24.10    2.00
  -4  -8  -8   19.40    1.80
   4  -8   8   21.40    1.90
   4  -8   8   24.30    2.30
   4  -8   8   19.60    1.90
   4  -8  -8   22.20    1.80
  -4  -8   8   18.90    1.80
  -4  -8   8   18.60    2.70
   4  -8  -8   20.30    1.50
  -4  -8   8   23.10    1.80
   4  -8  -8   20.20    2.80
   5  -8   8    1.10    1.10
   5  -8   8    3.40    1.10
  -5  -8  -8    2.30    1.30
   5  -8   8    1.50    1.10
   5  -8  -8    2.00    0.80
   5  -8  -8    2.10    1.30
  -5  -8   8    0.50    1.50
  -5  -8   8    0.90    1.60
   5  -8  -8    2.80    1.00
   6  -8   8    2.10    1.10
  -6  -8  -8    2.80    1.10
  -6  -8  -8    1.20    1.00
   6  -8   8    2.50    1.20
   6  -8   8    2.60    1.00
   6   8   8    3.10    1.10
   6  -8  -8    1.90    0.90
   6  -8  -8    2.10    0.90
  -6  -8   8    2.70    1.10
  -6  -8   8    1.40    1.00
   7  -8   8    0.70    1.10
  -7  -8  -8    0.30    1.00
   7  -8   8    0.00    0.90
  -7  -8  -8    0.90    1.00
   7  -8   8    0.50    1.10
   7   8   8    2.30    1.10
   7  -8  -8   -0.40    0.80
  -7  -8   8    2.30    1.00
   7  -8  -8    0.40    0.90
  -7  -8   8    1.50    1.00
   8  -8   8    2.10    1.00
  -8  -8  -8    5.40    1.30
   8  -8   8    4.00    1.20
   8  -8   8    2.20    0.80
  -8  -8   8    1.60    1.00
   8  -8  -8    2.10    0.90
   8   8   8    1.60    1.00
   8  -8  -8    4.40    0.90
  -9  -8  -8    0.30    0.70
   9  -8   8    0.10    0.80
   9  -8   8    0.40    0.80
   9  -8   8    1.60    1.20
   9  -8  -8    0.80    0.70
   9   8   8    0.80    1.00
   9  -8  -8    0.20    0.80
  -9  -8   8    0.50    0.90
  10  -8   8    1.90    1.50
 -10   8   8    0.40    0.50
 -10  -8  -8   -0.10    0.50
  10   8   8    0.90    1.10
  10  -8  -8   -0.20    0.90
   0   9  -8   -2.00    2.50
   0  -9  -8   -0.50    1.40
   0  -9   8   -0.50    1.10
   0  -9   8    0.50    1.30
   0  -9   8   -0.20    1.50
   0  -9  -8    0.70    0.70
  -1  -9  -8    7.10    1.20
  -1  -9  -8    7.30    1.40
   1  -9   8    4.80    1.50
   1  -9   8    5.00    1.40
   1  -9   8    6.90    1.40
   1  -9  -8    7.00    1.50
  -1  -9   8   10.30    1.70
  -1  -9   8    8.80    1.80
  -1  -9   8    5.10    1.20
   1  -9  -8    6.80    1.10
   2  -9   8   53.29    2.90
   2  -9   8   48.90    3.20
  -2  -9  -8   51.79    3.20
  -2  -9  -8   55.79    2.60
  -2  -9  -8   58.89    2.80
   2  -9   8   55.69    3.00
   2  -9  -8   53.79    2.90
  -2  -9   8   56.69    2.80
  -2  -9   8   58.39    2.70
   2  -9  -8   55.49    2.50
  -2  -9   8   53.09    3.30
  -3  -9  -8   18.80    2.20
   3  -9   8   17.80    2.20
   3  -9   8   21.40    3.10
   3  -9   8   15.90    2.00
  -3  -9  -8   16.80    1.70
  -3  -9  -8   20.70    1.60
  -3  -9   8   16.30    2.80
  -3  -9   8   17.70    1.80
   3  -9  -8   21.50    1.90
   3  -9  -8   19.20    1.40
  -3  -9   8   17.40    1.70
   4  -9   8   23.90    2.40
   4  -9   8   23.90    2.10
  -4  -9  -8   21.40    1.90
   4  -9   8   22.10    2.10
  -4  -9  -8   27.00    2.10
   4  -9  -8   20.40    2.80
   4  -9  -8   27.00    2.00
  -4  -9   8   26.00    1.90
   4  -9  -8   23.30    1.70
  -4  -9   8   21.80    2.00
  -5  -9  -8    2.70    1.00
   5  -9   8    1.60    1.00
   5  -9   8    0.30    1.20
  -5  -9  -8    1.00    1.00
   5  -9   8    0.50    1.20
   5  -9  -8    1.20    0.90
   5  -9  -8    1.40    1.40
  -5  -9   8    0.60    1.00
  -5  -9   8    2.00    0.90
   5  -9  -8    0.70    0.80
  -6  -9  -8    1.20    1.00
  -6  -9  -8    6.50    1.50
   6  -9   8    2.40    1.20
   6  -9   8    2.90    1.20
   6  -9   8    2.90    1.00
   6   9   8    3.90    1.20
  -6  -9   8    2.90    0.90
   6  -9  -8    2.10    0.90
   6  -9  -8    4.20    1.00
  -6  -9   8    2.50    1.00
  -7  -9  -8   35.30    2.10
   7  -9   8   37.80    2.50
  -7  -9  -8   35.30    2.10
   7  -9   8   28.30    2.40
   7  -9   8   34.70    2.10
   7  -9  -8   29.90    2.00
  -7  -9   8   33.50    2.10
   7  -9  -8   32.70    2.00
   7   9   8   33.50    2.30
  -7  -9   8   36.10    2.10
   8  -9   8   -0.10    0.90
  -8  -9  -8   -0.80    0.90
   8  -9   8   -0.60    1.20
  -8  -9  -8    0.80    0.70
   8  -9   8   -0.40    0.70
   8   9   8   -0.50    1.00
  -8  -9   8   -0.20    0.90
  -8  -9   8   -0.30    0.80
   8  -9  -8    0.30    0.70
   8  -9  -8   -0.40    0.80
  -9  -9  -8    7.40    1.10
   9  -9   8    3.30    1.50
   9  -9   8    5.00    1.20
   9  -9   8    5.20    1.30
  -9   9   8    4.80    1.00
   9   9   8    7.40    1.50
   9  -9  -8    7.40    1.30
  -9  -9   8    6.20    1.20
   9  -9  -8    4.50    1.00
 -10   9   8    0.50    0.50
 -10  -9  -8    0.10    0.50
   0 -10   8   44.00    3.00
   0 -10  -8   49.50    2.90
   0 -10   8   47.40    2.80
   0 -10  -8   48.80    2.30
   0 -10   8   48.90    2.70
   1 -10   8    9.70    2.10
  -1 -10  -8    7.80    1.70
   1 -10   8    8.70    1.50
   1 -10   8    7.10    1.50
  -1 -10  -8    8.40    1.30
   1 -10  -8    9.10    1.60
   1 -10  -8    7.40    1.20
  -1 -10   8    7.20    1.70
  -1 -10   8   12.10    1.80
  -1 -10   8   10.50    1.80
   2 -10   8    3.10    1.20
   2 -10   8    2.70    1.30
   2 -10   8    3.60    1.60
  -2 -10  -8    0.70    1.00
  -2 -10  -8    2.10    0.90
  -2 -10  -8    2.00    1.60
  -2 -10   8    4.00    1.10
   2 -10  -8    2.50    1.20
  -2 -10   8    3.90    1.70
  -2 -10   8    3.20    1.10
   2 -10  -8    1.80    0.80
  -3 -10  -8    2.60    1.30
  -3 -10  -8    2.40    0.90
  -3 -10  -8    2.40    1.50
   3 -10  -8    1.80    0.80
   3 -10  -8    3.20    1.10
  -3 -10   8    2.40    1.30
   4 -10   8    8.60    1.60
  -4 -10  -8    3.60    1.20
  -4 -10  -8    4.60    1.10
   4 -10   8    6.50    1.40
   4 -10  -8    6.70    1.30
   4 -10  -8    4.60    1.10
   4 -10  -8   11.10    2.90
  -4 -10   8    4.30    1.00
  -4 -10   8    8.10    1.50
   5 -10   8    8.60    2.00
   5 -10   8    8.80    1.60
  -5 -10  -8   10.90    1.60
   5 -10   8    7.30    2.00
  -5 -10  -8   10.90    1.50
   5 -10  -8    8.20    1.50
  -5 -10   8   10.80    1.60
  -5 -10   8    7.50    1.50
   6 -10   8    0.30    0.90
  -6 -10  -8   -0.50    0.90
  -6 -10  -8   -0.10    0.90
   6 -10   8   -1.20    1.30
   6 -10   8    0.50    1.10
  -6 -10   8    0.50    0.90
   6 -10  -8   -0.40    0.80
   6  10   8    0.90    1.10
  -6 -10   8   -0.10    0.90
   6 -10  -8    0.40    0.80
  -7 -10  -8   40.40    2.30
   7 -10   8   42.20    2.50
  -7 -10  -8   43.60    2.30
   7 -10   8   38.00    2.60
   7 -10   8   42.60    2.30
   7  10   8   40.30    2.60
  -7 -10   8   43.70    2.30
   7 -10  -8   43.00    2.20
  -7 -10   8   45.40    2.30
   7 -10  -8   40.90    2.30
   8 -10   8    2.10    0.80
   8 -10   8    2.60    0.70
  -8 -10  -8    2.30    0.80
  -8 -10  -8    1.70    0.80
   8 -10  -8    2.50    0.90
  -8 -10   8    2.20    0.80
   8 -10  -8    2.20    0.70
  -8 -10   8    1.40    0.80
   8  10   8    0.70    1.00
  -9 -10  -8    6.00    0.90
   9 -10   8    4.60    1.00
   9 -10   8    4.70    1.00
  -9 -10  -8    2.80    1.10
  -9  10   8    5.50    0.90
  -9 -10   8    6.30    1.10
   9 -10  -8    5.30    0.90
   9 -10  -8    6.80    1.30
   9  10   8    3.70    1.10
 -10 -10  -8   15.50    1.00
 -10  10   8   16.50    1.00
   0 -11   8    0.20    1.10
   0 -11  -8   -3.40    1.30
   0 -11   8    0.30    1.50
   0 -11  -8   -0.80    0.70
   0 -11   8    0.40    1.30
   1 -11   8   29.90    2.60
   1 -11   8   22.90    2.50
  -1 -11  -8   29.00    1.90
  -1 -11  -8   27.60    2.20
   1 -11   8   24.50    2.40
  -1 -11   8   27.30    2.30
  -1 -11   8   26.50    2.80
   1 -11  -8   26.70    2.60
   1 -11  -8   28.70    1.80
   2 -11   8    7.10    2.50
   2 -11   8    2.40    1.20
  -2 -11  -8    1.10    0.90
   2 -11   8    1.80    1.20
  -2 -11  -8    2.90    1.10
  -2 -11   8    2.90    1.00
  -2 -11   8    3.30    1.00
   2 -11  -8    4.10    0.90
  -2 -11   8    4.30    1.90
   2 -11  -8    3.40    1.30
  -3 -11  -8    4.20    1.00
   3 -11   8    3.40    1.30
   3 -11   8    7.80    1.30
  -3 -11  -8    8.10    1.50
  -3 -11  -8    4.20    1.10
   3 -11  -8    6.20    1.10
   3 -11  -8    6.60    1.60
  -3 -11   8    5.50    1.10
  -3 -11   8    6.60    1.50
  -4 -11  -8   68.09    3.20
   4 -11   8   68.79    3.40
  -4 -11  -8   71.49    3.20
   4 -11   8   66.79    3.20
  -4 -11   8   67.39    3.20
  -4 -11   8   67.19    3.10
   4 -11  -8   67.39    3.10
   5 -11   8  127.69    5.00
  -5 -11  -8  136.39    5.00
   5 -11   8  133.79    5.20
  -5 -11  -8  124.59    5.00
   5 -11  -8  126.49    4.90
  -5 -11   8  124.79    5.00
  -5 -11   8  124.29    4.90
   5 -11  -8  126.59    4.90
   6 -11   8    0.60    0.80
  -6 -11  -8    1.50    0.90
  -6 -11  -8    0.70    0.80
   6 -11   8    0.30    1.00
  -6 -11   8   -0.70    0.80
   6 -11  -8   -0.90    0.90
  -6 -11   8    1.30    0.80
   6  11   8    0.40    1.00
   6 -11  -8    0.40    0.80
  -7 -11  -8    0.70    0.70
  -7 -11  -8    0.50    0.80
   7 -11   8    0.40    0.90
   7 -11   8   -0.30    0.70
  -7 -11   8    0.90    0.70
   7  11   8    0.20    1.00
   7 -11  -8    2.00    0.70
   7 -11  -8    0.70    0.80
  -7 -11   8   -0.60    0.70
  -8 -11  -8   -0.50    0.60
  -8 -11  -8    0.00    0.70
   8 -11   8    0.20    0.70
   8 -11   8    0.90    0.60
  -8 -11   8    0.20    0.60
   8  11   8    0.20    1.10
  -8 -11   8   -0.90    0.70
   8 -11  -8   -0.70    0.80
   8 -11  -8    0.80    0.60
   9 -11   8    1.00    0.50
  -9  11   8    0.20    0.60
  -9 -11  -8    1.30    0.70
  -9 -11   8    1.20    0.60
   0 -12   8   44.40    2.60
   0 -12   8   50.59    3.20
   0 -12   8   47.60    2.80
   0 -12  -8   52.59    2.60
   0 -12  -8   53.99    2.90
   1 -12   8   17.10    2.40
   1 -12   8   21.20    2.30
   1 -12   8   12.60    2.40
  -1 -12  -8   20.50    2.00
  -1 -12  -8   21.40    1.70
  -1 -12   8   20.60    1.90
  -1 -12   8   20.50    2.00
   1 -12  -8   21.00    1.70
  -1 -12   8   17.90    2.80
   2 -12   8    8.80    2.10
  -2 -12  -8    6.40    1.40
   2 -12   8    5.10    1.30
   2 -12   8    5.90    1.60
  -2 -12  -8    5.30    1.10
   2 -12  -8    6.80    1.20
   2 -12  -8    5.10    1.30
  -2 -12   8    4.70    1.10
  -2 -12   8    6.30    1.50
   3 -12   8   33.40    2.20
  -3 -12  -8   27.10    2.40
  -3 -12  -8   28.40    2.10
  -3 -12  -8   32.10    2.10
   3 -12   8   30.60    2.50
   3 -12  -8   26.50    1.90
  -3 -12   8   33.80    2.00
   3 -12  -8   28.30    2.10
  -3 -12   8   27.90    2.00
  -4 -12  -8   63.99    3.00
   4 -12   8   64.09    3.00
  -4 -12  -8   61.99    3.10
   4 -12   8   61.19    3.30
  -4 -12   8   65.29    3.00
  -4 -12   8   66.69    3.00
   4 -12  -8   60.09    2.90
   4 -12  -8   63.59    2.90
   5 -12   8   -0.30    0.80
  -5 -12  -8   -0.10    0.90
   5 -12   8    1.60    1.10
  -5 -12  -8   -0.10    0.80
   5 -12  -8    0.70    0.80
  -5 -12   8   -0.70    0.80
  -5 -12   8   -0.80    0.80
   5 -12  -8    0.30    0.80
  -6 -12  -8   -0.50    0.80
  -6 -12  -8    0.40    0.70
   6 -12   8   -0.50    0.80
   6 -12   8   -0.10    0.60
  -6 -12   8   -0.30    0.70
  -6 -12   8    0.00    0.80
   6  12   8   -0.40    1.00
   6 -12  -8    0.70    0.70
   6 -12  -8   -0.50    0.80
  -7 -12  -8   14.00    1.40
   7 -12   8   13.90    1.40
  -7 -12  -8   14.00    1.30
   7 -12   8   14.30    1.30
   7 -12  -8   16.10    1.70
   7 -12  -8   14.10    1.20
   7  12   8   13.40    1.70
  -7 -12   8   12.20    1.20
  -7 -12   8   13.10    1.30
  -8  12   8    5.10    1.30
   8 -12   8    4.00    1.00
   8 -12   8    2.80    0.60
  -8 -12  -8    3.00    0.70
  -8 -12  -8    2.60    0.60
  -8 -12   8    3.80    0.90
   8 -12  -8    4.70    0.90
   8 -12  -8    4.10    0.80
  -8 -12   8    2.10    0.60
   8  12   8    2.50    1.20
  -9 -12  -8    5.40    0.80
   9 -12   8    5.40    0.80
  -9 -12   8    5.60    0.90
   0 -13   8    4.30    1.60
   0 -13  -8   -0.10    0.90
   0 -13  -8   -0.40    1.30
   0 -13   8    1.70    1.20
   0 -13   8    1.80    1.20
  -1 -13  -8  152.48    5.90
   1 -13   8  154.18    6.00
  -1 -13  -8  161.18    5.80
   1 -13   8  153.88    6.10
   1 -13   8  154.48    5.90
   1 -13  -8  153.78    5.80
  -1 -13   8  162.38    5.90
  -1 -13   8  155.98    5.80
   2 -13   8   74.69    3.70
  -2 -13  -8   73.89    3.40
  -2 -13  -8   79.09    3.40
   2 -13   8   77.09    3.50
   2 -13  -8   74.89    3.40
  -2 -13   8   78.29    3.40
  -2 -13   8   76.19    3.40
   2 -13  -8   73.59    3.30
   3 -13   8   58.39    3.00
   3 -13   8   56.99    2.80
  -3 -13  -8   59.39    2.80
  -3 -13  -8   55.09    3.10
  -3 -13   8   56.79    2.70
   3 -13  -8   53.69    2.70
   3 -13  -8   53.89    2.80
  -3 -13   8   55.89    2.80
   4 -13   8   29.70    1.90
  -4 -13  -8   27.90    1.90
   4 -13   8   26.20    2.10
  -4 -13  -8   30.30    2.20
   4 -13  -8   29.20    1.90
   4 -13  -8   27.10    1.90
  -4 -13   8   27.00    1.90
  -4 -13   8   26.00    1.80
  -5 -13  -8   76.89    3.30
  -5 -13  -8   78.09    3.20
   5 -13   8   77.19    3.20
   5 -13   8   72.99    3.40
   5 -13  -8   78.29    3.10
  -5 -13   8   75.19    3.30
   5  13   8   75.69    3.50
  -5 -13   8   78.89    3.20
   5 -13  -8   74.89    3.30
  -6 -13  -8   16.30    1.40
   6 -13   8   16.10    1.30
  -6 -13  -8   15.80    1.40
   6 -13   8   16.00    1.60
  -6 -13   8   16.30    1.30
  -6 -13   8   15.10    1.30
   6 -13  -8   15.40    1.30
   6  13   8   12.20    2.70
   6 -13  -8   16.50    1.50
   7 -13   8   37.50    1.80
  -7  13   8   38.30    2.40
   7 -13   8   37.70    2.00
  -7 -13  -8   39.50    1.90
  -7 -13  -8   36.30    1.80
   7 -13  -8   39.10    1.80
  -7 -13   8   38.10    1.80
  -7 -13   8   40.00    1.90
   7 -13  -8   41.20    2.10
   7  13   8   41.80    2.30
   8 -13   8   -0.70    0.60
  -8 -13  -8   -1.30    0.60
  -8 -13  -8   -0.40    0.50
   8 -13   8   -0.20    0.40
  -8 -13   8    0.90    0.60
  -8 -13   8    1.70    0.50
   0 -14   8    0.30    1.20
   0 -14  -8    1.00    1.40
   0 -14   8    1.80    1.30
   0 -14  -8   -1.30    0.90
   1 -14   8   71.29    3.60
  -1 -14  -8   65.79    3.20
   1 -14   8   67.19    3.40
  -1 -14  -8   71.99    3.20
   1 -14  -8   63.69    3.10
  -1 -14   8   72.49    3.10
  -1 -14   8   70.39    3.20
  -2 -14  -8    6.00    1.60
   2 -14   8   10.70    2.10
   2 -14   8    5.80    1.30
  -2 -14  -8    8.90    1.40
  -2 -14   8   10.20    1.40
   2 -14  -8    6.00    1.40
  -2 -14   8    9.40    1.40
   3 -14   8    4.40    1.30
  -3 -14  -8    2.80    0.90
   3 -14   8    2.80    1.00
  -3 -14   8    9.00    1.60
  -3 -14   8    3.70    1.00
   3 -14  -8    2.80    0.90
   3 -14  -8    4.10    1.00
   4 -14   8   34.30    2.00
  -4 -14  -8   35.30    2.00
   4 -14   8   36.10    2.30
  -4 -14  -8   34.50    2.20
  -4 -14   8   33.20    1.90
   4 -14  -8   36.20    1.90
  -4 -14   8   35.30    2.00
   4 -14  -8   34.60    2.10
   5 -14   8    6.00    1.40
   5 -14   8    5.10    1.10
  -5 -14  -8    4.70    1.10
  -5 -14  -8    2.80    0.90
  -5 -14   8    3.10    0.80
   5  14   8    2.60    1.50
   5 -14  -8    3.50    1.00
   5 -14  -8    4.30    1.10
  -5 -14   8    2.30    0.70
   6 -14   8   17.20    1.20
  -6 -14  -8   18.40    1.30
   6 -14   8   16.70    1.40
  -6 -14  -8   20.30    1.40
   6 -14  -8   17.40    1.20
  -6 -14   8   15.30    1.20
   6 -14  -8   17.40    1.60
   6  14   8   18.50    1.90
  -6 -14   8   17.90    1.30
   7 -14   8   23.90    1.50
   7 -14   8   28.30    1.70
  -7 -14   8   25.20    1.50
  -7 -14   8   30.30    1.50
   0 -15  -8    0.20    0.90
   0 -15   8    2.50    1.20
  -1 -15  -8  141.69    5.20
  -1 -15  -8  131.49    5.20
  -1 -15   8  143.59    5.10
   1 -15  -8  138.69    5.20
  -1 -15   8  137.89    5.10
  -2 -15  -8    2.80    0.90
   2 -15   8    2.80    1.40
   2 -15  -8    1.90    1.00
  -2 -15   8    1.20    0.80
  -2 -15   8    3.70    0.90
  -3 -15  -8   -0.30    0.80
   3 -15   8   -1.10    1.10
   3 -15   8    1.00    0.90
   3 -15  -8    0.00    0.90
   3 -15  -8    1.60    0.90
  -3 -15   8    0.50    0.70
  -3 -15   8    0.70    0.70
   4 -15   8    2.70    0.80
  -4 -15  -8    4.00    1.00
   4 -15   8    2.30    1.00
   4 -15  -8    2.80    1.00
   4  15   8    1.40    1.10
  -4 -15   8    2.50    0.70
   4 -15  -8    2.50    0.80
  -4 -15   8    1.60    0.60
  -5 -15  -8    8.10    1.00
   5 -15   8    8.50    1.40
   5 -15   8    9.10    1.10
   5 -15  -8    9.70    1.00
   5 -15  -8    9.20    1.50
   5  15   8   11.30    1.90
  -5 -15   8    8.70    0.90
  -5 -15   8    9.80    1.10
  -6 -15  -8   -0.40    1.10
   6 -15   8    0.80    0.80
  -6 -15  -8    0.60    0.50
   6 -15   8    0.70    0.50
  -6 -15   8    0.30    0.60
  -6 -15   8    1.00    0.50
   0 -16  -8    6.80    1.60
  -1 -16   8    4.40    1.10
  -1 -16   8    2.80    1.00
   1 -16  -8    3.30    1.10
  -2 -16  -8    0.20    0.90
   2 -16  -8   -0.90    1.00
  -2 -16   8   -0.20    0.90
  -2 -16   8    0.80    0.80
  -3 -16  -8    4.80    1.10
  -3 -16   8    3.40    0.80
   3 -16  -8    7.30    1.50
  -3 -16   8    4.00    1.00
   4 -16   8   33.50    2.20
  -4 -16  -8   32.60    1.70
   4 -16   8   34.40    1.80
  -4 -16   8   31.40    1.60
   4 -16  -8   31.70    2.00
  -4 -16   8   34.00    1.70
  -5 -16  -8   -0.20    0.50
   5 -16   8    0.70    0.70
  -5 -16   8    0.70    0.60
  -5 -16   8    0.80    0.50
   1 -17  -8   46.00    3.40
  -2 -17   8    3.20    0.90
  -3 -17  -8    4.80    1.10
  -3 -17   8    6.10    1.00
  -3 -17   8    7.80    1.40
  -4 -17  -8   -0.30    0.60
  -4 -17   8   -0.30    0.60
   0   0   9    0.00    0.40
   0   0  -9    0.10    0.40
   1   0   9    0.70    0.40
   1   0  -9   -0.50    0.40
  -1   0   9   -0.30    0.40
  -1   0  -9   -0.10    0.30
   2   0   9    0.20    0.40
   2   0  -9    0.00    0.50
  -2   0   9    0.00    0.50
  -2   0  -9    0.10    0.40
   3   0   9   -0.50    0.40
  -3   0   9    0.50    0.90
   3   0   9   -1.10    0.40
   3   0  -9    0.10    0.70
   4   0  -9   -0.30    0.90
   4   0  -9    0.10    0.80
   4   0   9    0.00    0.60
   4   0   9    0.40    0.80
   4   0   9    0.40    0.50
   5   0  -9    1.70    1.70
   5   0  -9    0.50    0.80
   5   0   9    1.30    0.70
  -6   0  -9   -0.10    1.10
   6   0  -9    0.00    0.80
   6   0   9    0.00    0.70
  -6   0   9    0.50    1.00
   7   0   9   -0.40    0.80
  -7   0  -9    1.20    1.10
   7   0  -9    1.40    0.90
  -7   0   9   -0.60    1.10
   8   0  -9    0.70    1.00
  -8   0  -9   -0.70    1.20
  -8   0   9    0.90    0.90
   8   0   9   -0.80    0.80
  -9   0  -9   -1.40    1.10
   9   0  -9   -0.70    1.10
   9   0   9    0.40    0.90
  -9   0   9   -1.10    0.80
 -10   0  -9    1.40    1.10
 -10   0   9    2.20    0.80
  10   0  -9    1.20    1.30
  10   0   9    0.50    0.90
 -11   0   9    0.10    0.70
  11   0   9    0.40    0.90
   0  -1  -9   -0.30    0.30
   0  -1   9   -0.20    0.40
   0   1  -9    0.00    0.30
   1   1  -9   95.79    3.60
  -1  -1  -9   95.79    3.50
   1  -1   9   96.09    3.40
  -1   1   9   99.39    3.60
   1  -1  -9   89.29    3.60
  -1   1  -9   92.39    3.30
  -1  -1   9   98.89    3.60
   1   1   9   95.19    3.50
  -2   1   9   80.99    3.20
   2   1  -9   73.19    3.10
  -2  -1  -9   73.09    2.90
   2  -1   9   78.89    2.70
   2   1   9   73.29    2.90
  -2   1  -9   73.79    2.70
   2  -1  -9   75.29    3.10
  -2  -1   9   75.39    3.20
   3   1  -9   61.89    2.80
  -3   1   9   56.69    2.90
   3  -1  -9   59.49    2.80
  -3  -1   9   53.99    2.90
   3   1   9   55.99    2.40
   4  -1   9   99.39    3.80
   4   1  -9  101.69    4.50
   4   1   9  101.79    3.80
   4   1   9  101.09    3.90
   4   1   9   99.59    3.80
   4  -1  -9   94.99    3.70
   4  -1  -9  105.39    4.40
   5  -1   9   83.99    3.20
   5   1  -9   81.59    3.20
   5   1  -9   80.09    4.70
   5  -1  -9   79.09    4.50
   5  -1  -9   79.39    3.20
   6  -1   9   21.90    1.60
  -6  -1  -9   18.30    1.90
   6  -1   9   17.60    3.30
   6   1  -9   23.20    1.70
  -6   1  -9   19.80    2.10
  -6  -1   9   20.10    1.80
   6  -1  -9   21.40    2.40
   6   1   9   20.70    1.60
   6  -1  -9   21.70    1.60
   7  -1   9   11.10    2.00
  -7  -1  -9    7.60    1.70
   7   1  -9    7.40    1.50
   7  -1   9    7.50    1.30
   7   1   9   10.20    1.40
  -7  -1   9    5.50    1.10
  -7   1  -9    6.90    1.30
   7  -1  -9   10.10    2.20
   7  -1  -9    8.20    1.40
   8   1  -9    8.30    1.70
  -8   1   9    4.30    1.00
   8  -1   9    6.70    1.20
  -8  -1  -9    4.70    1.20
   8  -1   9    5.50    1.90
   8  -1  -9    6.30    1.20
  -8   1  -9    7.20    1.50
   8   1   9    5.40    1.30
  -8  -1   9    7.80    1.40
  -9   1   9    5.10    1.00
  -9  -1  -9    8.40    1.80
   9  -1   9    3.30    1.00
   9   1  -9    2.60    1.20
   9  -1  -9    3.10    1.10
  -9   1  -9    4.40    1.30
  -9  -1   9    3.70    1.00
   9   1   9    4.00    1.00
  10  -1   9    2.90    0.90
 -10   1   9    3.70    0.80
 -10  -1  -9    4.80    1.10
  10  -1  -9    4.90    1.20
 -10  -1   9    3.10    0.80
  10   1   9    3.10    0.90
 -10   1  -9    3.90    1.80
 -11   1   9    2.40    0.70
  11  -1   9    2.70    0.90
  11   1   9    4.30    0.90
   0  -2   9 2293.77   69.89
   0  -2  -9 2148.58   69.89
   0   2  -9 2137.19   69.79
   0   2   9 2238.88   69.99
   1   2  -9  242.48    8.60
  -1   2   9  264.27    8.80
  -1  -2  -9  245.88    8.60
   1  -2   9  266.87    8.50
   1  -2  -9  247.18    8.70
   1   2   9  256.57    8.70
  -1   2  -9  258.97    8.40
  -1  -2   9  273.07    8.80
  -2  -2  -9    7.00    1.20
   2   2  -9    7.60    1.20
   2  -2   9    7.40    0.60
  -2   2   9    6.90    1.20
  -2  -2   9    6.10    1.30
   2  -2  -9    7.10    1.10
  -2   2  -9    7.10    0.60
   2   2   9    6.30    1.10
   3   2  -9  163.48    6.00
  -3   2   9  155.58    6.10
   3  -2  -9  171.68    6.00
   3   2   9  165.18    5.80
  -3  -2   9  149.29    6.10
   4   2  -9   10.10    2.10
   4  -2   9    6.70    1.20
   4   2   9    9.80    1.70
   4  -2  -9    9.30    1.10
   4   2   9   10.10    2.00
   4   2   9    9.80    1.10
   4  -2  -9    7.60    2.10
   5  -2   9    2.50    0.80
  -5  -2  -9    1.90    1.20
   5   2  -9    3.10    1.10
   5  -2  -9    1.00    1.80
   5  -2  -9    3.20    0.80
   5   2   9    2.40    0.80
  -5  -2   9    5.50    1.80
   6  -2   9  100.09    4.60
   6  -2   9   97.29    3.80
   6  -2   9   86.59    4.50
  -6  -2  -9   98.19    4.00
   6   2  -9   98.79    3.80
   6   2   9  103.19    3.90
  -6  -2   9   92.19    3.90
  -6   2  -9   89.59    4.10
   6  -2  -9   97.29    3.70
   6  -2  -9   95.59    4.00
   7  -2   9   10.00    2.70
   7   2  -9   13.20    1.80
   7  -2   9   12.50    1.40
   7   2   9   15.70    1.60
  -7   2  -9   12.70    2.00
   7  -2  -9   13.60    1.50
   7  -2  -9   11.10    2.10
   8   2  -9   50.99    2.70
  -8   2   9   50.69    2.60
  -8  -2  -9   46.70    2.70
   8  -2   9   49.40    3.20
  -8  -2   9   50.69    2.60
  -8   2  -9   48.20    3.00
   8  -2  -9   50.69    2.60
  -9   2   9   58.09    2.70
  -9  -2  -9   61.49    2.90
   9  -2   9   55.09    2.80
   9   2  -9   57.59    3.10
  -9   2  -9   56.09    3.10
   9   2   9   55.49    2.80
  -9  -2   9   58.59    2.70
   9  -2  -9   56.29    2.80
 -10  -2  -9   20.60    1.80
 -10   2   9   23.50    1.50
  10  -2   9   23.30    1.70
  10   2   9   22.00    1.70
 -10  -2   9   23.00    1.60
  10  -2  -9   23.30    2.00
 -11   2   9   -0.60    0.60
  11  -2   9    0.30    0.90
 -11  -2  -9   -1.70    1.40
  11   2   9   -0.70    0.90
 -11  -2   9    0.70    1.00
   0   3   9    0.60    0.60
   0   3  -9   -0.30    0.40
   0  -3  -9    0.00    0.40
   0  -3   9    0.20    0.50
   1  -3   9   67.09    2.50
  -1   3   9   63.79    2.90
  -1  -3  -9   62.09    2.70
   1   3  -9   65.59    2.70
   1  -3  -9   65.19    2.80
   1   3   9   63.09    2.80
  -1  -3   9   63.69    2.80
  -1   3  -9   66.69    2.40
  -2  -3  -9  159.28    5.60
  -2   3   9  148.49    5.70
  -2  -3  -9  142.19    5.20
   2   3   9  153.88    5.60
  -2  -3   9  156.58    5.70
   2  -3  -9  147.69    5.60
   3   3  -9  159.78    6.10
  -3   3   9  158.78    6.20
  -3  -3   9  145.19    6.10
   3  -3  -9  165.38    6.00
   3   3   9  162.98    6.00
   3  -3  -9  159.48    5.50
   4   3  -9  271.37    9.60
   4  -3   9  256.47    8.70
   4  -3  -9  263.57    8.70
   4   3   9  253.37    9.50
   4   3   9  251.97    9.30
   4  -3  -9  269.67    9.50
   5   3  -9   62.19    3.30
  -5  -3  -9   61.09    3.00
   5   3   9   70.09    2.80
   5  -3  -9   62.29    3.00
  -5  -3   9   59.49    3.00
   5  -3  -9   66.89    2.70
   5  -3  -9   65.79    4.60
   6  -3   9   21.00    2.50
  -6  -3  -9   26.00    2.10
   6  -3   9   26.20    1.70
   6   3  -9   20.20    2.00
   6  -3   9   26.80    2.80
  -6  -3  -9   26.30    2.70
  -6  -3   9   25.20    2.80
   6  -3  -9   23.70    2.20
  -6  -3   9   24.60    2.00
  -6   3  -9   23.30    2.40
   6   3   9   25.20    1.80
   6  -3  -9   25.60    1.70
   7  -3   9   58.99    2.70
  -7  -3  -9   55.99    2.90
   7   3  -9   56.49    2.90
   7  -3   9   55.29    3.40
  -7   3  -9   57.09    3.20
   7   3   9   55.69    2.80
  -7  -3   9   53.09    2.80
   7  -3  -9   61.99    2.70
   7  -3  -9   55.49    3.10
  -8  -3  -9   79.99    3.60
   8  -3   9   85.59    4.00
   8  -3   9   80.29    3.50
   8   3  -9   77.69    3.70
   8  -3  -9   84.99    3.60
   8   3   9   80.79    3.60
  -8   3  -9   80.19    3.90
  -8  -3   9   79.89    3.50
  -9  -3  -9   16.10    1.80
  -9   3   9   14.70    1.60
   9  -3   9   15.90    1.60
   9  -3  -9   16.60    1.70
  -9  -3   9   17.60    1.70
   9   3   9   16.80    1.70
 -10   3   9    4.60    1.10
 -10  -3  -9    3.10    0.90
  10  -3   9    2.00    1.00
  10   3   9    2.60    0.90
  10  -3  -9    1.60    1.10
 -10  -3   9    1.70    0.90
 -11   3   9    2.60    0.60
  11  -3   9    4.00    1.00
 -11  -3  -9    8.50    1.50
  11   3   9    3.10    1.00
   0   4   9 1079.39   34.60
   0  -4   9 1089.79   34.30
   0   4  -9 1099.19   34.30
   0  -4  -9 1019.80   34.70
  -1   4   9    2.30    0.80
  -1  -4  -9    1.80    0.70
   1  -4   9    2.20    0.50
  -1  -4  -9    2.90    1.30
   1   4  -9    2.20    0.70
   1   4   9    1.90    0.70
  -1  -4   9    2.00    0.70
   1  -4  -9    3.50    0.80
  -1   4  -9    4.30    0.80
   1  -4  -9    3.80    0.80
  -2   4   9  466.25   15.70
   2   4  -9  485.35   15.70
  -2  -4  -9  458.85   15.20
  -2  -4   9  468.95   15.70
   2  -4  -9  452.75   15.10
   2  -4  -9  478.25   15.60
   2   4   9  463.05   15.60
  -3  -4  -9   16.00    1.30
  -3   4   9   16.20    2.50
   3   4  -9   16.60    2.00
   3  -4  -9   12.80    2.10
   3  -4  -9   18.10    1.30
   3   4   9   10.80    2.60
   4   4  -9   16.40    2.90
   4  -4   9   10.40    1.40
   4  -4  -9   12.80    2.80
   4   4   9    9.60    1.70
   4  -4  -9   11.90    1.10
  -5  -4  -9   13.10    2.20
   5  -4   9   16.80    1.40
   5  -4   9   16.10    2.50
   5  -4   9   13.90    2.20
  -5  -4  -9   14.20    1.80
  -5  -4   9   14.60    2.20
  -5  -4   9   19.10    2.40
   5   4   9   17.10    1.40
  -5  -4   9   15.20    2.00
   5  -4  -9   15.80    1.80
   5  -4  -9   18.50    1.40
  -6  -4  -9   75.69    3.50
   6  -4   9   80.59    3.30
   6  -4   9   76.29    3.60
  -6  -4  -9   77.39    3.70
   6  -4   9   85.89    3.90
  -6  -4   9   78.59    3.70
  -6  -4   9   78.59    3.50
   6   4   9   77.19    3.40
  -6  -4   9   78.69    3.70
   6  -4  -9   81.09    3.30
   6  -4  -9   77.69    3.40
   7  -4   9   15.80    1.60
  -7  -4  -9   17.40    1.80
   7  -4   9   14.30    2.40
  -7  -4  -9   18.50    2.50
   7  -4   9   17.50    2.20
  -7  -4   9   16.30    1.90
   7  -4  -9   19.60    1.90
   7   4   9   15.10    1.60
   7  -4  -9   17.20    1.60
   8  -4   9    6.20    1.40
   8  -4   9    7.50    1.50
   8  -4   9    7.60    1.50
  -8  -4  -9    7.20    1.60
   8  -4  -9    4.50    1.00
  -8   4  -9    3.10    1.60
  -8  -4   9    5.20    2.10
  -8  -4   9    5.70    1.20
   8   4   9    5.80    1.20
   8  -4  -9    5.80    1.10
  -9   4   9    2.30    0.80
   9  -4   9    1.90    1.00
  -9  -4  -9    2.60    0.90
   9  -4   9    2.20    1.30
   9  -4  -9    2.70    1.00
   9   4   9    0.80    0.90
 -10   4   9    6.80    1.10
 -10  -4  -9    5.80    1.30
  10  -4   9    5.30    1.50
  10  -4  -9    6.40    1.70
  10   4   9    7.50    1.40
 -10  -4   9    7.70    1.70
 -11  -4  -9   -0.20    0.80
 -11   4   9    0.30    0.50
  11   4   9   -0.30    0.90
   0   5   9    0.10    1.00
   0  -5   9    1.00    0.70
   0  -5  -9   -1.00    0.70
   0   5  -9    0.20    0.70
   0  -5  -9    1.80    0.80
  -1   5   9  225.88    8.20
  -1  -5  -9  236.38    8.20
  -1  -5  -9  227.88    7.60
   1   5  -9  192.08    8.90
   1  -5  -9  234.48    8.10
  -1  -5   9  218.58    8.00
   1  -5  -9  227.08    7.60
   1   5   9  231.98    8.20
  -1   5  -9  238.38    7.70
   2   5  -9  236.28    8.30
  -2  -5  -9  221.78    7.60
  -2   5   9  207.38    8.30
   2   5   9  216.18    8.30
  -2  -5   9  224.28    8.30
   2  -5  -9  223.98    7.50
   2  -5  -9  241.68    8.20
   3   5  -9  130.19    5.50
   3  -5   9  106.09    4.40
  -3  -5  -9  124.59    4.50
   3  -5  -9  121.69    5.20
   3  -5  -9  127.89    4.40
   4  -5   9   79.19    4.30
   4  -5   9   62.49    2.80
  -4  -5  -9   70.29    3.30
   4  -5   9   62.49    3.30
   4  -5  -9   60.29    3.00
   4  -5  -9   65.69    2.70
   4   5   9   63.29    4.50
   4  -5  -9   71.59    4.50
  -5  -5  -9  246.08    8.30
  -5  -5  -9  231.98    8.20
   5  -5   9  231.68    8.20
   5  -5   9  235.58    8.50
   5  -5   9  238.38    8.00
   5  -5  -9  234.08    8.00
  -5  -5   9  227.68    8.10
  -5  -5   9  237.38    8.30
  -5  -5   9  230.38    8.20
   5  -5  -9  229.58    8.10
   6  -5   9  106.29    4.40
   6  -5   9  108.59    4.70
  -6  -5  -9  108.99    4.50
   6  -5   9  108.19    4.20
  -6  -5  -9  109.79    4.40
  -6  -5   9  103.79    4.40
  -6  -5   9  104.99    4.40
  -6  -5   9  104.49    4.30
   6   5   9  110.19    4.40
   6  -5  -9  111.39    4.30
   6  -5  -9  107.99    4.20
   7  -5   9   42.60    2.30
   7  -5   9   42.20    2.70
   7  -5   9   41.60    2.90
  -7  -5  -9   40.60    2.80
  -7  -5  -9   41.30    2.40
   7   5   9   43.70    2.40
  -7  -5   9   43.80    2.80
   7  -5  -9   41.90    2.30
   7  -5  -9   40.90    2.40
  -7  -5   9   39.60    2.60
  -7   5  -9   36.80    3.10
  -7  -5   9   41.10    2.50
  -8  -5  -9    7.20    1.60
   8  -5   9    6.60    1.40
   8  -5   9    7.00    1.30
   8  -5   9    6.80    1.20
  -8  -5   9    9.00    1.80
   8  -5  -9    7.50    1.50
   8   5   9    7.30    1.50
   8  -5  -9    7.20    1.60
  -8  -5   9    5.60    1.40
  -9   5   9    1.50    0.70
  -9  -5  -9   -0.40    0.80
   9  -5   9    1.60    1.00
   9  -5   9    1.00    1.30
  -9  -5   9    2.30    1.10
   9   5   9    1.40    1.00
   9  -5  -9   -0.50    0.90
 -10  -5  -9    2.20    0.80
  10  -5   9    2.80    1.00
 -10   5   9    1.70    0.70
  10   5   9    3.90    1.10
  10  -5  -9    2.60    1.00
 -11  -5  -9    2.00    0.80
   0   6  -9  266.57    9.10
   0  -6  -9  251.47    9.40
   0  -6  -9  263.57    8.70
  -1  -6  -9   15.90    1.30
   1   6  -9   15.50    2.10
   1  -6  -9   19.00    1.20
  -1   6  -9   16.30    1.60
   1  -6  -9   18.40    2.20
  -2  -6  -9   10.00    1.10
   2   6  -9    6.10    1.40
  -2   6  -9    8.30    1.20
   2  -6  -9   10.80    2.20
   2  -6  -9   10.80    1.10
  -2   6  -9    9.00    1.10
   3   6  -9  151.88    6.90
   3   6   9  150.78    6.60
   3  -6  -9  144.19    6.50
   3  -6  -9  157.78    5.40
  -4  -6  -9  168.58    6.10
   4  -6   9  164.18    6.10
   4  -6   9  166.38    5.80
   4  -6   9  165.18    6.30
  -4  -6  -9  171.18    6.10
   4  -6  -9  177.68    5.90
  -4  -6   9  167.48    6.10
   4  -6  -9  157.78    5.90
   4  -6  -9  157.18    6.40
  -4  -6   9  155.68    6.10
  -4  -6   9  172.88    6.10
  -5  -6  -9    2.70    1.10
   5  -6   9    1.70    1.10
   5  -6   9    3.00    0.90
  -5  -6  -9    3.20    1.10
   5  -6   9    1.50    1.30
  -5  -6   9    4.10    1.20
  -5  -6   9    3.90    1.40
   5  -6  -9    3.10    0.80
   5  -6  -9    2.10    1.00
  -5  -6   9    5.10    1.20
   6  -6   9   45.10    2.40
  -6  -6  -9   48.70    2.60
   6  -6   9   45.30    2.90
   6  -6   9   49.10    3.60
  -6  -6  -9   46.40    2.70
   6   6   9   47.10    2.60
   6  -6  -9   47.00    2.50
  -6  -6   9   46.30    2.80
  -6  -6   9   43.50    2.80
  -6  -6   9   49.30    2.60
   6  -6  -9   50.99    2.40
  -7  -6  -9    8.50    1.60
  -7  -6  -9    7.00    1.40
   7  -6   9    8.20    1.50
   7  -6   9   10.00    1.80
   7  -6   9    4.70    1.40
  -7  -6   9    5.80    1.30
   7  -6  -9    5.30    1.40
  -7  -6   9    5.30    1.30
   7  -6  -9    4.10    1.10
  -7  -6   9    5.20    1.40
   7   6   9    4.50    1.20
   8  -6   9    2.30    1.00
  -8  -6  -9    0.60    0.80
   8  -6   9    2.60    1.10
  -8  -6  -9    4.60    1.40
   8  -6   9    1.50    1.20
  -8  -6   9    2.00    1.60
  -8  -6   9    4.20    1.30
  -8  -6   9    0.10    1.10
   8  -6  -9    2.00    0.90
   8  -6  -9    2.40    1.00
   8   6   9    3.30    1.10
  -9   6   9   31.20    1.90
   9  -6   9   30.00    2.00
   9  -6   9   31.50    2.20
   9  -6   9   31.60    2.20
  -9  -6  -9   31.40    1.90
   9   6   9   30.30    2.10
   9  -6  -9   32.10    1.90
  -9  -6   9   30.00    2.30
   9  -6  -9   30.10    2.00
 -10   6   9   26.30    1.50
  10  -6   9   24.20    2.00
 -10  -6  -9   31.00    1.60
  10  -6  -9   25.60    1.80
  10   6   9   28.90    1.90
 -11   6   9    0.20    0.50
 -11  -6  -9   -0.40    0.70
   0   7  -9   -0.30    1.20
   0  -7  -9   -0.10    0.60
   0  -7  -9   -0.10    1.50
  -1  -7  -9  304.67   10.20
   1   7  -9  308.47   11.00
  -1   7  -9  310.27   10.50
   1  -7  -9  305.07   10.10
  -1   7  -9  292.77   10.60
   1  -7  -9  306.07   11.20
  -2  -7  -9   19.50    1.40
   2   7  -9   19.60    3.30
   2  -7  -9   14.30    1.40
   2  -7  -9   17.40    3.50
   3  -7   9  222.18    7.70
  -3  -7  -9  202.98    7.70
  -3  -7  -9  223.78    7.60
   3  -7   9  210.88    7.80
  -3  -7  -9  227.48    7.70
   3  -7  -9  209.28    7.50
   3  -7  -9  219.48    7.50
  -3  -7   9  217.88    7.60
  -3  -7   9  220.28    7.70
  -4  -7  -9   -0.40    1.00
   4  -7   9    2.20    1.10
   4  -7   9    2.90    1.40
   4  -7   9    1.30    1.80
  -4  -7  -9    4.30    1.20
   4  -7   9    1.70    1.10
  -4  -7   9    4.00    1.10
   4  -7  -9    1.40    0.90
  -4  -7   9    1.90    1.00
  -4  -7   9    2.30    1.40
   4  -7  -9    1.90    1.70
   4  -7  -9    2.20    0.70
   5  -7   9   10.10    2.00
   5  -7   9   12.20    1.70
   5  -7   9    7.50    1.50
  -5  -7  -9   10.40    1.70
  -5  -7  -9    8.50    1.60
  -5  -7   9   11.30    1.60
  -5  -7   9   12.10    1.60
   5  -7  -9    9.20    1.30
  -5  -7   9    9.30    1.70
   5  -7  -9    9.60    1.50
_computing_structure_solution     'SHELXT 2014/4 (Sheldrick, 2014)'
;
_shelx_hkl_checksum              98732
_shelx_res_file
;
    SKM185_0m_a.res created by SHELXL-2014/7
TITL SKM185_0m_a.res in Pbca
CELL  1.54178   9.8513  15.0619  28.9310   90.000   90.000   90.000
ZERR    8.000   0.0002   0.0002   0.0004    0.000    0.000    0.000
LATT 1
SYMM 1/2-X, -Y, 1/2+Z
SYMM -X, 1/2+Y, 1/2-Z
SYMM 1/2+X, 1/2-Y, -Z
SFAC C  H  N  O  S
UNIT 192  160  32  16  8
REM Old TITL SKM185_0m in Pbca
REM SHELXT solution in Pbca
REM R1 0.127,  Rweak 0.002,  Alpha 0.016,  Orientation as input
REM Formula found by SHELXT:  C24 N5 O S
L.S. 5
BOND $H
FMAP 2
PLAN 5
ACTA 140
MPLA C10 > C15
MPLA C1 > C5 N1
MPLA C18 > C24 N3 N4
SIZE 0.056 0.145 0.243
EQIV $1 x+1/2, y, -z+1/2
HTAB N3 N4_$1
CONF
TEMP -123
WGHT    0.045900    1.504600
EXTI    0.000508
FVAR       0.28243
S1    5   -0.008971    0.778457    0.345868    11.00000    0.02532    0.04797 =
         0.03263   -0.00463   -0.00383    0.00303
O1    4    0.662617    0.842165    0.365721    11.00000    0.03098    0.05097 =
         0.07207   -0.00207    0.01089   -0.00156
O2    4    0.596745    0.579789    0.553150    11.00000    0.04528    0.03653 =
         0.03644   -0.00005   -0.01095    0.00887
N1    3    0.230560    0.859653    0.333360    11.00000    0.02953    0.03652 =
         0.03034   -0.00208    0.00010    0.00661
N2    3    0.081057    0.629651    0.434160    11.00000    0.03555    0.03727 =
         0.06371    0.00712   -0.00520   -0.00274
N3    3    0.125890    0.718947    0.244560    11.00000    0.02037    0.03635 =
         0.03587   -0.00429   -0.00253    0.00333
H3A   2    0.208071    0.730559    0.258059    11.00000    0.05097
N4    3   -0.096316    0.715052    0.228751    11.00000    0.02249    0.03444 =
         0.03100   -0.00147   -0.00223    0.00303
C1    1    0.163528    0.798945    0.357811    11.00000    0.02718    0.03199 =
         0.02964   -0.00669   -0.00161    0.00517
C2    1    0.223401    0.751848    0.394386    11.00000    0.02714    0.02646 =
         0.03255   -0.00420   -0.00161    0.00324
C3    1    0.358188    0.769880    0.406573    11.00000    0.02702    0.02551 =
         0.03239   -0.00470   -0.00210    0.00411
C4    1    0.427227    0.834007    0.380872    11.00000    0.02657    0.02868 =
         0.03411   -0.00285   -0.00112    0.00298
C5    1    0.360178    0.877245    0.344413    11.00000    0.03025    0.03162 =
         0.03298   -0.00198    0.00116    0.00519
C6    1    0.428290    0.948837    0.316563    11.00000    0.03982    0.04472 =
         0.04300    0.00882    0.00341    0.00191
AFIX 137
H6A   2    0.366959    0.968797    0.292001    11.00000   -1.50000
H6B   2    0.511775    0.925343    0.302790    11.00000   -1.50000
H6C   2    0.450516    0.999019    0.336753    11.00000   -1.50000
AFIX   0
C7    1    0.571740    0.859962    0.392158    11.00000    0.02791    0.02851 =
         0.04998    0.00548   -0.00283    0.00178
C8    1    0.593633    0.912377    0.435497    11.00000    0.03465    0.04134 =
         0.06004   -0.00526   -0.01492   -0.00141
AFIX 137
H8A   2    0.690873    0.923618    0.439601    11.00000   -1.50000
H8B   2    0.559140    0.878770    0.462018    11.00000   -1.50000
H8C   2    0.545217    0.969050    0.433239    11.00000   -1.50000
AFIX   0
C9    1    0.146010    0.683744    0.417188    11.00000    0.02707    0.03073 =
         0.04186   -0.00292   -0.00490    0.00360
C10   1    0.424568    0.720170    0.444665    11.00000    0.02591    0.02440 =
         0.03489   -0.00296   -0.00519    0.00010
C11   1    0.542491    0.671695    0.436622    11.00000    0.02828    0.02773 =
         0.03399   -0.00413   -0.00256    0.00057
AFIX  43
H11   2    0.582596    0.672214    0.406760    11.00000   -1.20000
AFIX   0
C12   1    0.602279    0.622453    0.471885    11.00000    0.02673    0.02771 =
         0.03966   -0.00596   -0.00630    0.00304
AFIX  43
H12   2    0.681244    0.588123    0.465900    11.00000   -1.20000
AFIX   0
C13   1    0.545780    0.623806    0.515900    11.00000    0.03269    0.02510 =
         0.03449   -0.00213   -0.00860   -0.00105
C14   1    0.429254    0.673492    0.524543    11.00000    0.03298    0.03108 =
         0.03320   -0.00409   -0.00188   -0.00122
AFIX  43
H14   2    0.391745    0.675203    0.554781    11.00000   -1.20000
AFIX   0
C15   1    0.368446    0.720154    0.489200    11.00000    0.02733    0.02932 =
         0.03694   -0.00444   -0.00237    0.00211
AFIX  43
H15   2    0.287626    0.752664    0.495070    11.00000   -1.20000
AFIX   0
C16   1    0.710898    0.523553    0.546140    11.00000    0.04472    0.03388 =
         0.04861   -0.00205   -0.01685    0.00899
AFIX 137
H16A  2    0.686841    0.476254    0.524369    11.00000   -1.50000
H16B  2    0.738210    0.497255    0.575695    11.00000   -1.50000
H16C  2    0.786294    0.558404    0.533525    11.00000   -1.50000
AFIX   0
C17   1   -0.024509    0.823660    0.287958    11.00000    0.03086    0.03949 =
         0.03578   -0.00612   -0.00773    0.01071
AFIX  23
H17A  2   -0.116836    0.848258    0.283646    11.00000   -1.20000
H17B  2    0.041553    0.872563    0.283860    11.00000   -1.20000
AFIX   0
C18   1    0.000946    0.753840    0.252830    11.00000    0.02165    0.03482 =
         0.03038    0.00059   -0.00264    0.00456
C19   1    0.108238    0.651167    0.212952    11.00000    0.02616    0.03102 =
         0.03188    0.00126    0.00162    0.00212
C20   1    0.199367    0.591787    0.193021    11.00000    0.03044    0.04092 =
         0.04331   -0.00031    0.00472    0.00937
AFIX  43
H20   2    0.293773    0.593917    0.199628    11.00000   -1.20000
AFIX   0
C21   1    0.145429    0.529745    0.163198    11.00000    0.05030    0.03395 =
         0.04047   -0.00026    0.00882    0.01088
AFIX  43
H21   2    0.204254    0.487928    0.148948    11.00000   -1.20000
AFIX   0
C22   1    0.006670    0.526631    0.153337    11.00000    0.05447    0.02864 =
         0.03464   -0.00163    0.00124   -0.00363
AFIX  43
H22   2   -0.026530    0.482683    0.132674    11.00000   -1.20000
AFIX   0
C23   1   -0.083467    0.586099    0.172983    11.00000    0.03422    0.03421 =
         0.03516    0.00198   -0.00187   -0.00554
AFIX  43
H23   2   -0.177676    0.583955    0.166058    11.00000   -1.20000
AFIX   0
C24   1   -0.030955    0.649294    0.203319    11.00000    0.02550    0.02869 =
         0.02884    0.00265    0.00197    0.00099
HKLF 4
REM  SKM185_0m_a.res in Pbca
REM R1 =  0.0339 for    3787 Fo > 4sig(Fo)  and  0.0393 for all    4292 data
REM    288 parameters refined using      0 restraints
END
WGHT      0.0458      1.5177
REM Highest difference peak  0.222,  deepest hole -0.400,  1-sigma level  0.039
Q1    1   0.0379  0.6439  0.2098  11.00000  0.05    0.22
Q2    1   0.4076  0.8434  0.3614  11.00000  0.05    0.21
Q3    1   0.3904  0.7977  0.3923  11.00000  0.05    0.19
Q4    1   0.4912  0.8443  0.3870  11.00000  0.05    0.18
Q5    1  -0.0564  0.6196  0.1936  11.00000  0.05    0.18
;
_shelx_res_checksum              29270
loop_
_space_group_symop_operation_xyz
'x, y, z'
'-x+1/2, -y, z+1/2'
'-x, y+1/2, -z+1/2'
'x+1/2, -y+1/2, -z'
'-x, -y, -z'
'x-1/2, y, -z-1/2'
'x, -y-1/2, z-1/2'
'-x-1/2, y-1/2, z'
loop_
_atom_site_type_symbol
_atom_site_label
_atom_site_fract_x
_atom_site_fract_y
_atom_site_fract_z
_atom_site_U_iso_or_equiv
_atom_site_adp_type
_atom_site_calc_flag
_atom_site_occupancy
S S1 -0.00897(3) 0.77846(3) 0.34587(2) 0.03530(11) Uani d 1
O O1 0.66262(11) 0.84216(8) 0.36572(5) 0.0513(3) Uani d 1
O O2 0.59674(11) 0.57979(7) 0.55315(3) 0.0394(3) Uani d 1
N N1 0.23056(12) 0.85965(8) 0.33336(4) 0.0321(3) Uani d 1
N N2 0.08106(13) 0.62965(9) 0.43416(5) 0.0455(3) Uani d 1
N N3 0.12589(12) 0.71895(8) 0.24456(4) 0.0309(3) Uani d 1
H H3A 0.208(2) 0.7306(12) 0.2581(6) 0.051(5) Uiso d 1
N N4 -0.09632(11) 0.71505(8) 0.22875(4) 0.0293(2) Uani d 1
C C1 0.16353(14) 0.79895(9) 0.35781(4) 0.0296(3) Uani d 1
C C2 0.22340(13) 0.75185(9) 0.39439(5) 0.0287(3) Uani d 1
C C3 0.35819(13) 0.76988(8) 0.40657(5) 0.0283(3) Uani d 1
C C4 0.42723(13) 0.83401(9) 0.38087(5) 0.0298(3) Uani d 1
C C5 0.36018(14) 0.87725(9) 0.34441(5) 0.0316(3) Uani d 1
C C6 0.42829(16) 0.94884(11) 0.31656(6) 0.0425(4) Uani d 1
H H6A 0.3670 0.9688 0.2920 0.064 Uiso calc 1
H H6B 0.5118 0.9253 0.3028 0.064 Uiso calc 1
H H6C 0.4505 0.9990 0.3368 0.064 Uiso calc 1
C C7 0.57174(14) 0.85996(9) 0.39216(5) 0.0355(3) Uani d 1
C C8 0.59363(16) 0.91238(11) 0.43550(6) 0.0453(4) Uani d 1
H H8A 0.6909 0.9236 0.4396 0.068 Uiso calc 1
H H8B 0.5591 0.8788 0.4620 0.068 Uiso calc 1
H H8C 0.5452 0.9691 0.4332 0.068 Uiso calc 1
C C9 0.14601(14) 0.68374(9) 0.41719(5) 0.0332(3) Uani d 1
C C10 0.42457(13) 0.72017(8) 0.44466(5) 0.0284(3) Uani d 1
C C11 0.54249(14) 0.67169(9) 0.43662(5) 0.0300(3) Uani d 1
H H11 0.5826 0.6722 0.4068 0.036 Uiso calc 1
C C12 0.60228(13) 0.62245(9) 0.47188(5) 0.0314(3) Uani d 1
H H12 0.6812 0.5881 0.4659 0.038 Uiso calc 1
C C13 0.54578(14) 0.62381(9) 0.51590(5) 0.0308(3) Uani d 1
C C14 0.42925(14) 0.67349(9) 0.52454(5) 0.0324(3) Uani d 1
H H14 0.3917 0.6752 0.5548 0.039 Uiso calc 1
C C15 0.36845(14) 0.72015(9) 0.48920(5) 0.0312(3) Uani d 1
H H15 0.2876 0.7527 0.4951 0.037 Uiso calc 1
C C16 0.71090(17) 0.52355(10) 0.54614(6) 0.0424(4) Uani d 1
H H16A 0.6868 0.4763 0.5244 0.064 Uiso calc 1
H H16B 0.7382 0.4973 0.5757 0.064 Uiso calc 1
H H16C 0.7863 0.5584 0.5335 0.064 Uiso calc 1
C C17 -0.02451(15) 0.82366(10) 0.28796(5) 0.0354(3) Uani d 1
H H17A -0.1168 0.8483 0.2836 0.042 Uiso calc 1
H H17B 0.0416 0.8726 0.2839 0.042 Uiso calc 1
C C18 0.00095(13) 0.75384(9) 0.25283(5) 0.0289(3) Uani d 1
C C19 0.10824(13) 0.65117(9) 0.21295(5) 0.0297(3) Uani d 1
C C20 0.19937(15) 0.59179(10) 0.19302(5) 0.0382(3) Uani d 1
H H20 0.2938 0.5939 0.1996 0.046 Uiso calc 1
C C21 0.14543(17) 0.52975(10) 0.16320(5) 0.0416(4) Uani d 1
H H21 0.2043 0.4879 0.1489 0.050 Uiso calc 1
C C22 0.00667(17) 0.52663(10) 0.15334(5) 0.0393(3) Uani d 1
H H22 -0.0265 0.4827 0.1327 0.047 Uiso calc 1
C C23 -0.08347(15) 0.58610(10) 0.17298(5) 0.0345(3) Uani d 1
H H23 -0.1777 0.5840 0.1661 0.041 Uiso calc 1
C C24 -0.03096(13) 0.64929(9) 0.20332(4) 0.0277(3) Uani d 1
loop_
_atom_site_aniso_label
_atom_site_aniso_U_11
_atom_site_aniso_U_22
_atom_site_aniso_U_33
_atom_site_aniso_U_12
_atom_site_aniso_U_13
_atom_site_aniso_U_23
S1 0.02532(18) 0.0480(2) 0.03263(19) 0.00303(13) -0.00383(13) -0.00463(14)
O1 0.0310(6) 0.0510(7) 0.0721(8) -0.0016(5) 0.0109(5) -0.0021(6)
O2 0.0453(6) 0.0365(6) 0.0364(5) 0.0089(4) -0.0109(4) -0.0001(4)
N1 0.0295(6) 0.0365(6) 0.0303(5) 0.0066(5) 0.0001(5) -0.0021(5)
N2 0.0356(7) 0.0373(7) 0.0637(9) -0.0027(6) -0.0052(6) 0.0071(6)
N3 0.0204(6) 0.0363(6) 0.0359(6) 0.0033(4) -0.0025(4) -0.0043(5)
N4 0.0225(5) 0.0344(6) 0.0310(5) 0.0030(4) -0.0022(4) -0.0015(5)
C1 0.0272(7) 0.0320(7) 0.0296(6) 0.0052(5) -0.0016(5) -0.0067(5)
C2 0.0271(7) 0.0265(6) 0.0326(6) 0.0032(5) -0.0016(5) -0.0042(5)
C3 0.0270(7) 0.0255(7) 0.0324(6) 0.0041(5) -0.0021(5) -0.0047(5)
C4 0.0266(7) 0.0287(7) 0.0341(7) 0.0030(5) -0.0011(5) -0.0029(5)
C5 0.0302(7) 0.0316(7) 0.0330(7) 0.0052(5) 0.0012(5) -0.0020(5)
C6 0.0398(8) 0.0447(9) 0.0430(8) 0.0019(7) 0.0034(7) 0.0088(7)
C7 0.0279(7) 0.0285(7) 0.0500(8) 0.0018(5) -0.0028(6) 0.0055(6)
C8 0.0347(8) 0.0413(9) 0.0600(10) -0.0014(6) -0.0149(7) -0.0053(7)
C9 0.0271(7) 0.0307(7) 0.0419(7) 0.0036(5) -0.0049(6) -0.0029(6)
C10 0.0259(7) 0.0244(7) 0.0349(7) 0.0001(5) -0.0052(5) -0.0030(5)
C11 0.0283(7) 0.0277(7) 0.0340(6) 0.0006(5) -0.0026(5) -0.0041(5)
C12 0.0267(6) 0.0277(7) 0.0397(7) 0.0030(5) -0.0063(5) -0.0060(5)
C13 0.0327(7) 0.0251(7) 0.0345(7) -0.0011(5) -0.0086(5) -0.0021(5)
C14 0.0330(7) 0.0311(7) 0.0332(7) -0.0012(5) -0.0019(5) -0.0041(5)
C15 0.0273(7) 0.0293(7) 0.0369(7) 0.0021(5) -0.0024(5) -0.0044(5)
C16 0.0447(9) 0.0339(8) 0.0486(9) 0.0090(6) -0.0169(7) -0.0021(6)
C17 0.0309(7) 0.0395(8) 0.0358(7) 0.0107(6) -0.0077(6) -0.0061(6)
C18 0.0217(6) 0.0348(7) 0.0304(6) 0.0046(5) -0.0026(5) 0.0006(5)
C19 0.0262(6) 0.0310(7) 0.0319(6) 0.0021(5) 0.0016(5) 0.0013(5)
C20 0.0304(7) 0.0409(8) 0.0433(8) 0.0094(6) 0.0047(6) -0.0003(6)
C21 0.0503(9) 0.0339(8) 0.0405(8) 0.0109(7) 0.0088(7) -0.0003(6)
C22 0.0545(10) 0.0286(7) 0.0346(7) -0.0036(6) 0.0012(6) -0.0016(6)
C23 0.0342(7) 0.0342(7) 0.0352(7) -0.0055(6) -0.0019(6) 0.0020(6)
C24 0.0255(6) 0.0287(7) 0.0288(6) 0.0010(5) 0.0020(5) 0.0027(5)
loop_
_atom_type_symbol
_atom_type_description
_atom_type_scat_dispersion_real
_atom_type_scat_dispersion_imag
_atom_type_scat_source
C C 0.0181 0.0091 'International Tables Vol C Tables 4.2.6.8 and 6.1.1.4'
H H 0.0000 0.0000 'International Tables Vol C Tables 4.2.6.8 and 6.1.1.4'
N N 0.0311 0.0180 'International Tables Vol C Tables 4.2.6.8 and 6.1.1.4'
O O 0.0492 0.0322 'International Tables Vol C Tables 4.2.6.8 and 6.1.1.4'
S S 0.3331 0.5567 'International Tables Vol C Tables 4.2.6.8 and 6.1.1.4'
loop_
_geom_angle_atom_site_label_1
_geom_angle_atom_site_label_2
_geom_angle_atom_site_label_3
_geom_angle
C1 S1 C17 101.35(7)
C13 O2 C16 117.95(12)
C1 N1 C5 118.73(12)
C18 N3 C19 106.75(11)
C18 N3 H3A 130.7(12)
C19 N3 H3A 122.3(12)
C18 N4 C24 104.95(11)
N1 C1 C2 122.62(12)
N1 C1 S1 119.65(10)
C2 C1 S1 117.69(11)
C3 C2 C1 119.35(13)
C3 C2 C9 121.70(12)
C1 C2 C9 118.91(12)
C4 C3 C2 117.52(12)
C4 C3 C10 122.00(12)
C2 C3 C10 120.46(12)
C3 C4 C5 119.45(12)
C3 C4 C7 121.51(12)
C5 C4 C7 119.02(12)
N1 C5 C4 122.31(13)
N1 C5 C6 115.99(12)
C4 C5 C6 121.66(13)
C5 C6 H6A 109.5
C5 C6 H6B 109.5
H6A C6 H6B 109.5
C5 C6 H6C 109.5
H6A C6 H6C 109.5
H6B C6 H6C 109.5
O1 C7 C8 122.73(14)
O1 C7 C4 120.25(14)
C8 C7 C4 116.92(13)
C7 C8 H8A 109.5
C7 C8 H8B 109.5
H8A C8 H8B 109.5
C7 C8 H8C 109.5
H8A C8 H8C 109.5
H8B C8 H8C 109.5
N2 C9 C2 177.63(16)
C11 C10 C15 118.86(12)
C11 C10 C3 120.55(12)
C15 C10 C3 120.58(12)
C10 C11 C12 120.68(13)
C10 C11 H11 119.7
C12 C11 H11 119.7
C13 C12 C11 119.62(13)
C13 C12 H12 120.2
C11 C12 H12 120.2
O2 C13 C12 124.79(13)
O2 C13 C14 115.05(12)
C12 C13 C14 120.16(12)
C15 C14 C13 119.94(13)
C15 C14 H14 120.0
C13 C14 H14 120.0
C14 C15 C10 120.71(13)
C14 C15 H15 119.6
C10 C15 H15 119.6
O2 C16 H16A 109.5
O2 C16 H16B 109.5
H16A C16 H16B 109.5
O2 C16 H16C 109.5
H16A C16 H16C 109.5
H16B C16 H16C 109.5
C18 C17 S1 110.62(10)
C18 C17 H17A 109.5
S1 C17 H17A 109.5
C18 C17 H17B 109.5
S1 C17 H17B 109.5
H17A C17 H17B 108.1
N4 C18 N3 113.14(12)
N4 C18 C17 123.51(12)
N3 C18 C17 123.20(12)
N3 C19 C20 131.89(13)
N3 C19 C24 105.67(11)
C20 C19 C24 122.44(13)
C21 C20 C19 116.50(14)
C21 C20 H20 121.8
C19 C20 H20 121.8
C20 C21 C22 121.85(14)
C20 C21 H21 119.1
C22 C21 H21 119.1
C23 C22 C21 121.49(14)
C23 C22 H22 119.3
C21 C22 H22 119.3
C22 C23 C24 117.55(13)
C22 C23 H23 121.2
C24 C23 H23 121.2
N4 C24 C23 130.31(12)
N4 C24 C19 109.49(11)
C23 C24 C19 120.17(13)
loop_
_geom_bond_atom_site_label_1
_geom_bond_atom_site_label_2
_geom_bond_distance
S1 C1 1.7614(14)
S1 C17 1.8149(15)
O1 C7 1.2076(19)
O2 C13 1.3613(16)
O2 C16 1.4224(18)
N1 C1 1.3314(18)
N1 C5 1.3427(18)
N2 C9 1.146(2)
N3 C18 1.3596(17)
N3 C19 1.3815(18)
N3 H3A 0.92(2)
N4 C18 1.3209(18)
N4 C24 1.3917(17)
C1 C2 1.4039(19)
C2 C3 1.4004(19)
C2 C9 1.438(2)
C3 C4 1.3958(19)
C3 C10 1.4841(18)
C4 C5 1.4046(19)
C4 C7 1.5120(19)
C5 C6 1.504(2)
C6 H6A 0.9800
C6 H6B 0.9800
C6 H6C 0.9800
C7 C8 1.497(2)
C8 H8A 0.9800
C8 H8B 0.9800
C8 H8C 0.9800
C10 C11 1.3917(19)
C10 C15 1.4021(19)
C11 C12 1.3920(19)
C11 H11 0.9500
C12 C13 1.390(2)
C12 H12 0.9500
C13 C14 1.393(2)
C14 C15 1.378(2)
C14 H14 0.9500
C15 H15 0.9500
C16 H16A 0.9800
C16 H16B 0.9800
C16 H16C 0.9800
C17 C18 1.4838(19)
C17 H17A 0.9900
C17 H17B 0.9900
C19 C20 1.3922(19)
C19 C24 1.3995(18)
C20 C21 1.378(2)
C20 H20 0.9500
C21 C22 1.397(2)
C21 H21 0.9500
C22 C23 1.383(2)
C22 H22 0.9500
C23 C24 1.3942(19)
C23 H23 0.9500
loop_
_geom_hbond_atom_site_label_D
_geom_hbond_atom_site_label_H
_geom_hbond_atom_site_label_A
_geom_hbond_site_symmetry_A
_geom_hbond_distance_DH
_geom_hbond_distance_HA
_geom_hbond_distance_DA
_geom_hbond_angle_DHA
N3 H3A N4 6_656 0.92(2) 1.98(2) 2.8441(16) 157.1(17)
loop_
_geom_torsion_atom_site_label_1
_geom_torsion_atom_site_label_2
_geom_torsion_atom_site_label_3
_geom_torsion_atom_site_label_4
_geom_torsion
C5 N1 C1 C2 -0.72(19)
C5 N1 C1 S1 176.93(10)
C17 S1 C1 N1 19.43(12)
C17 S1 C1 C2 -162.81(10)
N1 C1 C2 C3 1.2(2)
S1 C1 C2 C3 -176.50(10)
N1 C1 C2 C9 -176.39(12)
S1 C1 C2 C9 5.92(17)
C1 C2 C3 C4 -0.78(18)
C9 C2 C3 C4 176.73(12)
C1 C2 C3 C10 -179.13(12)
C9 C2 C3 C10 -1.62(19)
C2 C3 C4 C5 -0.01(19)
C10 C3 C4 C5 178.31(12)
C2 C3 C4 C7 178.31(12)
C10 C3 C4 C7 -3.4(2)
C1 N1 C5 C4 -0.13(19)
C1 N1 C5 C6 -177.84(12)
C3 C4 C5 N1 0.5(2)
C7 C4 C5 N1 -177.87(12)
C3 C4 C5 C6 178.07(13)
C7 C4 C5 C6 -0.3(2)
C3 C4 C7 O1 112.49(16)
C5 C4 C7 O1 -69.18(19)
C3 C4 C7 C8 -70.98(18)
C5 C4 C7 C8 107.35(16)
C4 C3 C10 C11 -56.59(18)
C2 C3 C10 C11 121.69(14)
C4 C3 C10 C15 124.37(14)
C2 C3 C10 C15 -57.35(17)
C15 C10 C11 C12 1.36(19)
C3 C10 C11 C12 -177.70(12)
C10 C11 C12 C13 -1.9(2)
C16 O2 C13 C12 -4.4(2)
C16 O2 C13 C14 176.31(12)
C11 C12 C13 O2 -178.69(12)
C11 C12 C13 C14 0.6(2)
O2 C13 C14 C15 -179.48(12)
C12 C13 C14 C15 1.2(2)
C13 C14 C15 C10 -1.7(2)
C11 C10 C15 C14 0.4(2)
C3 C10 C15 C14 179.48(12)
C1 S1 C17 C18 91.64(11)
C24 N4 C18 N3 0.80(15)
C24 N4 C18 C17 -174.81(13)
C19 N3 C18 N4 -0.81(16)
C19 N3 C18 C17 174.82(13)
S1 C17 C18 N4 103.92(14)
S1 C17 C18 N3 -71.25(16)
C18 N3 C19 C20 -178.33(15)
C18 N3 C19 C24 0.44(15)
N3 C19 C20 C21 178.13(14)
C24 C19 C20 C21 -0.5(2)
C19 C20 C21 C22 0.2(2)
C20 C21 C22 C23 0.2(2)
C21 C22 C23 C24 -0.3(2)
C18 N4 C24 C23 177.89(14)
C18 N4 C24 C19 -0.49(15)
C22 C23 C24 N4 -178.18(13)
C22 C23 C24 C19 0.0(2)
N3 C19 C24 N4 0.02(15)
C20 C19 C24 N4 178.94(12)
N3 C19 C24 C23 -178.55(12)
C20 C19 C24 C23 0.4(2)

_cod_database_fobs_code 1543040
