#------------------------------------------------------------------------------
#$Date: 2017-07-11 14:26:40 +0300 (Tue, 11 Jul 2017) $
#$Revision: 198632 $
#$URL: file:///home/coder/svn-repositories/cod/cif/1/54/36/1543653.cif $
#------------------------------------------------------------------------------
#
# This file is available in the Crystallography Open Database (COD),
# http://www.crystallography.net/
#
# All data on this site have been placed in the public domain by the
# contributors.
#
data_1543653
loop_
_publ_author_name
'Frutos, Mar\'ia'
'Avello, Marta G.'
'Viso, Alma'
'Fern\'andez de la Pradilla, Roberto'
'de la Torre, Mar\'ia C'
'Sierra, Miguel A.'
'Gornitzka, Heinz'
'Hemmert, Catherine'
_publ_section_title
;
 Gold Sulfinyl Mesoionic Carbenes: Synthesis, Structure, and Catalytic
 Activity.
;
_journal_issue                   15
_journal_name_full               'Organic letters'
_journal_page_first              3570
_journal_page_last               3573
_journal_paper_doi               10.1021/acs.orglett.6b01555
_journal_volume                  18
_journal_year                    2016
_chemical_formula_sum            'C18 H19 Au Cl N3 O S'
_chemical_formula_weight         557.84
_chemical_name_systematic
; 
 ? 
;
_space_group_crystal_system      orthorhombic
_space_group_IT_number           19
_space_group_name_Hall           'P 2ac 2ab'
_space_group_name_H-M_alt        'P 21 21 21'
_symmetry_space_group_name_Hall  'P 2ac 2ab'
_symmetry_space_group_name_H-M   'P 21 21 21'
_atom_sites_solution_hydrogens   geom
_audit_creation_method           SHELXL-2014
_cell_angle_alpha                90
_cell_angle_beta                 90
_cell_angle_gamma                90
_cell_formula_units_Z            4
_cell_length_a                   7.5537(2)
_cell_length_b                   14.1240(5)
_cell_length_c                   18.0020(6)
_cell_measurement_reflns_used    9953
_cell_measurement_temperature    100(2)
_cell_measurement_theta_max      32.92
_cell_measurement_theta_min      2.68
_cell_volume                     1920.61(11)
_computing_cell_refinement       'Bruker SAINT'
_computing_data_collection       'Bruker APEX2'
_computing_data_reduction        'Bruker SAINT'
_computing_molecular_graphics    'Bruker SHELXTL'
_computing_publication_material  'Bruker SHELXTL'
_computing_structure_refinement  'SHELXL-2014 (Sheldrick, 2014)'
_computing_structure_solution    'SHELXS-97 (Sheldrick 2008)'
_diffrn_ambient_temperature      100(2)
_diffrn_measured_fraction_theta_full 0.989
_diffrn_measured_fraction_theta_max 0.992
_diffrn_measurement_device_type  'Bruker APEX-II CCD'
_diffrn_measurement_method       '\f and \w scans'
_diffrn_radiation_type           MoK\a
_diffrn_radiation_wavelength     0.71073
_diffrn_reflns_av_R_equivalents  0.0208
_diffrn_reflns_av_unetI/netI     0.0170
_diffrn_reflns_Laue_measured_fraction_full 0.989
_diffrn_reflns_Laue_measured_fraction_max 0.992
_diffrn_reflns_limit_h_max       10
_diffrn_reflns_limit_h_min       -7
_diffrn_reflns_limit_k_max       18
_diffrn_reflns_limit_k_min       -18
_diffrn_reflns_limit_l_max       24
_diffrn_reflns_limit_l_min       -20
_diffrn_reflns_number            19840
_diffrn_reflns_point_group_measured_fraction_full 0.992
_diffrn_reflns_point_group_measured_fraction_max 0.994
_diffrn_reflns_theta_full        25.242
_diffrn_reflns_theta_max         28.281
_diffrn_reflns_theta_min         5.103
_exptl_absorpt_coefficient_mu    7.918
_exptl_absorpt_correction_T_max  0.7465
_exptl_absorpt_correction_T_min  0.5276
_exptl_absorpt_correction_type   multi-scan
_exptl_absorpt_process_details   'SADABS (Bruker-AXS)'
_exptl_crystal_colour            colorless
_exptl_crystal_density_diffrn    1.929
_exptl_crystal_description       block
_exptl_crystal_F_000             1072
_exptl_crystal_size_max          0.4
_exptl_crystal_size_mid          0.3
_exptl_crystal_size_min          0.3
_refine_diff_density_max         0.302
_refine_diff_density_min         -0.256
_refine_diff_density_rms         0.052
_refine_ls_abs_structure_details
; 
 Flack x determined using 1997 quotients [(I+)-(I-)]/[(I+)+(I-)] 
 (Parsons, Flack and Wagner, Acta Cryst. B69 (2013) 249-259). 
;
_refine_ls_abs_structure_Flack   -0.019(2)
_refine_ls_extinction_method     none
_refine_ls_goodness_of_fit_ref   1.050
_refine_ls_hydrogen_treatment    constr
_refine_ls_matrix_type           full
_refine_ls_number_parameters     229
_refine_ls_number_reflns         4737
_refine_ls_number_restraints     0
_refine_ls_restrained_S_all      1.050
_refine_ls_R_factor_all          0.0108
_refine_ls_R_factor_gt           0.0104
_refine_ls_shift/su_max          0.003
_refine_ls_shift/su_mean         0.000
_refine_ls_structure_factor_coef Fsqd
_refine_ls_weighting_details
'w=1/[\s^2^(Fo^2^)+(0.0096P)^2^+0.2787P] where P=(Fo^2^+2Fc^2^)/3'
_refine_ls_weighting_scheme      calc
_refine_ls_wR_factor_gt          0.0240
_refine_ls_wR_factor_ref         0.0241
_reflns_Friedel_coverage         0.759
_reflns_Friedel_fraction_full    0.997
_reflns_Friedel_fraction_max     0.998
_reflns_number_gt                4656
_reflns_number_total             4737
_reflns_threshold_expression     'I > 2\s(I)'
_cod_data_source_file            ol6b01555_si_003.cif
_cod_data_source_block           mfp821m
_cod_depositor_comments
;Adding full bibliography for 1543653--1543655.cif.

The following automatic conversions were performed:

'_exptl_absorpt_correction_type' value 'multi-scans' was replaced
with the value 'multi-scan' as specified in the replacement file
'src/cod-tools/trunk/data/replacement-values/replacement_values.lst'.

Automatic conversion script
Id: cif_fix_values 5376 2017-05-30 11:51:03Z andrius 
;
_cod_database_code               1543653
#BEGIN Tags that were not found in dictionaries:
_shelx_space_group_comment
; 
The symmetry employed for this shelxl refinement is uniquely defined 
by the following loop, which should always be used as a source of 
symmetry information in preference to the above space-group names. 
They are only intended as comments. 
;
_shelxl_version_number           2014-3
_shelx_res_file
; 
TITL mfp821m_a.res in P2(1)2(1)2(1) 
CELL  0.71073   7.5537  14.1240  18.0020   90.000   90.000   90.000 
ZERR    4.000   0.0002   0.0005   0.0006    0.000    0.000    0.000 
LATT -1 
SYMM 1/2-X, -Y, 1/2+Z 
SYMM -X, 1/2+Y, 1/2-Z 
SYMM 1/2+X, 1/2-Y, -Z 
SFAC C  H  N  O  S  Cl Au 
UNIT 72  76  12  4  4  4  4 
OMIT   0   1   1 
OMIT  1   1   1 
OMIT  1   0   2 
OMIT -1   1   1 
OMIT  1   1   2 
OMIT  2   0   4 
L.S. 10 
SHEL 4 0.75 
ACTA 
BOND $H 
FMAP 2 
PLAN 20 
TEMP -173.000 
WGHT    0.009600    0.278700 
FVAR       0.09324 
MOLE 1 
AU1   7    0.440931    0.778107    0.451089    11.00000    0.01697    0.01392 = 
         0.01629    0.00034    0.00175   -0.00203 
CL1   6    0.440093    0.861179    0.342384    11.00000    0.03252    0.02174 = 
         0.02079    0.00594    0.00499    0.00288 
C1    1    0.455703    0.705615    0.545002    11.00000    0.01400    0.01737 = 
         0.01742   -0.00283    0.00037   -0.00542 
C2    1    0.497862    0.612538    0.558971    11.00000    0.02279    0.01530 = 
         0.01219   -0.00074    0.00433   -0.00553 
N1    3    0.506741    0.600977    0.634346    11.00000    0.02527    0.01616 = 
         0.01318   -0.00038    0.00353   -0.00438 
N2    3    0.470401    0.680042    0.669165    11.00000    0.02176    0.02005 = 
         0.01554   -0.00333    0.00311   -0.00434 
N3    3    0.438932    0.741852    0.615213    11.00000    0.01599    0.01489 = 
         0.01827   -0.00369    0.00106   -0.00393 
C3    1    0.557098    0.517308    0.677103    11.00000    0.03789    0.02081 = 
         0.01707    0.00509    0.00319   -0.00163 
AFIX 137 
H3A   2    0.585131    0.535965    0.728200    11.00000   -1.50000 
H3B   2    0.661213    0.487758    0.654355    11.00000   -1.50000 
H3C   2    0.458735    0.472067    0.677440    11.00000   -1.50000 
AFIX   0 
S1    5    0.528306    0.523322    0.490477    11.00000    0.03293    0.01657 = 
         0.01680   -0.00376    0.01150   -0.00765 
O1    4    0.710411    0.483755    0.496406    11.00000    0.02838    0.03001 = 
         0.04516   -0.01271    0.01974   -0.00585 
C4    1    0.382979    0.437344    0.531353    11.00000    0.02317    0.01338 = 
         0.01344   -0.00299    0.00373   -0.00424 
C5    1    0.449548    0.347693    0.545650    11.00000    0.02886    0.01797 = 
         0.02712   -0.00365    0.00269    0.00092 
AFIX  43 
H5    2    0.568792    0.332341    0.533977    11.00000   -1.20000 
AFIX   0 
C6    1    0.337855    0.280764    0.577457    11.00000    0.04843    0.01328 = 
         0.02890    0.00063    0.00104   -0.00494 
AFIX  43 
H6    2    0.381957    0.219089    0.587502    11.00000   -1.20000 
AFIX   0 
C7    1    0.164893    0.301893    0.594701    11.00000    0.04388    0.03029 = 
         0.01787   -0.00604    0.00553   -0.02239 
C8    1    0.100029    0.391188    0.577853    11.00000    0.02269    0.03943 = 
         0.01993   -0.00718    0.00300   -0.01226 
AFIX  43 
H8    2   -0.020276    0.405715    0.588185    11.00000   -1.20000 
AFIX   0 
C9    1    0.207903    0.459691    0.546153    11.00000    0.02407    0.02362 = 
         0.01624   -0.00188   -0.00091    0.00030 
AFIX  43 
H9    2    0.162569    0.520744    0.534817    11.00000   -1.20000 
AFIX   0 
C10   1    0.049382    0.229132    0.632947    11.00000    0.07488    0.04530 = 
         0.03073   -0.00434    0.01272   -0.04322 
AFIX 137 
H10A  2    0.090100    0.165399    0.619859    11.00000   -1.50000 
H10B  2   -0.073645    0.237195    0.616865    11.00000   -1.50000 
H10C  2    0.056910    0.237696    0.686876    11.00000   -1.50000 
AFIX   0 
C11   1    0.388452    0.840001    0.635031    11.00000    0.01547    0.01772 = 
         0.02591   -0.00906   -0.00297    0.00164 
AFIX  13 
H11   2    0.325150    0.868233    0.591562    11.00000   -1.20000 
AFIX   0 
C12   1    0.260492    0.838603    0.700621    11.00000    0.01955    0.03329 = 
         0.04671   -0.02001    0.01244   -0.01008 
AFIX 137 
H12A  2    0.160953    0.796492    0.689330    11.00000   -1.50000 
H12B  2    0.216112    0.902774    0.709671    11.00000   -1.50000 
H12C  2    0.322236    0.815646    0.744981    11.00000   -1.50000 
AFIX   0 
C13   1    0.547894    0.901365    0.651762    11.00000    0.01368    0.01775 = 
         0.01197   -0.00644    0.00103   -0.00066 
C14   1    0.545441    0.994375    0.626310    11.00000    0.01817    0.02437 = 
         0.01667    0.00129   -0.00155   -0.00144 
AFIX  43 
H14   2    0.453415    1.015116    0.594232    11.00000   -1.20000 
AFIX   0 
C15   1    0.678415    1.057111    0.647997    11.00000    0.02832    0.02036 = 
         0.02231    0.00421   -0.00089   -0.00710 
AFIX  43 
H15   2    0.677121    1.120531    0.630427    11.00000   -1.20000 
AFIX   0 
C16   1    0.811700    1.027386    0.694843    11.00000    0.02126    0.02714 = 
         0.02073   -0.00167   -0.00006   -0.01075 
AFIX  43 
H16   2    0.900715    1.070582    0.710372    11.00000   -1.20000 
AFIX   0 
C17   1    0.815480    0.934459    0.719184    11.00000    0.01266    0.02831 = 
         0.01711   -0.00282   -0.00084   -0.00142 
AFIX  43 
H17   2    0.908345    0.913904    0.750908    11.00000   -1.20000 
AFIX   0 
C18   1    0.684952    0.871069    0.697692    11.00000    0.01705    0.01614 = 
         0.01966   -0.00206    0.00120    0.00120 
AFIX  43 
H18   2    0.689041    0.807238    0.714240    11.00000   -1.20000 
AFIX   0 
HKLF 4 
  
REM  mfp821m_a.res in P2(1)2(1)2(1) 
REM R1 =  0.0104 for    4656 Fo > 4sig(Fo)  and  0.0108 for all    4737 data 
REM    229 parameters refined using      0 restraints 
  
END 
  
WGHT      0.0096      0.2787 
  
REM Highest difference peak  0.302,  deepest hole -0.256,  1-sigma level  0.052 
Q1    1   0.4338  0.7212  0.5094  11.00000  0.05    0.30 
Q2    1   0.2945  0.4424  0.5409  11.00000  0.05    0.29 
Q3    1   0.6212  1.0234  0.6370  11.00000  0.05    0.25 
Q4    1   0.3345  0.7801  0.4730  11.00000  0.05    0.24 
Q5    1   0.4257  0.7235  0.5752  11.00000  0.05    0.23 
Q6    1   0.5537  0.7752  0.4424  11.00000  0.05    0.23 
Q7    1   0.5519  0.7758  0.4602  11.00000  0.05    0.23 
Q8    1   0.4582  0.6561  0.5479  11.00000  0.05    0.22 
Q9    1   0.2224  0.7850  0.7140  11.00000  0.05    0.22 
Q10   1   0.7435  0.9101  0.6881  11.00000  0.05    0.21 
Q11   1   0.1586  0.4193  0.5430  11.00000  0.05    0.21 
Q12   1   0.4223  0.3963  0.5476  11.00000  0.05    0.20 
Q13   1   0.4170  0.4622  0.5081  11.00000  0.05    0.20 
Q14   1   0.6112  0.8955  0.6767  11.00000  0.05    0.20 
Q15   1   0.2569  0.2985  0.5686  11.00000  0.05    0.20 
Q16   1   0.4774  0.5776  0.5343  11.00000  0.05    0.19 
Q17   1   0.7376  0.4475  0.5025  11.00000  0.05    0.19 
Q18   1   0.1351  0.2751  0.6120  11.00000  0.05    0.19 
Q19   1   0.7308  1.0343  0.6735  11.00000  0.05    0.19 
Q20   1   0.3643  0.8463  0.4579  11.00000  0.05    0.19 
;
_shelx_res_checksum              12504
_shelx_hkl_file
; 
   1   0   0   -1.48    0.01 
   1   0   0   -1.48    0.01 
  -1   0   0   -1.48    0.01 
  -1   0   0   -1.39    0.02 
  -1   0   0   -1.46    0.02 
   2   0   0  979.85   24.22 
  -2   0   0  988.42   24.21 
   2   0   0  983.27   23.71 
  -2   0   0 1000.00   23.63 
   3   0   0   -0.01    0.06 
   3   0   0   -0.05    0.06 
  -3   0   0    0.00    0.06 
  -3   0   0   -0.06    0.05 
  -4   0   0   50.33    1.29 
  -4   0   0   50.61    1.30 
   4   0   0   50.20    1.31 
   4   0   0   48.23    1.29 
  -5   0   0    0.23    0.08 
   5   0   0    0.31    0.11 
   5   0   0    0.38    0.13 
  -5   0   0    0.14    0.08 
   6   0   0   70.92    1.86 
   6   0   0   68.15    1.83 
  -6   0   0   71.12    1.76 
   7   0   0    0.56    0.19 
   7   0   0    0.17    0.17 
   8   0   0  214.34    5.34 
   9   0   0    0.07    0.25 
  10   0   0   56.85    1.68 
   0   1   0    0.00    0.01 
   0   1   0    0.00    0.01 
   0  -1   0    0.00    0.00 
   0  -1   0    0.00    0.01 
   0  -1   0    0.00    0.00 
   0   1   0    0.00    0.00 
  -1  -1   0   11.01    0.30 
  -1   1   0   10.50    0.31 
  -1   1   0   10.60    0.32 
  -1   1   0   10.71    0.31 
  -2   1   0  545.44   13.76 
  -2   1   0  549.79   13.79 
   2   1   0  561.58   13.73 
   2  -1   0  559.51   13.55 
   2  -1   0  562.56   13.82 
   2  -1   0  582.44   13.79 
  -2   1   0  580.21   13.50 
  -2  -1   0  539.94   13.72 
  -3   1   0   23.26    0.64 
  -3  -1   0   24.50    0.64 
   3  -1   0   24.65    0.68 
  -3  -1   0   25.80    0.64 
   3   1   0   24.19    0.64 
   3   1   0   24.41    0.64 
   3  -1   0   24.05    0.68 
  -4   1   0  588.73   14.33 
   4  -1   0  569.64   14.06 
   4   1   0  578.31   14.02 
   4   1   0  580.47   14.33 
  -4  -1   0  586.25   14.28 
   4  -1   0  591.28   14.37 
  -4  -1   0  605.16   14.29 
   5   1   0   50.81    1.36 
   5  -1   0   52.20    1.40 
   5   1   0   51.13    1.35 
  -5   1   0   50.60    1.36 
   5  -1   0   53.24    1.39 
   6   1   0  187.97    4.70 
   6  -1   0  192.54    4.83 
  -6   1   0  196.84    4.75 
   6   1   0  189.14    4.80 
   6  -1   0  191.28    4.75 
   7  -1   0    0.31    0.19 
   7   1   0    0.52    0.19 
   7   1   0    0.36    0.17 
   7  -1   0    0.32    0.20 
   8  -1   0    3.42    0.34 
   8   1   0    2.72    0.30 
   9  -1   0    1.07    0.30 
   9   1   0    1.52    0.29 
  10   1   0   19.01    0.80 
  10  -1   0   21.10    0.87 
  11   1   0    1.22    0.34 
  -1   2   0   93.36    2.41 
  -1   2   0   96.06    2.41 
  -1  -2   0   96.51    2.38 
   1  -2   0   99.31    2.41 
  -1   2   0   95.96    2.37 
   1  -2   0   96.14    2.37 
  -2  -2   0  349.57    9.06 
   2  -2   0  376.74    8.94 
   2  -2   0  365.36    9.04 
   2  -2   0  377.04    9.06 
  -2   2   0  356.91    8.86 
  -2   2   0  371.43    9.03 
  -2   2   0  368.59    9.05 
   2   2   0  383.23    9.11 
   3  -2   0    0.77    0.12 
  -3   2   0    0.71    0.09 
   3   2   0    0.82    0.09 
   3  -2   0    0.64    0.11 
  -3   2   0    0.89    0.10 
  -3  -2   0    0.90    0.07 
   3  -2   0    0.75    0.12 
  -3   2   0    0.78    0.11 
   4   2   0    2.33    0.17 
   4   2   0    2.09    0.16 
  -4   2   0    2.18    0.14 
  -4   2   0    1.83    0.17 
   4  -2   0    2.31    0.20 
   4  -2   0    1.91    0.19 
   5   2   0   28.47    0.80 
   5  -2   0   29.55    0.87 
  -5   2   0   29.67    0.84 
   5   2   0   29.32    0.80 
   5  -2   0   27.56    0.87 
   6  -2   0  113.02    2.91 
   6   2   0  115.25    2.88 
   6  -2   0  115.16    2.95 
   6   2   0  108.78    2.83 
   7  -2   0   50.32    1.43 
   7   2   0   45.70    1.32 
   7   2   0   48.51    1.35 
   7  -2   0   49.72    1.41 
   8   2   0  100.96    2.64 
   8  -2   0  103.04    2.72 
   9   2   0   19.52    0.75 
   9  -2   0   20.03    0.84 
  10  -2   0   59.71    1.77 
  10   2   0   56.32    1.65 
  11   2   0    4.95    0.43 
   0  -3   0    0.07    0.06 
   0   3   0    0.05    0.06 
   0   3   0    0.02    0.05 
   0  -3   0    0.08    0.06 
   0  -3   0    0.09    0.06 
   0   3   0    0.06    0.06 
  -1   3   0   38.21    1.01 
   1   3   0   37.30    0.98 
  -1   3   0   37.16    1.00 
  -1   3   0   36.25    0.99 
   1  -3   0   36.58    1.00 
   1   3   0   38.44    0.96 
   1   3   0   35.86    0.96 
   1  -3   0   37.57    1.00 
   1  -3   0   37.37    0.99 
  -1  -3   0   37.08    0.97 
   2  -3   0  219.99    5.68 
  -2   3   0  237.13    5.80 
   2  -3   0  235.53    5.81 
  -2  -3   0  238.87    5.74 
   2  -3   0  234.10    5.79 
   2   3   0  240.75    5.75 
  -2   3   0  229.03    5.68 
  -2   3   0  235.35    5.79 
  -3   3   0   87.09    2.25 
   3  -3   0   86.20    2.25 
   3  -3   0   85.72    2.22 
  -3  -3   0   88.76    2.17 
   3   3   0   88.88    2.20 
  -3   3   0   85.32    2.24 
   3  -3   0   89.43    2.26 
   4   3   0  459.97   11.50 
  -4   3   0  465.88   11.54 
   4  -3   0  474.65   11.60 
   4  -3   0  472.74   11.36 
  -4   3   0  476.02   11.55 
   5   3   0   56.98    1.45 
   5  -3   0   52.69    1.52 
  -5   3   0   57.86    1.52 
   5   3   0   56.31    1.46 
   5   3   0   54.53    1.43 
   5  -3   0   54.62    1.54 
   6   3   0  145.50    3.67 
   6   3   0  142.26    3.61 
  -6   3   0  148.45    3.72 
   6  -3   0  144.39    3.71 
   6  -3   0  149.25    3.78 
   7   3   0    0.97    0.19 
   7   3   0    0.91    0.18 
   7  -3   0    1.02    0.25 
   7  -3   0    0.64    0.24 
   8  -3   0   10.61    0.62 
   8  -3   0   10.59    0.61 
   8   3   0   10.79    0.50 
   9   3   0    5.34    0.38 
   9  -3   0    6.31    0.49 
  10  -3   0    7.83    0.59 
  10   3   0    7.77    0.53 
   0  -4   0  448.71   10.62 
   0   4   0  433.16   10.62 
   0   4   0  421.37   10.72 
   0  -4   0  447.73   10.71 
   0  -4   0  418.25   10.41 
   0   4   0  426.96   10.42 
   1   4   0  413.90    9.85 
   1  -4   0  408.72   10.00 
   1   4   0  417.34    9.96 
  -1   4   0  407.36    9.79 
   1   4   0  385.34   10.06 
  -1   4   0  406.25   10.00 
  -1  -4   0  405.36    9.95 
  -1   4   0  412.63    9.98 
   1  -4   0  404.84    9.97 
   1  -4   0  396.39    9.79 
   2   4   0  134.16    3.26 
  -2  -4   0  128.61    3.24 
  -2   4   0  129.09    3.29 
   2  -4   0  134.32    3.30 
  -2   4   0  122.31    3.30 
   2  -4   0  129.59    3.24 
   2  -4   0  129.96    3.30 
  -2   4   0  130.93    3.24 
   3  -4   0   36.87    1.07 
   3   4   0   38.86    1.02 
   3  -4   0   37.01    1.07 
   3  -4   0   36.40    1.06 
  -3  -4   0   38.09    0.98 
  -3   4   0   36.26    1.05 
  -3   4   0   37.34    1.06 
  -4  -4   0    6.95    0.24 
  -4   4   0    7.40    0.32 
   4  -4   0    6.57    0.35 
   4  -4   0    6.36    0.37 
   4   4   0    7.56    0.30 
   4  -4   0    7.16    0.37 
  -4   4   0    7.08    0.35 
   5  -4   0    3.60    0.30 
  -5   4   0    3.07    0.26 
   5   4   0    3.71    0.24 
   5   4   0    3.40    0.24 
  -5   4   0    3.52    0.23 
   5  -4   0    2.70    0.27 
   6  -4   0   29.04    0.98 
  -6   4   0   31.78    0.95 
   6   4   0   29.76    0.87 
   6   4   0   29.25    0.86 
   6  -4   0   29.19    0.98 
   7  -4   0   58.30    1.68 
   7  -4   0   58.81    1.70 
   7   4   0   56.21    1.54 
   8   4   0   81.10    2.13 
   8  -4   0   80.99    2.27 
   8  -4   0   80.60    2.30 
   9  -4   0   32.05    1.17 
   9   4   0   31.63    1.00 
  10   4   0   29.50    0.97 
  10  -4   0   28.81    1.17 
   0   5   0    0.26    0.09 
   0  -5   0    0.44    0.11 
   0  -5   0    0.29    0.10 
   0   5   0    0.21    0.08 
   0  -5   0    0.15    0.09 
   0   5   0    0.02    0.09 
   1  -5   0   81.75    2.09 
  -1  -5   0   78.16    2.09 
  -1  -5   0   82.64    2.06 
  -1   5   0   80.02    2.09 
   1   5   0   83.39    2.11 
   1  -5   0   79.37    2.12 
   1   5   0   83.75    2.08 
  -1   5   0   82.01    2.13 
  -1   5   0   80.76    2.12 
   1   5   0   79.34    2.06 
   1  -5   0   82.46    2.12 
   2  -5   0   37.54    1.06 
  -2   5   0   36.99    1.07 
  -2   5   0   36.39    1.06 
   2  -5   0   36.69    1.06 
   2   5   0   37.69    1.03 
  -2  -5   0   36.57    1.00 
   2   5   0   36.45    1.00 
   2   5   0   37.65    0.99 
  -2   5   0   36.71    1.06 
   2  -5   0   34.60    1.05 
   3  -5   0  226.37    5.44 
   3   5   0  219.75    5.47 
  -3   5   0  209.72    5.53 
  -3   5   0  223.50    5.53 
   3  -5   0  219.87    5.53 
   3  -5   0  223.83    5.53 
  -3  -5   0  216.06    5.43 
   4   5   0   46.57    1.25 
  -4   5   0   47.46    1.32 
  -4   5   0   46.05    1.29 
   4  -5   0   43.55    1.32 
   4  -5   0   46.16    1.31 
   4  -5   0   44.06    1.31 
  -4  -5   0   45.12    1.19 
   5   5   0  159.80    3.98 
  -5   5   0  151.13    4.01 
   5  -5   0  162.19    4.02 
   5  -5   0  157.16    4.08 
  -5   5   0  159.04    4.06 
   6  -5   0   59.50    1.69 
   6   5   0   60.01    1.58 
  -6   5   0   58.77    1.56 
  -6   5   0   59.64    1.67 
   6  -5   0   57.08    1.70 
   6   5   0   57.09    1.56 
   7  -5   0   15.03    0.72 
   7   5   0   14.99    0.58 
   7  -5   0   16.80    0.73 
   8  -5   0    0.74    0.31 
   8   5   0    0.56    0.22 
   8  -5   0    0.45    0.30 
   9   5   0    2.83    0.30 
   9  -5   0    3.36    0.45 
  10  -5   0   13.32    0.85 
  10   5   0   13.24    0.61 
   0  -6   0   33.34    0.93 
   0  -6   0   31.42    0.93 
   0   6   0   30.60    0.94 
   0   6   0   32.43    0.94 
   0   6   0   31.57    0.93 
   0  -6   0   32.53    0.95 
  -1  -6   0  132.00    3.39 
   1  -6   0  132.45    3.36 
  -1   6   0  132.78    3.37 
   1  -6   0  129.89    3.41 
   1   6   0  136.63    3.34 
  -1   6   0  138.67    3.43 
   1   6   0  136.24    3.38 
   1  -6   0  133.62    3.41 
   1   6   0  135.74    3.40 
  -1  -6   0  125.68    3.32 
   2   6   0   50.79    1.35 
  -2   6   0   47.57    1.37 
   2  -6   0   48.37    1.36 
  -2   6   0   47.39    1.43 
  -2   6   0   48.13    1.38 
   2  -6   0   49.85    1.38 
   2   6   0   50.71    1.31 
   2   6   0   47.55    1.30 
   2  -6   0   47.57    1.37 
  -3   6   0   25.34    0.83 
   3  -6   0   24.64    0.83 
  -3   6   0   25.45    0.87 
   3  -6   0   23.42    0.81 
   3   6   0   25.36    0.74 
   3  -6   0   24.60    0.82 
   3   6   0   25.57    0.77 
   4   6   0    0.95    0.17 
   4  -6   0    0.68    0.20 
   4  -6   0    0.92    0.20 
  -4   6   0    0.86    0.21 
   4  -6   0    0.91    0.22 
  -4   6   0    1.05    0.19 
  -5   6   0   29.15    0.96 
   5   6   0   28.52    0.88 
   5  -6   0   29.00    0.97 
   5  -6   0   28.55    0.98 
  -5   6   0   28.71    0.91 
  -6   6   0    9.98    0.52 
   6   6   0    8.93    0.44 
   6   6   0    9.10    0.43 
   6  -6   0    9.85    0.57 
   6  -6   0    8.33    0.55 
   7   6   0   51.69    1.48 
   7  -6   0   52.77    1.64 
   7   6   0   54.73    1.47 
   7  -6   0   53.87    1.64 
   8  -6   0   19.64    0.90 
   8   6   0   21.02    0.73 
   8  -6   0   19.73    0.92 
   9  -6   0   26.07    1.11 
   9   6   0   25.46    0.87 
  10  -6   0    6.52    0.60 
  10   6   0    5.40    0.39 
   0  -7   0    0.09    0.13 
   0  -7   0    0.32    0.15 
   0   7   0   -0.10    0.13 
   0   7   0    0.13    0.13 
  -1  -7   0    1.37    0.18 
   1  -7   0    1.39    0.20 
   1  -7   0    1.45    0.21 
  -1   7   0    1.07    0.18 
   1   7   0    1.29    0.19 
  -1   7   0    1.67    0.23 
   1   7   0    1.61    0.20 
   2   7   0   22.85    0.75 
   2  -7   0   21.86    0.76 
   2   7   0   22.34    0.71 
   2  -7   0   22.21    0.78 
  -2   7   0   22.76    0.78 
  -2   7   0   22.90    0.78 
   3  -7   0  159.43    4.21 
   3  -7   0  165.66    4.15 
   3   7   0  161.86    4.06 
   3   7   0  164.29    4.16 
  -3   7   0  165.25    4.22 
   4  -7   0   96.26    2.54 
  -4   7   0   91.93    2.55 
   4  -7   0   94.16    2.55 
   4   7   0   93.95    2.41 
   4   7   0   94.02    2.49 
   5  -7   0  129.39    3.51 
   5  -7   0  130.36    3.48 
  -5   7   0  130.20    3.51 
   5   7   0  135.86    3.43 
   5   7   0  137.09    3.34 
   6   7   0   17.27    0.63 
   6  -7   0   16.26    0.77 
  -6   7   0   17.70    0.74 
   6  -7   0   16.12    0.76 
   7   7   0   19.88    0.69 
   7  -7   0   19.55    0.89 
   7  -7   0   18.89    0.87 
   7   7   0   20.06    0.73 
   8   7   0    2.76    0.31 
   8  -7   0    1.97    0.41 
   8  -7   0    2.41    0.42 
   9   7   0    3.44    0.34 
   9  -7   0    3.31    0.49 
  10   7   0    1.47    0.28 
  10  -7   0    1.20    0.45 
   0  -8   0   68.15    1.83 
   0  -8   0   66.10    1.83 
   0   8   0   68.61    1.85 
   0   8   0   66.10    1.87 
   1  -8   0  268.49    6.61 
   1   8   0  261.57    6.49 
  -1  -8   0  274.73    6.58 
   1   8   0  275.68    6.62 
   1  -8   0  256.95    6.50 
  -1   8   0  259.87    6.52 
  -1   8   0  243.11    6.62 
   2   8   0   54.52    1.52 
   2  -8   0   59.60    1.60 
  -2   8   0   54.07    1.60 
   2   8   0   53.64    1.57 
   2  -8   0   55.18    1.58 
   3  -8   0   79.82    2.23 
   3  -8   0   83.03    2.22 
   3   8   0   81.86    2.13 
   3   8   0   81.39    2.20 
  -3   8   0   77.85    2.24 
   4   8   0    8.26    0.39 
   4  -8   0    6.25    0.49 
  -4   8   0    7.95    0.48 
   4   8   0    7.93    0.44 
   4  -8   0    7.09    0.51 
   5   8   0   11.11    0.48 
   5  -8   0   11.86    0.65 
   5   8   0   10.87    0.53 
  -5   8   0   10.16    0.59 
   5  -8   0   10.10    0.61 
  -6   8   0    4.60    0.43 
   6  -8   0    3.83    0.43 
   6   8   0    4.20    0.33 
   6  -8   0    3.44    0.41 
   6   8   0    4.74    0.38 
   7   8   0   68.10    1.92 
   7   8   0   70.82    1.94 
   7  -8   0   68.86    2.09 
   7  -8   0   71.96    2.11 
   7   8   0   69.50    1.88 
   8  -8   0    7.11    0.60 
   8  -8   0    7.47    0.61 
   8   8   0    6.67    0.50 
   9  -8   0   65.44    2.09 
   9   8   0   64.94    1.83 
  10   8   0    2.99    0.34 
  10  -8   0    3.25    0.56 
   0  -9   0    0.01    0.17 
   0  -9   0    0.16    0.17 
   0   9   0    0.30    0.17 
   0   9   0    0.10    0.17 
  -1  -9   0   51.35    1.43 
   1  -9   0   48.72    1.46 
  -1   9   0   52.11    1.52 
   1   9   0   50.89    1.50 
   1   9   0   49.89    1.46 
   1  -9   0   51.05    1.48 
  -1   9   0   49.37    1.48 
   2   9   0    0.26    0.18 
  -2   9   0    0.42    0.21 
   2   9   0   -0.07    0.14 
   2  -9   0    0.02    0.19 
   2  -9   0    0.21    0.21 
   3  -9   0  215.51    5.39 
  -3   9   0  203.14    5.39 
   3   9   0  208.14    5.21 
   3   9   0  206.97    5.34 
   3  -9   0  212.30    5.31 
   4  -9   0    0.46    0.28 
   4   9   0    0.55    0.21 
  -4   9   0    1.04    0.26 
   4   9   0    0.70    0.19 
   4  -9   0   -0.02    0.25 
  -5   9   0  180.61    4.68 
   5  -9   0  175.11    4.66 
   5   9   0  176.07    4.59 
   5   9   0  177.74    4.46 
   5  -9   0  178.94    4.61 
   6   9   0    0.65    0.24 
  -6   9   0    0.47    0.28 
   6   9   0    0.46    0.19 
   6  -9   0    0.53    0.32 
   6  -9   0    0.35    0.31 
   7  -9   0   42.53    1.51 
   7   9   0   44.83    1.34 
   7  -9   0   43.10    1.51 
   7   9   0   42.60    1.35 
   8  -9   0    2.36    0.47 
   8   9   0    2.54    0.35 
   8  -9   0    1.74    0.44 
   9  -9   0    4.06    0.59 
   9   9   0    2.81    0.36 
   0  10   0    8.20    0.50 
   0 -10   0    8.90    0.48 
   0  10   0    7.93    0.49 
   0 -10   0    7.92    0.47 
  -1  10   0  219.29    5.45 
   1  10   0  198.39    5.51 
   1 -10   0  220.92    5.50 
   1 -10   0  217.52    5.43 
   1  10   0  217.60    5.42 
  -1  10   0  217.18    5.55 
   2  10   0   15.02    0.66 
   2 -10   0   13.34    0.64 
   2 -10   0   15.21    0.67 
   2  10   0   13.48    0.60 
  -2  10   0   13.40    0.66 
   3 -10   0   13.45    0.70 
   3 -10   0   13.16    0.67 
   3  10   0   14.69    0.62 
   3  10   0   14.86    0.67 
  -3  10   0   14.93    0.71 
   4 -10   0    0.91    0.31 
   4  10   0    1.54    0.24 
   4 -10   0    1.49    0.34 
  -4  10   0    0.65    0.27 
   4  10   0    1.06    0.27 
   5 -10   0    8.99    0.66 
   5 -10   0    7.73    0.58 
  -5  10   0    8.25    0.62 
   5  10   0    7.76    0.48 
   5  10   0    8.00    0.54 
  -6  10   0    0.36    0.29 
   6  10   0   -0.06    0.24 
   6 -10   0   -0.18    0.33 
   6 -10   0   -0.10    0.32 
   7 -10   0   89.39    2.63 
   7  10   0   87.24    2.46 
   7 -10   0   90.12    2.62 
   8  10   0    1.37    0.33 
   8 -10   0    1.36    0.46 
   8 -10   0    1.43    0.47 
   9 -10   0   81.38    2.51 
   9  10   0   77.31    2.24 
   0  11   0    0.65    0.22 
   0 -11   0    0.37    0.22 
   0 -11   0    0.26    0.22 
   0  11   0    0.78    0.25 
   1 -11   0   16.07    0.73 
  -1  11   0   17.34    0.77 
   1 -11   0   16.07    0.71 
   1  11   0   16.43    0.74 
   1  11   0   15.98    0.71 
   2 -11   0    4.66    0.43 
  -2  11   0    3.91    0.40 
   2  11   0    4.09    0.38 
   2 -11   0    4.45    0.41 
   2  11   0    4.85    0.43 
  -3  11   0  229.92    5.97 
   3 -11   0  226.04    5.93 
   3  11   0  229.49    5.79 
   3  11   0  231.77    5.93 
   3 -11   0  231.70    5.86 
   4 -11   0   13.93    0.80 
   4  11   0   15.07    0.67 
   4 -11   0   15.47    0.78 
  -4  11   0   14.36    0.76 
   4  11   0   15.81    0.72 
   5  11   0  181.25    4.81 
   5 -11   0  185.97    4.82 
  -5  11   0  185.20    4.89 
   5 -11   0  179.61    4.85 
   6 -11   0    1.20    0.40 
   6 -11   0    0.59    0.38 
  -6  11   0    0.72    0.34 
   6  11   0    1.15    0.32 
   7  11   0   25.47    1.01 
   7 -11   0   26.61    1.17 
   7 -11   0   25.29    1.20 
   8 -11   0    1.72    0.51 
   8 -11   0    2.17    0.51 
   8  11   0    1.90    0.38 
   9  11   0    0.05    0.31 
   9 -11   0    0.89    0.50 
   9 -11   0    0.29    0.49 
   0 -12   0   87.08    2.41 
   0  12   0   87.54    2.46 
   0  12   0   88.32    2.52 
   0 -12   0   86.32    2.43 
  -1  12   0  338.37    8.62 
   1 -12   0  343.80    8.55 
   1  12   0  324.74    8.43 
   1  12   0  346.00    8.62 
   1 -12   0  341.64    8.44 
   2 -12   0   22.11    0.90 
   2  12   0   22.51    0.92 
  -2  12   0   21.30    0.94 
   2 -12   0   23.08    0.94 
   3 -12   0   85.99    2.50 
   3 -12   0   89.12    2.50 
   3  12   0   86.11    2.51 
  -3  12   0   88.83    2.56 
  -4  12   0    0.17    0.31 
   4  12   0    0.37    0.27 
   4 -12   0    0.16    0.33 
   4 -12   0    0.24    0.33 
   5 -12   0    8.50    0.65 
   5  12   0    8.28    0.62 
   5 -12   0    9.21    0.73 
  -5  12   0    8.10    0.65 
   6 -12   0    6.81    0.63 
  -6  12   0    6.12    0.59 
   6 -12   0    6.75    0.64 
   6  12   0    5.95    0.54 
   7 -12   0   34.26    1.37 
   7  12   0   29.78    1.19 
   7 -12   0   32.88    1.38 
   8 -12   0   26.28    1.26 
   8 -12   0   24.65    1.23 
   8  12   0   22.82    1.04 
   9 -12   0   30.72    1.41 
   9 -12   0   27.01    1.41 
   0  13   0    0.69    0.31 
   0 -13   0    0.17    0.26 
   0 -13   0    0.48    0.27 
  -1  13   0   29.93    1.15 
   1  13   0   26.21    1.10 
   1 -13   0   29.23    1.10 
   1 -13   0   27.87    1.06 
  -2  13   0   63.08    1.96 
   2  13   0   61.46    1.92 
   2 -13   0   61.07    1.87 
   2 -13   0   62.10    1.92 

  -3  13   0   69.00    2.14 
   3  13   0   67.13    2.09 
   3 -13   0   67.98    2.07 
   3 -13   0   69.98    2.11 
  -4  13   0  118.99    3.34 
   4 -13   0  114.41    3.27 
   4  13   0  117.33    3.27 
   4 -13   0  117.61    3.28 
  -5  13   0   67.29    2.14 
   5 -13   0   63.73    2.08 
   5  13   0   66.62    2.06 
   5 -13   0   68.04    2.12 
  -6  13   0   63.36    2.06 
   6 -13   0   62.95    2.06 
   6  13   0   57.60    1.96 
   6 -13   0   62.25    2.02 
   7 -13   0    8.77    0.77 
   7  13   0   10.28    0.74 
   7 -13   0   10.61    0.80 
   8 -13   0    6.55    0.71 
   8 -13   0    4.83    0.67 
   8  13   0    4.92    0.55 
   9 -13   0    2.27    0.61 
   0  14   0  117.83    3.30 
   0 -14   0  114.77    3.16 
   1 -14   0   44.85    1.47 
  -1  14   0   45.43    1.59 
   1  14   0   43.96    1.56 
   1 -14   0   45.53    1.53 
  -2  14   0   41.31    1.49 
   2 -14   0   40.70    1.40 
   2  14   0   38.44    1.42 
   2 -14   0   41.61    1.44 
   3 -14   0    1.78    0.42 
   3  14   0    1.84    0.39 
  -3  14   0    2.20    0.45 
   3 -14   0    1.26    0.40 
  -4  14   0    2.45    0.46 
   4 -14   0    2.95    0.48 
   4 -14   0    3.12    0.51 
   4  14   0    2.55    0.44 
   5  14   0    1.23    0.40 
   5 -14   0    0.66    0.43 
  -5  14   0    0.36    0.41 
   5 -14   0    0.90    0.43 
   6 -14   0   34.12    1.48 
  -6  14   0   35.67    1.49 
   6  14   0   36.62    1.40 
   6 -14   0   33.43    1.42 
   7  14   0   16.17    0.93 
   7 -14   0   18.23    1.12 
   7 -14   0   18.70    1.18 
   8 -14   0   51.69    1.96 
   8 -14   0   48.88    1.87 
   0 -15   0    0.25    0.31 
   0  15   0    0.48    0.36 
  -1  15   0    5.47    0.57 
   1  15   0    6.81    0.63 
   1 -15   0    7.05    0.56 
   2  15   0   35.35    1.38 
   2 -15   0   36.87    1.34 
  -2  15   0   35.42    1.42 
   3 -15   0   16.29    0.93 
  -3  15   0   15.90    0.95 
   3  15   0   14.66    0.89 
   3 -15   0   16.07    0.91 
   4 -15   0   67.09    2.21 
  -4  15   0   69.20    2.25 
   4  15   0   65.78    2.17 
   4 -15   0   70.04    2.16 
   5 -15   0    9.22    0.79 
  -5  15   0   12.57    0.90 
   5  15   0   11.68    0.81 
   5 -15   0   12.06    0.90 
   6 -15   0   19.92    1.15 
   6 -15   0   19.44    1.15 
   6  15   0   19.03    1.05 
   7  15   0    6.86    0.67 
   7 -15   0    6.74    0.78 
   7 -15   0    6.41    0.73 
   8 -15   0    1.22    0.61 
   8 -15   0    0.90    0.57 
   0  16   0  146.39    4.14 
  -1  16   0    5.73    0.63 
   1 -16   0    5.13    0.54 
   1  16   0    5.98    0.64 
   2  16   0   72.40    2.30 
   2 -16   0   71.08    2.22 
  -2  16   0   72.25    2.35 
   3 -16   0    3.51    0.51 
   3  16   0    3.46    0.52 
  -3  16   0    3.64    0.58 
   4 -16   0    3.53    0.56 
  -4  16   0    2.71    0.55 
   4  16   0    2.54    0.50 
  -5  16   0    0.45    0.45 
   5 -16   0    0.28    0.46 
   5  16   0    0.09    0.39 
   6 -16   0   24.80    1.41 
   6  16   0   23.67    1.20 
   6 -16   0   25.34    1.29 
   7  16   0    0.55    0.43 
   7 -16   0    0.48    0.54 
   7 -16   0    0.66    0.55 
   0  17   0   -0.11    0.39 
   1 -17   0   -0.22    0.36 
   1  17   0    0.23    0.39 
  -1  17   0    0.36    0.43 
  -2  17   0   42.15    1.68 
   2  17   0   40.79    1.62 
   2 -17   0   42.39    1.52 
  -3  17   0   -0.32    0.42 
   3  17   0    0.46    0.41 
   3 -17   0    0.32    0.45 
  -4  17   0   68.66    2.46 
   4 -17   0   77.09    2.37 
   4  17   0   74.51    2.41 
   5 -17   0    0.09    0.51 
   5  17   0    0.17    0.41 
  -5  17   0    0.05    0.45 
   6  17   0   28.89    1.37 
   6 -17   0   29.50    1.45 
   7  17   0    0.39    0.46 
   0  18   0   72.33    2.42 
  -1  18   0    2.19    0.55 
   1  18   0    2.42    0.54 
   1 -18   0    2.29    0.48 
   2 -18   0   28.47    1.26 
   2  18   0   27.73    1.34 
  -2  18   0   29.50    1.42 
   3  18   0    0.35    0.44 
  -3  18   0    0.57    0.50 
   3 -18   0    0.07    0.46 
  -4  18   0    0.24    0.51 
   4 -18   0    0.40    0.51 
   4  18   0   -0.33    0.43 
   5  18   0    1.19    0.51 
  -5  18   0    1.36    0.57 
   5 -18   0    1.95    0.59 
   6  18   0   16.84    1.23 
   0  19   0    0.59    0.46 
  -1  19   0    0.18    0.47 
   1  19   0    0.31    0.47 
   2  19   0   20.58    1.20 
   2 -19   0   18.58    1.12 
  -2  19   0   19.01    1.22 
   3  19   0   -0.16    0.45 
  -3  19   0    0.22    0.51 
   3 -19   0    0.04    0.48 
  -4  19   0   40.21    1.78 
   4  19   0   38.02    1.67 
  -5  19   0    0.34    0.55 
   0  20   0   58.19    2.21 
  -1  20   0    3.09    0.67 
   1  20   0    3.67    0.66 
   2 -20   0   25.61    1.28 
  -2  20   0   26.77    1.45 
   2  20   0   25.80    1.46 
  -3  20   0   -1.00    0.48 
  -4  20   0    0.98    0.59 
   0   0   1    0.00    0.00 
   0   0  -1   -0.01    0.00 
   0   0  -1    0.01    0.00 
   0   0   1    0.00    0.00 
   0   0   1    0.00    0.00 
   0   0  -1    0.01    0.00 
  -2   0   1  281.92    6.75 
  -2   0  -1  272.91    6.61 
   2   0  -1  269.64    6.58 
   2   0  -1  281.05    6.73 
  -2   0  -1  272.79    6.75 
   2   0   1  279.68    6.76 
  -2   0  -1  274.80    6.76 
   2   0   1  270.84    6.62 
  -3   0   1    0.29    0.05 
   3   0  -1    0.31    0.06 
  -3   0   1    0.23    0.05 
  -3   0  -1    0.25    0.06 
   3   0  -1    0.26    0.06 
   3   0   1    0.23    0.08 
   3   0   1    0.23    0.08 
  -3   0  -1    0.28    0.08 
   4   0  -1  508.84   12.24 
   4   0  -1  515.82   12.51 
  -4   0   1  512.17   12.47 
  -4   0  -1  507.95   12.51 
   4   0   1  488.43   12.27 
   4   0   1  520.36   12.55 
  -4   0   1  522.48   12.45 
   5   0   1    8.14    0.35 
   5   0  -1    8.24    0.31 
   5   0  -1    8.41    0.33 
  -5   0  -1    8.49    0.31 
   5   0   1    7.64    0.36 
   6   0  -1   91.39    2.38 
   6   0   1   93.62    2.42 
  -6   0  -1   93.74    2.34 
   6   0   1   91.61    2.38 
   6   0  -1   91.16    2.35 
   7   0  -1   21.33    0.69 
   7   0  -1   20.56    0.70 
   7   0   1   20.97    0.73 
   7   0   1   19.96    0.73 
   8   0   1    2.07    0.30 
   8   0  -1    2.69    0.29 
   9   0   1   10.38    0.62 
   9   0  -1   10.68    0.57 
  10   0  -1   23.62    0.88 
  10   0   1   23.23    0.95 
  11   0  -1    0.50    0.31 
   0  -1  -1   -0.38    0.01 
   0  -1   1   -0.40    0.00 
   0   1  -1   -0.40    0.00 
   0  -1   1   -0.39    0.01 
   0   1   1   -0.40    0.01 
  -1   1   1   11.36    0.33 
   1  -1  -1   13.20    0.37 
  -2   1   1  600.84   13.85 
  -2   1   1  564.86   14.14 
   2  -1   1  578.77   14.27 
   2  -1   1  564.66   14.01 
  -2  -1  -1  576.96   14.22 
   2   1   1  568.38   14.16 
  -2   1  -1  584.41   13.86 
  -2   1  -1  541.65   14.13 
  -2   1  -1  554.06   14.14 
   2   1   1  552.61   13.85 
   2  -1  -1  576.56   13.85 
   2   1   1  573.63   14.15 
   2  -1  -1  595.50   14.16 
   2  -1  -1  614.69   14.14 
   3  -1   1   79.75    1.97 
  -3   1   1   73.50    1.86 
   3  -1   1   78.15    1.94 
  -3  -1  -1   76.08    1.94 
   3  -1  -1   97.32    2.42 
  -3   1  -1   94.89    2.45 
   3  -1  -1   94.87    2.37 
   3  -1  -1   97.74    2.42 
   3   1   1   98.08    2.43 
  -3   1  -1   89.13    2.37 
  -3   1  -1   98.34    2.41 
   3   1   1  101.59    2.42 
   3   1   1   94.36    2.37 
  -3   1  -1   95.94    2.43 
   4  -1   1   43.85    1.20 
  -4  -1  -1   45.10    1.15 
  -4   1   1   44.44    1.15 
   4  -1   1   43.57    1.18 
  -4  -1  -1   43.11    1.15 
   4   1  -1   42.90    1.11 
  -4   1   1   43.82    1.16 
   4   1   1   43.51    1.14 
   4  -1  -1   42.59    1.14 
   4  -1  -1   41.89    1.13 
   4   1   1   42.56    1.13 
  -4   1  -1   43.55    1.16 
  -4   1  -1   42.76    1.17 
   5  -1   1   37.76    1.08 
   5   1  -1   37.24    1.01 
   5  -1   1   37.06    1.09 
  -5  -1  -1   40.06    1.02 
   5   1  -1   38.02    1.01 
  -5   1   1   38.21    1.02 
  -5  -1  -1   39.48    1.03 
   5   1   1   48.63    1.29 
   5   1   1   47.78    1.28 
   5  -1  -1   47.78    1.28 
   5  -1  -1   46.07    1.27 
  -6   1   1   88.42    2.18 
  -6  -1  -1   85.68    2.17 
   6  -1   1   86.93    2.29 
   6  -1   1   86.36    2.26 
   6   1  -1   85.84    2.18 
   6   1  -1   85.54    2.22 
   6   1   1   96.84    2.40 

   6  -1  -1   93.68    2.37 
   6   1   1   93.08    2.35 
  -6   1  -1   82.43    2.34 
   6  -1  -1   93.10    2.39 
   7  -1   1   21.84    0.79 
   7   1  -1   21.19    0.70 
   7  -1   1   22.23    0.78 
   7   1  -1   22.49    0.71 
   7  -1  -1   22.48    0.77 
   7   1   1   23.01    0.77 
   7   1   1   23.14    0.76 
   7  -1  -1   22.40    0.77 
   8  -1   1  114.40    3.03 
   8   1  -1  115.01    2.93 
   8  -1  -1  125.52    3.25 
   8   1   1  127.74    3.27 
   9  -1   1    7.64    0.57 
   9   1  -1    7.44    0.48 
   9   1   1    7.39    0.53 
   9  -1  -1    8.45    0.54 
  10  -1   1   45.51    1.49 
  10   1  -1   46.92    1.37 
  10  -1  -1   46.76    1.44 
  10   1   1   45.60    1.44 
  11   1  -1    4.07    0.38 
   0  -2  -1    7.68    0.25 
   0  -2   1    5.71    0.24 
   0   2   1    6.68    0.25 
   0  -2   1    8.16    0.25 
   0   2   1    7.39    0.25 
  -1   2   1  156.21    3.77 
  -1   2   1  157.66    3.85 
   1  -2   1  152.65    3.84 
  -1   2   1  155.28    3.84 
   1  -2   1  155.11    3.78 
  -1  -2  -1  153.87    3.83 
   1   2  -1  154.68    3.82 
  -1   2  -1  174.89    4.26 
   1   2   1  153.96    4.22 
  -1   2  -1  176.76    4.25 
   1  -2  -1  171.84    4.16 
   1  -2  -1  176.51    4.24 
  -1   2  -1  176.20    4.17 
  -1  -2   1  169.97    4.20 
   2  -2   1  509.04   13.25 
   2   2  -1  564.66   13.20 
  -2  -2  -1  544.16   13.20 
  -2   2   1  508.08   13.33 
  -2   2   1  549.45   12.88 
  -2   2   1  536.83   13.20 
   2  -2   1  551.30   12.91 
  -2   2  -1  611.00   14.59 
  -2   2  -1  610.44   14.94 
   2   2   1  607.42   14.90 
   2  -2  -1  622.90   14.62 
  -2   2  -1  589.49   14.88 
   2  -2  -1  605.40   14.95 
   2  -2  -1  585.57   14.91 
  -3  -2  -1  140.18    3.44 
  -3   2   1  138.88    3.46 
  -3   2   1  137.99    3.38 
  -3   2   1  136.91    3.44 
   3  -2   1  137.13    3.49 
   3   2  -1  141.99    3.41 
   3  -2   1  137.09    3.43 
   3  -2  -1  131.79    3.31 
  -3   2  -1  132.92    3.30 
   3   2   1  135.90    3.28 
   3  -2  -1  130.69    3.36 
  -3   2  -1  135.51    3.36 
  -3   2  -1  137.43    3.38 
   3   2   1  132.22    3.35 
   3  -2  -1  137.47    3.37 
   4  -2   1  433.46   10.64 
   4   2  -1  424.95   10.32 
  -4  -2  -1  435.95   10.54 
  -4   2   1  436.47   10.58 
   4  -2   1  425.41   10.42 
   4  -2  -1  437.97   10.97 
  -4   2  -1  456.71   11.19 
   4  -2  -1  470.88   11.22 
   4   2   1  458.39   11.18 
   4   2   1  454.07   11.18 
  -4   2  -1  461.44   11.18 
   4   2   1  449.32   10.95 
   5   2  -1   40.11    1.04 
   5  -2   1   39.82    1.15 
  -5  -2  -1   40.46    1.04 
   5  -2   1   39.01    1.14 
  -5  -2  -1   39.93    1.04 
   5   2   1   43.19    1.19 
   5  -2  -1   45.54    1.24 
   5   2   1   45.00    1.20 
   5  -2  -1   44.19    1.22 
  -5   2  -1   43.63    1.23 
  -6   2   1  247.56    5.88 
   6  -2   1  246.57    5.98 
   6   2  -1  237.35    5.87 
   6  -2   1  229.06    5.86 
   6   2  -1  224.57    5.75 
   6   2   1  241.04    6.04 
   6  -2  -1  246.56    6.09 
  -6   2  -1  249.47    6.05 
   6   2   1  236.74    5.93 
   6  -2  -1  237.96    5.96 
   7  -2   1   12.42    0.59 
   7   2  -1   11.79    0.46 
   7   2  -1   11.72    0.45 
   7  -2   1   12.07    0.57 
   7   2   1   13.30    0.54 
   7  -2  -1   13.57    0.58 
   7  -2  -1   13.14    0.57 
   7   2   1   13.08    0.53 
   8  -2   1   11.83    0.64 
   8  -2   1   12.33    0.64 
   8   2  -1   11.71    0.51 
   8   2   1   13.20    0.58 
   8  -2  -1   12.27    0.62 
   9  -2   1   10.18    0.64 
   9   2  -1    8.54    0.49 
   9  -2  -1    9.80    0.60 
   9   2   1   10.28    0.57 
  10   2  -1    9.21    0.52 
  10  -2   1   10.13    0.70 
  10  -2  -1   11.90    0.70 
  10   2   1   10.79    0.65 
  11   2  -1    5.11    0.38 
   0  -3   1  400.40    9.51 
   0   3  -1  385.08    9.50 
   0  -3  -1  368.12    9.50 
   0  -3  -1  396.93    9.35 
   0   3  -1  364.61    9.26 
   0   3  -1  398.46    9.70 
   0   3   1  396.82    9.43 
   0   3   1  381.51    9.51 
   0   3   1  379.31    9.68 
   0  -3   1  396.22    9.44 
   0  -3  -1  373.59    9.44 
  -1   3   1  234.28    5.64 
   1  -3   1  230.97    5.54 
  -1   3   1  221.61    5.65 
  -1   3   1  227.69    5.54 
   1   3  -1  231.39    5.61 
  -1  -3  -1  211.31    5.62 
   1  -3   1  228.00    5.66 
   1   3  -1  235.62    5.65 
   1   3  -1  230.85    5.50 
   1  -3   1  230.76    5.64 
   1  -3  -1  218.05    5.35 
  -1   3  -1  224.99    5.35 
   1  -3  -1  207.48    5.24 
   1  -3  -1  220.93    5.34 
  -1   3  -1  220.46    5.25 
  -1  -3   1  218.41    5.20 
  -1  -3   1  206.79    5.30 
   1   3   1  209.67    5.33 
  -2   3   1  176.93    4.39 
  -2  -3  -1  175.69    4.35 
   2  -3   1  175.71    4.39 
  -2   3   1  175.28    4.30 
   2   3  -1  183.97    4.34 
   2  -3   1  178.30    4.41 
   2  -3   1  175.04    4.32 
  -2   3   1  166.79    4.39 
  -2  -3   1  135.29    3.34 
  -2   3  -1  134.84    3.42 
   2   3   1  139.18    3.40 
   2  -3  -1  135.76    3.35 
   2  -3  -1  135.47    3.41 
  -2   3  -1  135.96    3.42 
   2  -3  -1  134.99    3.41 
  -2   3  -1  134.65    3.36 
  -3  -3  -1   12.97    0.40 
   3   3  -1   13.24    0.38 
   3  -3   1   13.47    0.47 
  -3   3   1   12.77    0.44 
   3  -3   1   12.35    0.47 
  -3   3   1   12.77    0.42 
   3   3   1    7.82    0.31 
  -3   3  -1    7.81    0.32 
   3  -3  -1    7.51    0.33 
   3  -3  -1    8.19    0.34 
  -3   3  -1    8.20    0.34 
   3  -3  -1    7.83    0.33 
   4   3  -1   31.76    0.84 
   4  -3   1   30.81    0.94 
   4  -3   1   32.92    0.95 
  -4   3   1   30.92    0.91 
  -4   3   1   31.71    0.86 
  -4  -3  -1   31.59    0.85 
   4   3   1   24.95    0.73 
   4  -3  -1   24.11    0.75 
   4  -3  -1   23.02    0.75 
  -4   3  -1   26.60    0.73 
  -4   3  -1   24.90    0.77 
   4   3   1   25.58    0.71 
   4  -3  -1   23.36    0.75 
   5  -3   1    7.18    0.40 
   5   3  -1    6.88    0.27 
  -5  -3  -1    6.85    0.25 
  -5   3   1    7.05    0.34 
   5  -3   1    8.06    0.40 
   5   3   1   10.65    0.39 
   5   3   1   10.40    0.42 
   5  -3  -1   11.30    0.46 
   5  -3  -1   10.30    0.46 
   5   3   1   10.43    0.40 
  -5   3  -1   11.45    0.38 
  -5   3  -1   10.00    0.44 
   6  -3   1  107.44    2.82 
   6   3  -1  105.99    2.68 
   6   3  -1  102.33    2.63 
   6  -3   1  109.16    2.78 
   6   3   1  115.95    2.98 
  -6   3  -1  117.20    3.02 
   6   3   1  115.37    2.93 
   6  -3  -1  121.90    3.05 
   6  -3  -1  111.47    2.99 
   7  -3   1   32.39    1.06 
   7  -3   1   29.71    1.04 
   7   3  -1   32.36    0.90 
   7  -3  -1   36.88    1.14 
   7   3   1   35.50    1.06 
   7  -3  -1   36.90    1.14 
   7   3   1   35.36    1.06 
   8   3  -1   86.63    2.22 
   8  -3   1   84.94    2.38 
   8  -3   1   86.69    2.42 
   8   3   1   93.33    2.44 
   8  -3  -1   92.37    2.51 
   9  -3   1   17.61    0.82 
   9   3  -1   16.63    0.64 
   9  -3  -1   17.16    0.79 
   9   3   1   15.90    0.69 
  10   3  -1   31.91    0.99 
  10  -3   1   32.01    1.21 
  10  -3  -1   29.15    1.09 
  10   3   1   26.50    0.98 
  11   3  -1    4.44    0.33 
   0   4  -1   26.12    0.73 
   0  -4  -1   24.81    0.72 
   0  -4   1   25.84    0.72 
   0   4  -1   26.06    0.73 
   0  -4  -1   24.48    0.73 
   0   4  -1   24.96    0.72 
   0  -4   1   26.66    0.73 
   0   4   1   24.79    0.72 
   0   4   1   25.51    0.74 
   0  -4   1   25.60    0.72 
   0   4   1   25.76    0.72 
   0  -4  -1   24.57    0.72 
  -1  -4  -1   35.57    0.98 
   1   4  -1   37.03    0.96 
   1   4  -1   34.74    0.95 
  -1   4   1   34.28    0.98 
  -1   4   1   35.83    0.99 
   1  -4   1   35.14    0.99 
   1  -4   1   35.98    1.00 
   1   4  -1   37.93    0.98 
  -1   4   1   35.66    1.00 
   1  -4   1   36.63    1.00 
   1  -4  -1   40.80    1.11 
  -1   4  -1   40.11    1.11 
  -1  -4   1   42.21    1.06 
  -1   4  -1   39.97    1.10 
  -1  -4   1   40.97    1.06 
  -1   4  -1   40.00    1.11 
  -1  -4   1   40.10    1.07 
   1  -4  -1   40.52    1.10 
   1  -4  -1   39.00    1.09 
   1   4   1   40.34    1.10 
   1   4   1   39.87    1.06 
   1   4   1   40.09    1.07 
  -2   4   1  123.61    3.10 
   2   4  -1  129.49    3.10 
   2  -4   1  121.85    3.10 
   2  -4   1  119.81    3.15 
   2   4  -1  125.60    3.08 
  -2  -4  -1  122.45    3.11 
   2   4  -1  126.41    3.04 
   2  -4   1  124.21    3.16 
  -2   4   1  120.25    3.15 
  -2   4   1  124.26    3.15 
   2  -4  -1  154.16    3.84 
  -2   4  -1  152.75    3.85 
  -2   4  -1  151.56    3.78 
   2  -4  -1  156.84    3.78 
  -2  -4   1  146.34    3.77 
   2  -4  -1  153.98    3.84 
  -2   4  -1  147.56    3.85 
   2   4   1  154.32    3.82 
  -3   4   1   98.98    2.55 
  -3  -4  -1   99.83    2.49 
  -3   4   1   95.12    2.54 
   3  -4   1   99.51    2.53 
   3  -4   1   99.83    2.56 
   3  -4   1   95.28    2.56 
   3   4  -1  100.71    2.48 
  -3   4  -1  110.87    2.80 
   3   4   1  111.24    2.77 
   3  -4  -1  104.81    2.79 
   3  -4  -1  109.39    2.80 
   3  -4  -1  109.80    2.76 
  -3  -4   1  105.50    2.69 
  -3   4  -1  109.88    2.81 
  -4   4   1  139.46    3.55 
  -4  -4  -1  138.13    3.49 
   4   4  -1  143.56    3.50 
   4  -4   1  143.01    3.62 
  -4   4   1  142.93    3.58 
   4  -4   1  135.67    3.54 
   4  -4  -1  146.26    3.70 
  -4   4  -1  143.72    3.73 
   4  -4  -1  145.59    3.76 
   4   4   1  148.68    3.72 
   4  -4  -1  150.98    3.76 
  -4   4  -1  148.77    3.76 
  -5  -4  -1   92.52    2.22 
   5  -4   1   87.05    2.37 
  -5   4   1   86.82    2.25 
   5   4  -1   88.90    2.24 
  -5   4   1   88.96    2.33 
   5  -4   1   84.33    2.33 
   5  -4  -1   67.85    1.86 
   5   4   1   67.59    1.80 
   5   4   1   67.27    1.76 
   5  -4  -1   68.94    1.84 
  -5   4  -1   66.62    1.79 
  -5   4  -1   68.43    1.85 
   6  -4   1   39.82    1.24 
   6   4  -1   40.17    1.09 
   6  -4   1   40.27    1.25 
  -6   4   1   41.45    1.18 
  -6   4  -1   33.54    1.02 
  -6   4  -1   31.43    0.89 
   6  -4  -1   32.00    1.02 
   6   4   1   31.22    0.94 
   6  -4  -1   32.24    1.03 
   6   4   1   31.51    0.94 
   6   4   1   33.12    0.96 
   7   4  -1   11.06    0.44 
   7  -4   1   12.00    0.62 
   7  -4   1   11.95    0.62 
   7  -4  -1    8.27    0.52 
   7  -4  -1    8.46    0.52 
   7   4   1    8.27    0.42 
   7   4   1    8.53    0.44 
   8  -4   1   10.47    0.66 
   8   4  -1   11.30    0.47 
   8  -4   1   10.96    0.66 
   8   4   1   10.10    0.52 
   8  -4  -1    8.20    0.58 
   8  -4  -1    9.22    0.60 
   9   4  -1    3.11    0.29 
   9  -4   1    2.70    0.41 
   9  -4  -1    4.55    0.47 
   9   4   1    5.26    0.39 
  10   4  -1   15.87    0.63 
  10  -4   1   17.68    0.91 
  10   4   1   16.84    0.73 
  10  -4  -1   15.69    0.86 
   0   5   1  104.82    2.65 
   0  -5   1  105.66    2.64 
   0   5  -1  102.09    2.65 
   0  -5  -1  102.69    2.60 
   0   5  -1  105.47    2.61 
   0  -5  -1  101.10    2.64 
   0   5   1  103.77    2.66 
   0  -5  -1  107.77    2.66 
   0  -5   1  102.97    2.60 
   0   5  -1  103.18    2.65 
   0   5   1   99.28    2.60 
   0  -5   1  101.92    2.64 
   1  -5   1  118.81    2.98 
  -1  -5  -1  120.54    2.96 
   1   5  -1  115.46    2.96 
  -1   5   1  116.72    2.98 
  -1   5   1  108.74    2.93 
   1  -5   1  114.53    2.93 
  -1   5   1  117.01    2.99 
   1   5  -1  119.48    2.95 
   1  -5   1  116.37    2.98 
   1   5  -1  116.35    2.90 
   1  -5  -1  118.18    3.06 
  -1   5  -1  119.82    3.07 
  -1  -5   1  124.58    3.02 
  -1  -5   1  113.42    3.02 
  -1   5  -1  123.44    3.02 
  -1  -5   1  121.93    2.98 
   1  -5  -1  118.36    3.01 
   1  -5  -1  119.15    3.05 
  -1   5  -1  114.65    3.07 
   1   5   1  120.28    2.98 
   1   5   1  120.38    3.02 
   1   5   1  122.56    3.06 
   2   5  -1  214.82    5.27 
  -2   5   1  211.40    5.23 
  -2  -5  -1  209.62    5.28 
   2  -5   1  217.03    5.33 
  -2   5   1  212.60    5.33 
   2   5  -1  214.10    5.26 
  -2   5   1  213.06    5.34 
   2  -5   1  204.35    5.23 
   2   5  -1  206.76    5.17 
   2  -5   1  218.57    5.34 
  -2   5  -1  220.24    5.66 
  -2   5  -1  227.28    5.64 
   2  -5  -1  226.98    5.64 
   2   5   1  234.15    5.62 
  -2   5  -1  215.11    5.55 
  -2  -5   1  214.65    5.57 
   2  -5  -1  227.98    5.64 
   2   5   1  229.12    5.49 
   2  -5  -1  230.99    5.54 
   3   5  -1   35.38    0.97 
  -3  -5  -1   34.17    0.96 
   3   5  -1   35.54    0.93 
   3  -5   1   35.29    1.04 
  -3   5   1   34.43    1.02 
  -3   5   1   33.64    1.02 
   3  -5   1   34.28    1.03 
   3  -5   1   33.40    1.03 
   3  -5  -1   29.20    0.91 
   3  -5  -1   29.77    0.92 
   3   5   1   30.85    0.89 
  -3  -5   1   30.41    0.82 
  -3   5  -1   29.20    0.91 
  -3   5  -1   30.49    0.93 
   3  -5  -1   29.73    0.91 
   4  -5   1   34.48    1.05 
   4  -5   1   32.33    1.04 
   4   5  -1   36.53    0.95 
  -4   5   1   33.37    1.02 
  -4   5   1   32.43    0.99 
   4  -5  -1   35.69    1.08 
  -4  -5   1   36.49    0.93 
   4  -5  -1   36.50    1.09 
  -4   5  -1   37.03    1.10 
   4  -5  -1   36.44    1.09 
   4   5   1   37.16    1.04 
  -4   5  -1   33.75    1.06 
  -5   5   1   19.83    0.70 
   5  -5   1   20.94    0.76 
   5  -5   1   19.73    0.75 
   5   5  -1   20.02    0.61 
  -5   5   1   19.19    0.64 
   5  -5  -1   22.12    0.79 
  -5   5  -1   22.85    0.75 
  -5   5  -1   24.16    0.81 
   5   5   1   23.77    0.74 
   5  -5  -1   23.65    0.82 
   5   5   1   22.81    0.73 
   5  -5  -1   22.47    0.80 
   6   5  -1   27.41    0.81 
   6   5  -1   28.84    0.80 
  -6   5   1   27.73    0.79 
   6  -5   1   26.98    0.97 
  -6   5   1   28.67    0.92 
   6  -5   1   27.04    0.97 
   6   5   1   27.76    0.85 
   6  -5  -1   27.59    0.96 
  -6   5  -1   27.84    0.84 
   6   5   1   27.54    0.87 
   6   5   1   27.20    0.85 
   6  -5  -1   27.23    0.94 
  -6   5  -1   27.82    0.93 
   7   5  -1   38.20    1.10 
   7  -5   1   40.38    1.29 
   7  -5   1   39.27    1.28 
   7   5   1   45.48    1.30 
   7   5   1   46.61    1.36 
   7  -5  -1   45.02    1.41 
   7  -5  -1   43.56    1.39 
   8  -5   1   41.81    1.35 
   8  -5   1   39.78    1.34 
   8   5  -1   37.28    1.12 
   8  -5  -1   41.02    1.33 
   8  -5  -1   39.06    1.34 
   8   5   1   40.41    1.22 
   9  -5   1   31.82    1.20 
   9   5  -1   30.85    0.94 
   9   5   1   26.11    0.91 
   9  -5  -1   26.06    1.06 
  10  -5   1   24.79    1.09 
  10   5  -1   20.72    0.73 
  10   5   1   21.90    0.85 
  10  -5  -1   23.21    1.04 
   0   6   1   40.62    1.13 
   0   6   1   39.30    1.14 
   0  -6   1   37.71    1.12 
   0  -6  -1   38.44    1.13 
   0  -6   1   39.71    1.11 
   0  -6  -1   40.55    1.12 
   0   6  -1   39.99    1.14 
   0  -6   1   41.77    1.12 
   0   6  -1   39.33    1.12 
   0   6   1   38.89    1.12 
   0  -6  -1   38.86    1.11 
   0   6  -1   40.41    1.12 
   1   6  -1   79.51    2.02 
  -1  -6  -1   78.40    2.10 
  -1   6   1   77.15    2.07 
   1  -6   1   80.07    2.08 
   1   6  -1   80.36    2.04 
   1  -6   1   76.99    2.07 
   1   6  -1   79.29    2.06 
  -1   6   1   76.06    2.06 
  -1   6   1   77.16    2.08 
   1  -6   1   75.94    2.05 
   1  -6  -1   78.29    2.06 
  -1  -6   1   74.40    2.02 
  -1  -6   1   80.79    2.00 
  -1   6  -1   74.12    2.04 
  -1   6  -1   75.54    2.07 
   1  -6  -1   77.84    2.03 
  -1  -6   1   80.81    2.01 
   1   6   1   75.82    2.01 
   1   6   1   77.51    2.06 
   1  -6  -1   77.87    2.05 
  -1   6  -1   79.94    2.08 
   1   6   1   76.64    2.02 
  -2   6   1   73.79    1.95 
   2   6  -1   71.81    1.89 
  -2   6   1   71.52    1.92 
  -2   6   1   72.16    1.95 
   2   6  -1   70.64    1.86 
   2  -6   1   72.84    1.95 
   2  -6   1   68.67    1.92 
   2   6  -1   72.02    1.85 
   2  -6   1   72.13    1.94 
   2   6   1   66.22    1.76 
   2  -6  -1   64.44    1.75 
  -2   6  -1   63.40    1.75 
  -2   6  -1   65.43    1.78 
   2   6   1   63.09    1.70 
   2  -6  -1   65.83    1.76 
   2   6   1   65.61    1.70 
   2  -6  -1   64.09    1.77 
   3   6  -1  162.94    4.09 
   3  -6   1  162.28    4.16 
   3   6  -1  165.53    4.00 
  -3   6   1  167.12    4.16 
   3  -6   1  158.11    4.15 
  -3   6   1  159.32    4.17 
   3   6  -1  162.26    4.05 
   3  -6   1  160.31    4.10 
   3   6   1  170.75    4.25 
   3  -6  -1  172.88    4.22 
  -3   6  -1  167.36    4.30 
   3  -6  -1  162.13    4.28 
   3  -6  -1  165.27    4.28 
   4   6  -1   57.45    1.55 
   4  -6   1   58.04    1.64 
   4  -6   1   55.85    1.64 
  -4   6   1   57.27    1.61 
  -4   6   1   57.18    1.62 
   4   6  -1   58.17    1.50 
   4  -6   1   56.69    1.62 
  -4   6  -1   55.09    1.59 
   4  -6  -1   52.83    1.58 
   4  -6  -1   56.50    1.58 
   4  -6  -1   55.48    1.58 
   4   6   1   57.02    1.55 
  -5   6   1  116.44    3.06 
   5   6  -1  117.13    2.96 
   5  -6   1  117.83    3.05 
  -5   6   1  114.77    3.02 
   5  -6   1  111.97    3.08 
   5   6   1  112.64    2.93 
   5  -6  -1  108.95    2.99 
   5  -6  -1  117.19    2.97 
   5  -6  -1  114.97    3.00 
  -5   6  -1  109.59    2.99 
  -5   6  -1  111.38    2.96 
   6  -6   1   41.80    1.34 
   6   6  -1   41.90    1.17 
   6  -6   1   42.10    1.35 
  -6   6   1   42.76    1.30 
  -6   6  -1   42.36    1.30 
   6  -6  -1   40.97    1.32 
   6   6   1   42.03    1.23 
   6  -6  -1   41.53    1.31 
   6   6   1   41.47    1.21 
   7   6  -1   36.95    1.08 
   7  -6   1   36.56    1.27 
   7  -6   1   38.51    1.28 
   7   6   1   36.18    1.11 
   7   6   1   37.62    1.11 
   7  -6  -1   35.34    1.22 
   7  -6  -1   37.40    1.25 
   8   6  -1    9.98    0.47 
   8  -6   1    9.81    0.68 
   8  -6   1    9.98    0.70 
   8   6   1   11.38    0.57 
   8  -6  -1   11.51    0.72 
   8  -6  -1   11.48    0.70 
   9   6  -1    1.72    0.24 
   9  -6   1    1.33    0.41 
   9   6   1    1.55    0.30 
   9  -6  -1    2.46    0.43 
  10  -6   1    3.00    0.51 
  10   6   1    3.21    0.36 
  10  -6  -1    3.91    0.52 
   0  -7  -1   63.51    1.75 
   0   7  -1   65.43    1.76 
   0  -7  -1   62.87    1.75 
   0   7  -1   66.71    1.79 
   0  -7   1   66.48    1.75 
   0   7   1   65.53    1.79 
   0   7   1   64.41    1.76 
   0  -7   1   66.07    1.76 
   1  -7   1  251.10    6.26 
  -1   7   1  254.53    6.28 
   1   7  -1  249.82    6.13 
  -1   7   1  243.60    6.17 
   1  -7   1  252.61    6.16 
   1   7  -1  245.31    6.25 
   1   7   1  265.64    6.70 
   1  -7  -1  276.29    6.85 
  -1   7  -1  278.34    6.87 
   1  -7  -1  276.22    6.73 
   1   7   1  274.65    6.86 
  -1  -7   1  266.30    6.70 
  -1   7  -1  265.73    6.74 
  -1  -7   1  286.18    6.81 
   2   7  -1   16.03    0.56 
   2   7  -1   14.84    0.54 
   2  -7   1   16.25    0.62 
   2  -7   1   15.18    0.60 
  -2   7   1   15.36    0.60 
   2   7   1   10.89    0.48 
  -2   7  -1   10.68    0.49 
   2  -7  -1   11.94    0.51 
  -2   7  -1   11.73    0.51 
   2   7   1   11.18    0.45 
   2  -7  -1   11.20    0.49 
  -3   7   1   59.63    1.69 
   3  -7   1   56.07    1.68 
   3  -7   1   58.90    1.69 
   3   7  -1   61.27    1.59 
   3   7  -1   60.44    1.63 
   3  -7  -1   59.15    1.69 
   3   7   1   61.28    1.67 
  -3   7  -1   59.69    1.71 
   3  -7  -1   60.62    1.70 
   3   7   1   59.41    1.61 
   4   7  -1   16.06    0.58 
  -4   7   1   15.87    0.64 
   4  -7   1   14.61    0.65 
   4   7  -1   15.30    0.54 
   4  -7   1   15.84    0.67 
  -4   7  -1   17.09    0.67 
   4  -7  -1   15.40    0.67 
   4  -7  -1   15.48    0.68 
   4   7   1   16.44    0.62 
   5  -7   1   10.16    0.59 
  -5   7   1    9.79    0.53 
   5   7  -1   10.66    0.43 
   5  -7   1   10.03    0.58 
   5   7  -1    9.75    0.45 
  -5   7  -1    5.81    0.44 
   5  -7  -1    6.22    0.46 
   5   7   1    5.85    0.39 
   5  -7  -1    5.98    0.44 
   6   7  -1    8.21    0.38 
   6  -7   1    8.74    0.59 
   6   7  -1    8.22    0.40 
   6  -7   1    7.24    0.57 
  -6   7   1    7.17    0.50 
   6   7   1    5.43    0.39 
   6   7   1    6.21    0.41 
  -6   7  -1    5.83    0.47 
   6  -7  -1    6.58    0.49 
   6  -7  -1    6.22    0.47 
   7  -7   1   82.17    2.34 
   7   7  -1   79.69    2.14 
   7   7  -1   81.72    2.11 
   7  -7   1   80.65    2.34 
   7   7  -1   80.62    2.10 
   7  -7  -1   77.84    2.24 
   7  -7  -1   78.58    2.25 
   7   7   1   76.95    2.12 
   7   7   1   77.40    2.11 
   8  -7   1   14.36    0.83 
   8  -7   1   15.05    0.84 
   8   7  -1   15.79    0.62 
   8   7  -1   15.62    0.57 
   8  -7  -1   14.85    0.81 
   8  -7  -1   13.18    0.79 
   8   7   1   13.85    0.65 
   9  -7   1   57.46    1.82 
   9   7  -1   51.56    1.50 
   9   7   1   51.80    1.54 
   9  -7  -1   52.23    1.73 
  10   7  -1    3.06    0.29 
  10  -7   1    3.60    0.54 
  10   7   1    3.36    0.37 
  10  -7  -1    3.69    0.55 
   0   8  -1   22.34    0.77 
   0   8   1   22.84    0.79 
   0  -8   1   22.71    0.74 
   0  -8  -1   21.53    0.75 
   0   8  -1   21.95    0.77 
   0  -8   1   20.65    0.74 
   0  -8  -1   22.77    0.74 
   0   8   1   22.09    0.77 
   1  -8   1   34.27    1.08 
  -1   8   1   35.52    1.10 
   1   8  -1   34.39    1.08 
  -1   8   1   35.61    1.11 
   1  -8   1   36.02    1.08 
   1   8  -1   35.11    1.06 
   1   8   1   32.71    1.01 
  -1   8  -1   32.40    1.04 
   1   8   1   31.83    1.05 
  -1   8  -1   34.11    1.07 
   1  -8  -1   34.21    1.04 
   1  -8  -1   33.50    1.02 
  -1  -8   1   32.83    0.98 
   2   8  -1   16.05    0.58 
   2   8  -1   15.98    0.61 
  -2   8   1   15.53    0.64 
   2  -8   1   15.78    0.65 
   2  -8   1   15.28    0.63 
   2   8   1   17.78    0.67 
  -2   8  -1   17.69    0.69 
   2   8   1   18.33    0.64 
   2  -8  -1   18.00    0.69 
   2  -8  -1   17.30    0.68 
   3   8  -1  140.54    3.55 
  -3   8   1  143.53    3.70 
   3  -8   1  139.64    3.64 
   3  -8   1  140.03    3.69 
   3   8  -1  139.50    3.63 
   3   8   1  129.00    3.34 
   3   8   1  126.63    3.24 
   3  -8  -1  127.36    3.32 
  -3   8  -1  126.28    3.38 
   3  -8  -1  127.26    3.35 
  -4   8   1    4.36    0.38 
   4   8  -1    4.51    0.32 
   4   8  -1    4.59    0.34 
   4  -8   1    4.87    0.41 
   4  -8   1    4.20    0.38 
   4  -8  -1    5.06    0.42 
   4   8   1    7.15    0.38 
   4  -8  -1    6.26    0.50 
  -4   8  -1    6.56    0.48 
   4   8   1    6.58    0.42 
   5   8  -1   88.00    2.33 
   5  -8   1   86.11    2.44 
  -5   8   1   86.74    2.43 
   5  -8   1   84.15    2.43 
   5   8  -1   88.94    2.26 
   5   8   1   98.35    2.51 
   5  -8  -1   98.23    2.66 
   5  -8  -1   93.09    2.63 
  -5   8  -1   96.14    2.67 
   5   8   1   94.78    2.60 
  -6   8   1    8.46    0.54 
   6  -8   1    7.53    0.60 
   6   8  -1    7.68    0.44 
   6   8  -1    7.51    0.40 
   6  -8   1    7.85    0.60 
   6   8   1    6.91    0.40 
   6   8   1    6.40    0.46 
   6  -8  -1    5.93    0.50 
   6  -8  -1    6.12    0.51 
  -6   8  -1    7.15    0.53 
   7   8  -1   12.93    0.59 
   7  -8   1   11.53    0.74 
   7  -8   1   13.06    0.79 
   7   8  -1   12.41    0.52 
   7   8  -1   12.25    0.52 
   7   8   1   14.10    0.66 
   7  -8  -1   14.36    0.81 
   7  -8  -1   13.79    0.78 
   7   8   1   14.11    0.64 
   8   8  -1    1.38    0.27 
   8   8  -1    2.02    0.25 
   8  -8   1    1.32    0.41 
   8  -8   1    1.19    0.41 
   8  -8  -1    1.73    0.42 
   8   8   1    1.85    0.27 
   8  -8  -1    2.06    0.43 
   8   8   1    1.93    0.32 
   9  -8   1    6.23    0.63 
   9   8  -1    5.10    0.38 
   9  -8  -1    6.41    0.62 
   9   8   1    5.38    0.45 
  10  -8   1    4.42    0.61 
  10   8  -1    4.12    0.33 
  10  -8  -1    2.93    0.54 
  10   8   1    2.59    0.35 
   0   9   1    7.91    0.47 
   0   9  -1    8.53    0.46 
   0  -9  -1    7.85    0.43 
   0  -9  -1    7.69    0.44 
   0  -9   1    7.79    0.43 
   0  -9   1    8.06    0.44 
   0   9   1    8.03    0.46 
   0   9  -1    7.86    0.46 
  -1   9   1  239.21    5.81 
   1   9  -1  213.02    5.64 
   1  -9   1  226.79    5.67 
   1   9  -1  233.58    5.77 
  -1   9   1  224.37    5.69 
   1  -9   1  223.33    5.75 
   1  -9  -1  219.23    5.57 
  -1   9  -1  220.21    5.59 
   1   9   1  213.89    5.67 
   1  -9  -1  225.66    5.65 
   1   9   1  222.27    5.56 
  -1   9  -1  224.25    5.68 
  -1  -9   1  230.59    5.61 
   2   9  -1   30.59    1.01 
   2  -9   1   30.97    1.02 
  -2   9   1   30.35    1.03 
   2  -9   1   30.70    1.04 
   2   9  -1   31.43    0.98 
  -2   9  -1   38.44    1.22 
   2  -9  -1   38.50    1.18 
   2   9   1   37.72    1.14 
   2  -9  -1   36.61    1.19 
   2   9   1   37.84    1.19 
   3  -9   1   44.61    1.44 
   3   9  -1   49.58    1.41 
  -3   9   1   45.26    1.45 
   3  -9   1   47.24    1.45 
   3   9  -1   48.53    1.36 
   3  -9  -1   52.31    1.63 
  -3   9  -1   58.86    1.69 
   3   9   1   55.37    1.63 
   3   9   1   56.30    1.57 
   3  -9  -1   55.31    1.64 
   4  -9   1   20.97    0.86 
   4   9  -1   20.55    0.76 
  -4   9   1   19.93    0.82 
   4  -9   1   20.08    0.85 
   4   9  -1   21.44    0.72 
  -4   9  -1   19.85    0.82 
   4   9   1   20.15    0.77 
   4   9   1   21.02    0.72 
   4  -9  -1   20.01    0.82 
   4  -9  -1   18.47    0.83 
  -5   9   1   31.83    1.15 
   5   9  -1   34.52    1.03 
   5  -9   1   31.73    1.19 
   5  -9   1   33.36    1.20 
   5   9  -1   34.68    1.10 
   5  -9  -1   28.56    1.06 
  -5   9  -1   26.61    1.06 
   5  -9  -1   29.04    1.08 
   5   9   1   29.29    1.02 
   5   9   1   30.19    0.95 
   6  -9   1   13.88    0.78 
   6   9  -1   14.07    0.62 
   6   9  -1   14.27    0.58 
   6  -9   1   14.46    0.81 
  -6   9   1   13.92    0.73 
   6   9   1   14.17    0.66 
   6  -9  -1   11.19    0.74 
   6   9   1   13.46    0.59 
  -6   9  -1   13.82    0.73 
   6  -9  -1   12.84    0.75 
   7   9  -1   80.75    2.18 
   7   9  -1   82.04    2.15 
   7  -9   1   76.32    2.37 
   7  -9   1   80.63    2.39 
   7   9   1   79.21    2.21 
   7   9   1   78.71    2.19 
   7  -9  -1   75.56    2.30 
   7  -9  -1   77.65    2.32 
   8  -9   1   -0.35    0.38 
   8   9  -1   -0.11    0.24 
   8  -9   1    0.02    0.37 
   8  -9  -1    0.08    0.38 
   8  -9  -1    0.01    0.38 
   8   9   1    0.55    0.25 
   8   9   1    0.44    0.28 
   9  -9   1   59.42    1.96 
   9   9  -1   55.17    1.63 
   9   9   1   57.24    1.72 
   9  -9  -1   57.26    1.93 
  10   9  -1    0.94    0.27 
   0  10   1   58.00    1.75 
   0  10  -1   62.62    1.76 
   0 -10  -1   59.55    1.74 
   0 -10  -1   60.37    1.72 
   0 -10   1   62.10    1.72 
   0  10  -1   60.99    1.78 
   0 -10   1   60.06    1.73 
   0  10   1   61.99    1.80 
   1  10  -1   42.43    1.34 
  -1  10   1   42.79    1.37 
  -1  10   1   44.82    1.37 
   1 -10   1   42.28    1.32 
   1  10  -1   42.28    1.31 
   1 -10   1   41.97    1.31 
  -1 -10   1   33.25    1.04 
   1 -10  -1   32.51    1.07 
  -1  10  -1   34.88    1.13 
   1 -10  -1   33.55    1.09 
   1  10   1   32.50    1.08 
   1  10   1   31.85    1.11 
  -1  10  -1   34.19    1.14 
   2  10  -1   25.78    0.90 
   2 -10   1   26.40    0.95 
  -2  10   1   27.11    0.98 
   2 -10   1   26.61    0.97 
   2  10  -1   26.72    0.93 
  -2  10  -1   17.47    0.74 
   2  10   1   16.93    0.72 
   2 -10  -1   16.12    0.71 
   2  10   1   16.70    0.68 
   2 -10  -1   17.54    0.75 
   3 -10   1  227.96    5.73 
   3  10  -1  220.23    5.68 
  -3  10   1  221.63    5.75 
   3 -10   1  219.46    5.65 
   3  10  -1  221.80    5.56 
   3 -10  -1  199.51    5.08 
   3  10   1  201.81    5.14 
   3 -10  -1  194.06    5.14 
  -3  10  -1  195.44    5.17 
   3  10   1  202.47    5.01 
   4  10  -1    0.58    0.23 
   4 -10   1    0.64    0.30 
   4  10  -1    0.84    0.21 
  -4  10   1    0.92    0.29 
   4 -10   1    0.92    0.31 
  -4  10  -1   -0.03    0.23 
   4 -10  -1    0.35    0.28 
   4  10   1    0.25    0.19 
   4  10   1   -0.04    0.21 
   4 -10  -1    0.14    0.27 
   5  10  -1  174.45    4.46 
   5 -10   1  180.37    4.69 
  -5  10   1  178.66    4.68 
   5  10  -1  178.03    4.59 
   5 -10   1  171.75    4.62 
   5 -10  -1  170.54    4.48 
  -5  10  -1  168.52    4.54 
   5 -10  -1  169.39    4.52 
   5  10   1  171.88    4.35 
   5  10   1  172.93    4.48 
   6  10  -1   10.27    0.58 
   6 -10   1   10.46    0.73 
   6 -10   1   10.65    0.75 
   6  10  -1   10.54    0.53 
  -6  10   1    9.18    0.67 
   6 -10  -1   12.61    0.78 
   6 -10  -1   11.17    0.75 
  -6  10  -1   12.41    0.74 
   6  10   1   12.27    0.66 
   7 -10   1   42.96    1.53 
   7  10  -1   41.79    1.31 
   7 -10   1   40.78    1.52 
   7  10   1   44.76    1.47 
   7  10   1   46.18    1.47 
   7 -10  -1   45.26    1.58 
   7 -10  -1   47.39    1.62 
   8 -10   1   11.03    0.85 
   8  10  -1   11.07    0.64 
   8 -10   1   10.70    0.87 
   8 -10  -1   10.64    0.86 
   8 -10  -1   10.19    0.82 
   8  10   1    8.47    0.58 
   8  10   1   10.70    0.68 
   9  10  -1    0.89    0.31 
   9 -10   1    1.49    0.51 
   9 -10   1    0.72    0.50 
   9 -10  -1    0.66    0.47 
   9  10   1    0.23    0.32 
   0 -11   1   66.13    1.91 
   0 -11  -1   68.78    1.91 
   0 -11  -1   67.08    1.92 
   0  11  -1   66.02    1.93 
   0  11  -1   68.05    1.97 
   0  11   1   67.26    1.98 
   0  11   1   66.76    1.95 
   0 -11   1   65.61    1.90 
  -1  11   1  195.72    5.03 
   1 -11   1  192.96    4.94 
   1 -11   1  187.61    4.90 
   1  11  -1  191.69    4.90 
   1  11  -1  189.27    4.98 
   1 -11  -1  187.54    4.75 
   1  11   1  181.36    4.74 
  -1 -11   1  188.36    4.76 
   1  11   1  185.51    4.86 
  -1  11  -1  187.43    4.86 
   1 -11  -1  182.63    4.79 
   2  11  -1  103.02    2.80 
   2 -11   1  103.56    2.85 
   2 -11   1  101.42    2.83 
  -2  11   1  107.04    2.91 
   2  11  -1  105.47    2.86 
   2 -11  -1   98.04    2.69 
   2  11   1   98.14    2.71 
   2 -11  -1   97.86    2.68 
  -2  11  -1   96.39    2.74 
   2  11   1   96.21    2.64 
   3  11  -1   39.81    1.26 
   3  11  -1   40.78    1.31 
   3 -11   1   37.08    1.31 
  -3  11   1   41.22    1.36 
   3 -11   1   39.76    1.36 
   3  11   1   35.14    1.24 
   3 -11  -1   38.81    1.29 
   3  11   1   36.91    1.19 
   3 -11  -1   37.50    1.25 
  -3  11  -1   36.44    1.29 
   4 -11   1   31.24    1.19 
   4  11  -1   30.16    1.08 
   4 -11   1   32.39    1.17 
   4  11  -1   29.65    1.03 
  -4  11   1   31.17    1.16 
   4  11   1   25.59    0.96 
  -4  11  -1   22.73    0.99 
   4 -11  -1   23.56    0.99 
   4  11   1   24.61    0.95 
   4 -11  -1   23.07    0.99 
   5 -11   1    6.40    0.56 
   5  11  -1    5.97    0.49 
   5 -11   1    5.30    0.54 
  -5  11   1    6.78    0.57 
   5  11   1    8.63    0.60 
   5 -11  -1    8.85    0.69 
  -5  11  -1    7.99    0.67 
   5 -11  -1   10.19    0.73 
   6  11  -1   11.80    0.67 
  -6  11   1   12.91    0.77 
   6 -11   1   11.95    0.81 
   6 -11   1   12.75    0.85 
  -6  11  -1    8.03    0.65 
   6 -11  -1    7.63    0.62 
   6  11   1    8.61    0.62 
   6 -11  -1    8.81    0.71 
   7 -11   1   64.32    2.06 
   7 -11   1   63.97    2.04 
   7  11  -1   59.93    1.84 
   7 -11  -1   62.07    1.96 
   7  11   1   56.90    1.84 
   7 -11  -1   59.98    1.96 
   8 -11   1    6.91    0.70 
   8 -11   1    7.03    0.68 
   8  11  -1    6.25    0.52 
   8 -11  -1    6.34    0.66 
   8  11   1    7.18    0.58 
   8  11   1    6.65    0.56 
   8 -11  -1    7.21    0.68 
   9  11  -1   32.94    1.20 
   9 -11   1   34.21    1.49 
   9 -11   1   38.04    1.55 
   9 -11  -1   38.06    1.56 
   9  11   1   36.56    1.33 
   0 -12  -1   18.20    0.78 
   0 -12   1   17.18    0.79 
   0 -12   1   19.15    0.78 
   0 -12  -1   18.26    0.80 
   0  12   1   18.04    0.81 
   0  12  -1   19.19    0.84 
   0  12   1   19.03    0.85 
   0  12  -1   19.37    0.82 
   1  12  -1   44.90    1.48 
   1 -12   1   45.50    1.42 
   1  12  -1   44.04    1.44 
   1 -12   1   43.86    1.45 
  -1  12   1   46.65    1.51 
   1  12   1   47.68    1.58 
  -1  12  -1   50.29    1.60 
   1 -12  -1   50.53    1.54 
   1  12   1   47.45    1.54 
  -1 -12   1   50.56    1.48 
   1 -12  -1   48.05    1.55 
   2  12  -1   41.63    1.40 
   2  12  -1   44.21    1.44 
  -2  12   1   42.05    1.45 
   2 -12   1   42.24    1.41 
   2 -12   1   41.14    1.37 
  -2  12  -1   37.39    1.32 
   2  12   1   37.41    1.29 
   2 -12  -1   37.07    1.26 
   2 -12  -1   37.34    1.29 
   3 -12   1   95.43    2.68 
  -3  12   1   97.00    2.75 
   3  12  -1   94.40    2.67 
   3 -12   1   92.61    2.68 
   3 -12  -1  100.38    2.79 
   3  12   1   97.92    2.81 
  -3  12  -1  100.43    2.85 
   3 -12  -1   99.75    2.80 
   4 -12   1   51.82    1.66 
  -4  12   1   49.91    1.68 
   4  12  -1   49.94    1.61 
   4 -12   1   51.48    1.69 
   4  12   1   54.77    1.75 
  -4  12  -1   55.68    1.80 
   4 -12  -1   57.03    1.79 
   4 -12  -1   54.95    1.75 
   5 -12   1   80.39    2.42 
   5 -12   1   79.00    2.40 
   5  12  -1   78.58    2.33 
  -5  12   1   83.56    2.45 
   5 -12  -1   71.47    2.24 
   5  12   1   75.79    2.24 
   5 -12  -1   75.89    2.27 
  -5  12  -1   74.67    2.29 
   6 -12   1   22.68    1.14 
   6 -12   1   24.96    1.13 
  -6  12   1   25.27    1.10 
   6  12  -1   24.36    1.01 
   6 -12  -1   27.99    1.22 
  -6  12  -1   29.74    1.22 
   6  12   1   29.24    1.15 
   6 -12  -1   30.07    1.24 
   7  12  -1   17.53    0.84 
   7 -12   1   18.02    1.08 
   7 -12   1   18.42    1.03 
   7 -12  -1   13.84    0.95 
   7 -12  -1   13.91    0.92 
   7  12   1   12.48    0.78 
   8 -12   1    8.58    0.78 
   8  12  -1   10.09    0.72 
   8 -12   1   10.15    0.85 
   8  12   1    9.22    0.73 
   8 -12  -1    8.18    0.76 
   8 -12  -1    8.68    0.75 
   9 -12   1    3.25    0.62 
   9 -12   1    1.81    0.59 
   9 -12  -1    3.15    0.62 
   0 -13   1   40.98    1.32 
   0  13  -1   41.74    1.42 
   0 -13  -1   40.97    1.33 
   0  13   1   39.62    1.43 
   0 -13   1   40.74    1.36 
   0 -13  -1   40.15    1.37 
  -1  13   1  116.27    3.20 
   1 -13   1  113.73    3.10 
   1  13  -1  113.33    3.18 
   1 -13   1  110.40    3.09 
   1  13   1   99.94    2.83 
   1 -13  -1   97.92    2.74 
   1 -13  -1   96.41    2.76 
  -1  13  -1  100.49    2.84 
  -2  13   1   21.01    0.98 
   2 -13   1   20.23    0.94 
   2 -13   1   23.48    0.94 
   2  13  -1   22.33    0.95 
   2 -13  -1   27.73    1.10 
   2 -13  -1   28.45    1.08 
   2  13   1   29.21    1.12 
  -2  13  -1   28.76    1.14 
   3 -13   1   46.51    1.54 
  -3  13   1   48.54    1.63 
   3  13  -1   44.40    1.52 
   3 -13   1   47.03    1.59 
   3 -13  -1   50.21    1.60 
   3  13   1   47.21    1.62 
   3 -13  -1   48.77    1.65 
  -3  13  -1   49.35    1.66 
   4  13  -1   11.70    0.71 
   4 -13   1   10.73    0.79 
   4 -13   1   12.98    0.81 
  -4  13   1   11.35    0.77 
   4  13   1   13.50    0.77 
   4 -13  -1   12.67    0.80 
   4 -13  -1   12.75    0.85 
  -4  13  -1   11.55    0.79 
  -5  13   1    6.67    0.61 
   5  13  -1    6.35    0.55 
   5 -13   1    6.94    0.64 
   5 -13   1    6.00    0.61 
   5  13   1    6.44    0.59 
   5 -13  -1    7.87    0.67 
   5 -13  -1    8.21    0.67 
  -5  13  -1    7.36    0.65 
   6 -13   1   31.09    1.37 
  -6  13   1   32.69    1.35 
   6  13  -1   30.76    1.21 
   6 -13   1   32.69    1.34 
   6  13   1   32.48    1.25 
   6 -13  -1   30.26    1.34 
   6 -13  -1   28.26    1.26 
  -6  13  -1   30.44    1.28 
   7 -13   1   18.84    1.11 
   7  13  -1   16.24    0.86 
   7 -13   1   16.52    1.07 
   7 -13  -1   22.34    1.19 
   7  13   1   17.86    0.96 
   7 -13  -1   19.94    1.09 
   8 -13   1   28.44    1.39 
   8 -13   1   28.61    1.37 
   8  13  -1   28.54    1.19 
   8  13   1   29.64    1.26 
   8 -13  -1   32.70    1.46 
   8 -13  -1   29.20    1.38 
   9 -13   1   19.95    1.25 
   9 -13  -1   15.39    1.12 
   0  14   1    4.30    0.50 
   0 -14   1    4.83    0.45 
   0  14  -1    5.24    0.54 
   0 -14  -1    4.88    0.45 
   1 -14   1   24.45    1.05 
  -1  14   1   25.67    1.11 
   1 -14   1   26.06    1.03 
   1  14  -1   26.16    1.09 
   1  14   1   30.04    1.20 
   1 -14  -1   31.81    1.18 
  -1  14  -1   30.14    1.21 
   1 -14  -1   29.92    1.12 
  -2  14   1   65.33    2.08 
   2  14  -1   64.04    2.04 
   2 -14   1   65.19    2.03 
   2 -14   1   65.71    1.99 
   2  14   1   70.35    2.17 
  -2  14  -1   66.71    2.16 
   2 -14  -1   69.43    2.12 
   2 -14  -1   70.04    2.09 
  -3  14   1   56.62    1.86 
   3  14  -1   52.56    1.76 
   3 -14   1   54.66    1.82 
   3 -14   1   53.79    1.76 
  -3  14  -1   62.14    2.00 
   3  14   1   61.61    1.96 
   3 -14  -1   60.38    1.94 
   3 -14  -1   58.88    1.90 
   4  14  -1   87.42    2.61 
   4 -14   1   87.65    2.64 
   4 -14   1   89.27    2.62 
  -4  14   1   90.13    2.71 
  -4  14  -1   89.30    2.72 
   4  14   1   88.40    2.67 
   4 -14  -1   90.07    2.64 
   4 -14  -1   91.47    2.69 
   5  14  -1   44.73    1.61 
  -5  14   1   46.77    1.73 
   5 -14   1   50.13    1.70 
   5 -14   1   47.40    1.70 
   5 -14  -1   47.94    1.68 
  -5  14  -1   47.23    1.71 
   5  14   1   45.43    1.66 
   5 -14  -1   47.61    1.71 
   6 -14   1   34.13    1.45 
   6 -14   1   34.77    1.49 
   6  14  -1   38.57    1.39 
   6 -14  -1   30.74    1.34 
   6 -14  -1   31.78    1.42 
  -6  14  -1   32.92    1.41 
   6  14   1   32.25    1.32 
   7 -14   1   17.80    1.10 
   7 -14   1   17.10    1.13 
   7  14  -1   17.22    0.92 
   7 -14  -1   18.60    1.13 
   7 -14  -1   18.23    1.08 
   7  14   1   16.46    0.97 
   8 -14   1    3.57    0.64 
   8 -14   1    5.14    0.71 
   8 -14  -1    3.30    0.66 
   8 -14  -1    3.81    0.64 
   0  15   1  126.89    3.65 
   0 -15   1  129.43    3.49 
   0  15  -1  129.67    3.65 
   1  15  -1   13.44    0.83 
  -1  15   1   12.83    0.85 
   1 -15   1   13.13    0.77 
   1  15   1   11.32    0.77 
  -1  15  -1   10.84    0.78 
   1 -15  -1    9.33    0.70 
   2 -15   1   71.13    2.20 
  -2  15   1   73.52    2.35 
   2  15  -1   74.94    2.29 
   2 -15  -1   63.90    1.97 
  -2  15  -1   59.69    2.04 
   2  15   1   64.61    2.07 
  -3  15   1   20.43    1.06 
   3 -15   1   21.26    1.01 
   3 -15   1   19.08    1.05 
   3  15  -1   19.71    1.00 
   3  15   1   12.91    0.82 
   3 -15  -1   12.44    0.84 
  -3  15  -1   14.78    0.90 
   3 -15  -1   14.82    0.90 
   4  15  -1    1.74    0.42 
   4 -15   1    2.39    0.52 
   4 -15   1    2.13    0.48 
  -4  15   1    1.11    0.46 
   4 -15  -1    1.08    0.45 
   4 -15  -1    1.54    0.46 
   4  15   1    1.82    0.44 
  -4  15  -1    1.73    0.45 
   5 -15   1   17.52    1.08 
   5  15  -1   19.25    1.00 
  -5  15   1   19.77    1.08 
   5 -15   1   17.98    1.07 
   5 -15  -1   16.79    1.02 
  -5  15  -1   15.75    1.03 
   5  15   1   14.04    0.92 
   5 -15  -1   16.34    1.07 
   6 -15   1   24.59    1.28 
   6 -15   1   22.02    1.18 
   6  15  -1   22.24    1.09 
   6  15   1   25.79    1.22 
   6 -15  -1   27.40    1.35 
   6 -15  -1   25.04    1.24 
   7  15  -1   10.10    0.80 
   7 -15   1   12.25    0.90 
   7 -15   1   12.48    0.94 
   7 -15  -1   13.86    1.03 
   7  15   1   12.44    0.90 
   7 -15  -1   15.65    1.16 
   8 -15   1   33.75    1.61 
   8 -15  -1   30.56    1.54 
   8 -15  -1   28.56    1.44 
   0  16  -1    0.82    0.40 
   0 -16   1   -0.02    0.33 
   0  16   1    0.57    0.39 
  -1  16   1    8.64    0.74 
   1  16  -1   10.32    0.83 
   1 -16   1    9.46    0.74 
   1 -16  -1    8.94    0.71 
  -1  16  -1    9.91    0.79 
   1  16   1    7.02    0.65 
   2  16  -1   43.02    1.57 
  -2  16   1   40.09    1.62 
   2 -16   1   42.11    1.51 
  -2  16  -1   39.81    1.63 
   2 -16  -1   45.41    1.54 
   2  16   1   44.92    1.63 
   3  16  -1    1.80    0.44 
   3 -16   1    1.62    0.46 
  -3  16   1    2.06    0.53 
   3  16   1    1.83    0.46 
  -3  16  -1    2.27    0.49 
   3 -16  -1    1.81    0.48 
   4  16  -1   59.96    2.01 
  -4  16   1   63.08    2.15 
   4 -16   1   57.16    1.98 
  -4  16  -1   50.86    1.93 
   4  16   1   56.41    1.92 
   4 -16  -1   54.88    1.87 
   5 -16   1    1.95    0.53 
   5  16  -1    2.11    0.46 
  -5  16   1    2.64    0.56 
   5 -16  -1    1.48    0.52 
  -5  16  -1    1.55    0.52 
   5  16   1    1.95    0.49 
   5 -16  -1    0.48    0.47 
   6 -16   1   29.36    1.39 
   6  16  -1   27.76    1.27 
   6 -16  -1   24.23    1.22 
   6 -16  -1   20.34    1.26 
   6  16   1   20.98    1.16 
   7  16  -1    4.99    0.62 
   7 -16   1    7.13    0.77 
   7 -16  -1    2.90    0.65 
   7 -16  -1    4.41    0.67 
   7  16   1    4.08    0.59 
   0  17  -1   69.11    2.29 
   0  17   1   66.98    2.27 
   1 -17   1    2.51    0.46 
   1  17  -1    3.81    0.57 
  -1  17   1    2.45    0.53 
  -1  17  -1    4.65    0.62 
   1  17   1    4.64    0.61 
   1 -17  -1    3.37    0.50 
  -2  17   1   33.17    1.47 
   2 -17   1   33.65    1.34 
   2  17  -1   33.71    1.41 
   2  17   1   37.65    1.50 
   2 -17  -1   34.82    1.38 
  -2  17  -1   34.76    1.50 
  -3  17   1    9.15    0.83 
   3 -17   1    8.07    0.70 
   3  17  -1    6.40    0.67 
   3  17   1    8.81    0.76 
   3 -17  -1    7.91    0.70 
  -3  17  -1    9.30    0.82 
  -4  17   1   -0.42    0.44 
   4 -17   1    0.05    0.47 
   4  17  -1    0.64    0.43 
   4  17   1    0.01    0.40 
  -4  17  -1   -0.64    0.43 
   4 -17  -1    0.07    0.48 
   5 -17   1    4.56    0.66 
  -5  17   1    4.41    0.68 
   5  17  -1    5.11    0.63 
   5  17   1    5.54    0.68 
   5 -17  -1    5.40    0.68 
  -5  17  -1    6.39    0.75 
   6  17  -1   16.55    1.05 
   6 -17   1   17.85    1.15 
   6 -17  -1   16.09    1.17 
   6  17   1   15.90    1.07 
   7  17  -1    1.01    0.46 
   7  17   1    0.69    0.47 
   0  18  -1    0.33    0.46 
   0  18   1    0.49    0.45 
   1 -18   1    0.94    0.45 
  -1  18   1    1.10    0.49 
   1  18  -1    0.93    0.46 
  -1  18  -1    4.02    0.65 
   1  18   1    3.59    0.61 
   2  18  -1   37.57    1.58 
  -2  18   1   37.44    1.65 
   2 -18   1   39.34    1.48 
   2  18   1   37.12    1.56 
  -2  18  -1   32.49    1.54 
   2 -18  -1   35.29    1.42 
   3  18  -1    1.20    0.49 
   3 -18   1    1.38    0.52 
  -3  18   1    0.98    0.52 
   3 -18  -1    0.55    0.47 
   3  18   1    0.53    0.45 
  -3  18  -1    0.80    0.51 
  -4  18   1   52.60    2.01 
   4  18  -1   51.04    1.92 
   4 -18   1   51.78    1.89 
   4  18   1   50.90    1.93 
  -4  18  -1   51.28    2.02 
   4 -18  -1   52.32    1.91 
   5 -18   1    0.69    0.56 
  -5  18   1    0.40    0.51 
   5  18  -1    0.89    0.48 
   5  18   1    0.82    0.50 
   5 -18  -1    1.26    0.57 
  -5  18  -1    1.01    0.55 
   6  18  -1   23.89    1.33 
   0  19   1   62.95    2.23 
   0  19  -1   57.97    2.17 
   1  19  -1    6.50    0.74 
  -1  19   1    6.02    0.77 
   1  19   1    5.30    0.72 
  -1  19  -1    6.17    0.76 
   2 -19   1   32.38    1.40 
   2  19  -1   33.26    1.54 
  -2  19   1   33.83    1.56 
   2  19   1   35.04    1.60 
  -2  19  -1   36.68    1.65 
   2 -19  -1   35.33    1.46 
  -3  19   1    3.84    0.69 
   3  19  -1    4.19    0.65 
   3 -19   1    3.87    0.62 
   3 -19  -1    3.35    0.61 
  -3  19  -1    3.32    0.69 
   3  19   1    3.07    0.61 
   4  19  -1    1.13    0.51 
  -4  19   1    2.03    0.62 
  -4  19  -1    1.90    0.64 
   4  19   1    2.04    0.58 
  -5  19  -1    3.41    0.68 
   0  20   1   -0.23    0.50 
   0  20  -1   -0.08    0.48 
   1  20  -1    6.74    0.81 
  -1  20   1    8.11    0.90 
   1  20   1    7.54    0.84 
  -1  20  -1    6.98    0.83 
   2 -20   1   18.63    1.16 
   2  20  -1   18.84    1.32 
  -2  20   1   19.71    1.29 
   2  20   1   17.78    1.29 
  -2  20  -1   15.72    1.26 
  -3  20   1   13.97    1.12 
  -3  20  -1   11.13    1.01 
  -4  20   1   25.07    1.48 
  -4  20  -1   22.66    1.49 
  -1   0   2    4.44    0.14 
   2   0   2  407.63   10.15 
  -2   0  -2  416.78   10.09 
   2   0  -2  413.65    9.86 
  -2   0  -2  407.79    9.88 
   2   0   2  420.30   10.01 
  -2   0  -2  409.81   10.16 
   2   0   2  396.16   10.18 
  -2   0   2  421.98   10.08 
   2   0  -2  413.09   10.11 
   3   0  -2  129.31    3.12 
   3   0  -2  127.03    3.19 
   3   0   2  126.41    3.19 
   3   0   2  131.16    3.25 
  -3   0  -2  129.62    3.21 
  -3   0  -2  127.91    3.16 
  -3   0  -2  133.78    3.25 
   4   0   2   10.61    0.39 
   4   0   2   11.26    0.41 
   4   0  -2   10.41    0.34 
   4   0  -2   11.12    0.33 
  -4   0  -2   10.61    0.39 
   5   0  -2  125.02    2.97 
  -5   0  -2  104.23    3.03 
   5   0   2  125.28    3.09 
   5   0   2  122.78    3.03 
   5   0  -2  124.55    3.02 
   6   0   2   46.39    1.31 
   6   0  -2   45.45    1.24 
   6   0  -2   47.01    1.25 
   6   0   2   46.14    1.31 
   7   0  -2   38.14    1.10 
   7   0  -2   38.40    1.09 
   7   0   2   38.40    1.17 
   7   0   2   38.42    1.17 
   8   0   2   60.50    1.70 
   8   0  -2   57.38    1.60 
   9   0   2    3.46    0.39 
   9   0  -2    4.25    0.34 
  10   0   2   30.53    1.11 
  10   0  -2   27.49    0.96 
  11   0  -2   13.53    0.65 
  -1   1   2   48.97    1.21 
  -1   1   2   48.50    1.19 
  -1  -1  -2   49.53    1.21 
  -1   1   2   43.60    1.20 
  -1  -1  -2   48.26    1.23 
   1  -1   2   48.63    1.21 
  -1   1   2   47.89    1.22 
   1   1   2   42.50    1.10 
   2  -1   2  201.58    5.07 
  -2   1   2  204.99    4.91 
   2  -1   2  206.46    4.97 
  -2  -1  -2  205.54    5.05 
  -2   1  -2  241.67    6.02 
  -2   1  -2  247.82    6.15 
   2   1   2  246.02    6.14 
   2   1   2  256.09    6.15 
   2  -1  -2  244.62    5.99 
   2  -1  -2  253.09    6.11 
   2  -1  -2  259.96    6.12 
   2   1   2  252.93    6.02 
  -2   1  -2  241.73    6.16 
   3  -1   2   12.56    0.44 
   3  -1   2   13.82    0.45 
  -3   1   2   14.47    0.40 
  -3  -1  -2   13.81    0.44 
  -3   1  -2   10.17    0.38 
  -3   1  -2   11.12    0.36 
   3   1   2   10.22    0.36 
   3  -1  -2   10.52    0.33 
   3  -1  -2   10.96    0.34 
   3  -1  -2   10.39    0.34 
   3   1   2   10.89    0.36 
  -3   1  -2   10.54    0.35 
   3   1   2   10.79    0.38 
  -4  -1  -2  213.89    5.35 
   4  -1   2  217.44    5.39 
  -4   1   2  221.55    5.31 
   4  -1   2  215.68    5.29 
   4   1  -2  210.75    5.18 
   4  -1  -2  223.05    5.61 
   4   1   2  227.26    5.64 
   4  -1  -2  226.97    5.60 
  -4   1  -2  220.49    5.63 
  -4   1  -2  235.25    5.60 
   4  -1  -2  223.63    5.49 
   4   1   2  230.56    5.53 
  -5   1   2   21.73    0.61 
   5  -1   2   21.30    0.72 
   5  -1   2   22.54    0.72 
  -5   1   2   23.10    0.61 
   5   1  -2   22.12    0.61 
   5  -1  -2   24.27    0.70 
  -5   1  -2   23.35    0.73 
   5  -1  -2   23.53    0.70 
   5   1   2   23.72    0.73 
   5   1   2   23.46    0.73 
   6   1  -2   95.95    2.42 
   6  -1   2   98.02    2.57 
  -6  -1  -2   98.98    2.47 
   6   1  -2   97.31    2.46 
   6  -1   2   95.16    2.53 
  -6   1  -2   94.22    2.40 
   6  -1  -2   91.15    2.35 
   6   1   2   92.15    2.42 
   6   1   2   91.22    2.39 
   6  -1  -2   91.94    2.39 
   7  -1   2   69.97    1.90 
   7  -1   2   69.61    1.92 
   7   1  -2   65.68    1.77 
   7   1  -2   69.72    1.81 
   7   1   2   55.51    1.56 
   7  -1  -2   54.98    1.52 
   7  -1  -2   55.35    1.54 
   7   1   2   56.64    1.57 
   8  -1   2    1.93    0.32 
   8  -1   2    2.30    0.32 
   8   1  -2    2.82    0.26 
   8   1   2    2.47    0.32 
   8  -1  -2    2.75    0.29 
   9   1  -2   35.95    1.08 
   9  -1   2   37.12    1.25 
   9   1   2   35.17    1.18 
   9  -1  -2   35.89    1.13 
  10   1  -2   13.96    0.61 
  10  -1   2   14.47    0.80 
  10  -1  -2   13.66    0.66 
  10   1   2   12.70    0.74 
  11   1  -2    5.13    0.37 
   0  -2   2  276.38    6.53 
   0  -2  -2  249.34    6.47 
   0   2   2  253.78    6.55 
   0   2   2  251.10    6.51 
   0   2  -2  286.59    6.62 
  -1   2   2   24.45    0.68 
  -1   2   2   25.43    0.70 
   1  -2   2   24.77    0.71 
  -1  -2  -2   25.64    0.70 
   1   2  -2   26.75    0.67 
   1   2  -2   24.89    0.66 
   1  -2   2   25.53    0.70 
  -1   2   2   24.96    0.69 
   1   2   2    8.89    0.31 
  -1   2  -2    9.30    0.31 
   1  -2  -2    8.67    0.30 
   1  -2  -2    7.48    0.28 
   1  -2  -2    8.27    0.29 
  -1   2  -2    9.30    0.31 
  -1  -2   2    9.62    0.24 
  -1  -2   2    8.90    0.25 
   2   2  -2  230.18    5.46 
   2  -2   2  220.02    5.55 
  -2   2   2  220.98    5.40 
   2  -2   2  226.02    5.44 
  -2  -2  -2  231.13    5.52 
  -2   2   2  216.48    5.51 
  -2   2   2  219.37    5.52 
   2  -2  -2  201.77    4.88 
   2  -2  -2  200.13    4.98 
   2  -2  -2  205.35    4.98 
   2   2   2  199.72    4.99 
  -2   2  -2  197.94    5.00 
  -2   2  -2  204.37    5.00 
  -2   2  -2  205.81    4.90 
   2   2   2  194.72    4.88 
   3  -2   2   45.66    1.26 
  -3   2   2   48.47    1.23 
  -3  -2  -2   48.30    1.23 
  -3   2   2   45.88    1.18 
  -3   2   2   44.62    1.18 
   3  -2   2   46.39    1.25 
   3   2   2   49.47    1.34 
   3   2   2   49.62    1.31 
  -3   2  -2   48.98    1.32 
  -3   2  -2   50.80    1.33 
   3  -2  -2   51.53    1.33 
   3   2   2   51.20    1.32 
  -3   2  -2   47.28    1.35 
   3  -2  -2   52.31    1.33 
   3  -2  -2   51.44    1.31 
   4  -2   2   64.57    1.71 
   4  -2   2   64.46    1.73 
  -4  -2  -2   64.80    1.67 
   4  -2  -2   55.55    1.43 
   4   2   2   56.12    1.44 
  -4   2  -2   52.90    1.47 
   4  -2  -2   55.03    1.44 
   4   2   2   54.09    1.42 
   4  -2  -2   54.06    1.44 
   4   2   2   53.06    1.46 
  -4   2  -2   53.76    1.43 
   5   2  -2   56.89    1.43 
   5  -2   2   55.99    1.57 
  -5   2   2   58.73    1.51 
   5  -2   2   58.36    1.59 
  -5   2  -2   63.45    1.66 
   5  -2  -2   62.11    1.69 
   5   2   2   65.10    1.70 
  -5   2  -2   66.86    1.75 
   5  -2  -2   64.90    1.72 
   5   2   2   65.79    1.72 
  -6  -2  -2   65.63    1.73 
  -6   2   2   68.52    1.74 
   6  -2   2   67.26    1.85 
   6  -2   2   68.60    1.87 
   6   2  -2   66.46    1.69 
   6  -2  -2   76.85    2.05 
  -6   2  -2   78.42    2.09 
   6  -2  -2   82.22    2.09 
   6   2   2   76.50    2.08 
   6   2   2   78.37    2.06 
   7  -2   2    7.88    0.49 
   7   2  -2    7.98    0.35 
   7  -2   2    6.93    0.48 
   7  -2  -2   11.38    0.53 
   7   2   2   12.26    0.54 
   7  -2  -2   11.85    0.54 
   7   2   2   12.50    0.53 
   8  -2   2   90.11    2.48 
   8   2  -2   90.10    2.29 
   8  -2   2   89.28    2.50 
   8   2   2   94.51    2.52 
   8  -2  -2   94.93    2.51 
   9  -2   2    6.98    0.54 
   9   2  -2    7.50    0.42 
   9   2   2    8.93    0.58 
   9  -2  -2    9.18    0.58 
  10   2  -2   33.60    1.01 
  10  -2   2   34.38    1.26 
  10  -2  -2   31.64    1.09 
  10   2   2   30.39    1.11 
   0   3   2  246.10    6.36 
   0   3   2  266.52    6.24 
   0   3  -2  259.94    6.36 
   0  -3  -2  269.93    6.37 
   0   3  -2  255.71    6.24 
   0   3  -2  263.76    6.37 
   0   3   2  247.47    6.37 
   0  -3   2  255.41    6.36 
   1  -3   2  130.79    3.25 
   1   3  -2  125.03    3.20 
   1   3  -2  133.26    3.14 
   1  -3   2  128.73    3.19 
  -1   3   2  128.18    3.23 
  -1   3   2  125.67    3.18 
   1   3  -2  129.45    3.20 
  -1  -3  -2  132.95    3.23 
  -1   3   2  124.17    3.24 
  -1  -3   2  100.28    2.43 
   1  -3  -2   99.41    2.52 
  -1   3  -2  102.20    2.53 
   1  -3  -2   98.23    2.51 
   1  -3  -2   96.88    2.47 
  -1  -3   2  102.17    2.47 
   1   3   2   99.48    2.52 
  -1   3  -2   99.97    2.48 
  -1   3  -2   92.80    2.52 
  -2  -3  -2  281.18    6.84 
   2  -3   2  279.80    6.89 
  -2   3   2  269.20    6.72 
  -2   3   2  277.81    6.85 
   2   3  -2  283.84    6.69 
   2  -3   2  261.19    6.74 
   2   3  -2  289.39    6.83 
  -2   3   2  274.26    6.86 
   2  -3  -2  306.59    7.60 
   2  -3  -2  305.38    7.45 
  -2   3  -2  293.94    7.46 
  -2   3  -2  312.59    7.62 
  -2   3  -2  298.29    7.60 
   2   3   2  322.41    7.60 
   2  -3  -2  313.60    7.59 
   3   3  -2   75.93    1.87 
   3  -3   2   73.26    1.95 
  -3   3   2   73.61    1.92 
   3  -3   2   74.53    1.98 
  -3  -3  -2   73.71    1.92 
  -3   3   2   78.00    1.95 
   3   3   2   70.59    1.83 
   3  -3  -2   68.84    1.81 
   3  -3  -2   68.94    1.82 
  -3   3  -2   70.79    1.84 
  -3   3  -2   70.04    1.86 
   3  -3  -2   70.19    1.83 
   4  -3   2  246.68    6.07 
   4  -3   2  241.86    5.95 
  -4   3   2  242.39    6.01 
  -4   3   2  235.92    5.96 
  -4  -3  -2  242.32    5.98 
   4  -3  -2  250.36    6.41 
   4   3   2  248.60    6.28 
   4  -3  -2  258.24    6.30 
   4   3   2  268.96    6.41 
  -4   3  -2  259.86    6.44 
   4  -3  -2  251.50    6.42 
  -4   3  -2  265.52    6.42 
   4   3   2  261.37    6.42 
   5  -3   2   16.08    0.61 
  -5   3   2   16.88    0.55 
   5  -3   2   15.23    0.61 
   5   3   2   15.52    0.53 
   5  -3  -2   15.86    0.57 
  -5   3  -2   16.36    0.52 
   5   3   2   16.51    0.57 
   5  -3  -2   15.20    0.56 
   5  -3  -2   15.87    0.57 
   5   3   2   14.49    0.54 
  -5   3  -2   16.33    0.59 
  -6  -3  -2   75.19    1.91 
   6  -3   2   75.18    2.08 
   6  -3   2   78.02    2.07 
   6   3  -2   73.33    1.87 
   6   3   2   83.13    2.20 
   6  -3  -2   84.30    2.23 
   6   3   2   85.51    2.23 
  -6   3  -2   87.03    2.27 
   6  -3  -2   82.30    2.25 
   7  -3   2   17.72    0.74 
   7   3  -2   16.50    0.53 
   7  -3   2   17.07    0.72 
   7   3   2   20.89    0.74 
   7   3   2   20.94    0.73 
   7  -3  -2   20.97    0.77 
   7  -3  -2   20.42    0.76 
   8   3  -2   25.97    0.81 
   8  -3   2   29.51    1.05 
   8  -3   2   28.26    1.03 
   8  -3  -2   27.42    0.99 
   8   3   2   29.31    0.96 
   9   3  -2   10.77    0.47 
   9  -3   2   11.40    0.71 
   9  -3  -2   15.94    0.76 
   9   3   2   16.36    0.72 
  10  -3   2   14.56    0.84 
  10   3  -2   13.39    0.52 
  10   3   2   15.28    0.76 
  10  -3  -2   17.13    0.81 
   0  -4  -2  553.67   13.57 
   0   4   2  546.36   13.59 
   0  -4  -2  537.19   13.22 
   0  -4   2  587.96   13.65 
   0  -4   2  468.78   13.20 
   0  -4  -2  575.73   13.55 
   0   4  -2  546.99   13.76 
   0   4  -2  590.54   13.33 
   0   4  -2  540.18   13.59 
   0   4   2  572.12   13.56 
   0   4   2  535.92   13.22 
   0  -4   2  549.86   13.61 
   1   4  -2  180.77    4.66 
   1   4  -2  188.60    4.66 
   1  -4   2  188.74    4.71 
  -1   4   2  190.63    4.70 
   1  -4   2  185.29    4.69 
  -1  -4  -2  191.80    4.68 
  -1   4   2  180.86    4.61 
   1  -4   2  191.91    4.62 
  -1   4   2  191.68    4.70 
   1   4  -2  186.64    4.57 
  -1   4  -2  173.80    4.29 
   1  -4  -2  173.53    4.27 
   1   4   2  178.26    4.36 
   1  -4  -2  177.58    4.36 
  -1  -4   2  180.25    4.31 
  -1   4  -2  170.92    4.35 
  -1  -4   2  169.23    4.23 
  -1   4  -2  169.48    4.37 
  -1  -4   2  171.73    4.31 
   1  -4  -2  171.95    4.34 
   2  -4   2  165.67    4.05 
   2   4  -2  166.22    4.03 
   2  -4   2  163.21    4.12 
  -2   4   2  162.33    4.03 
  -2   4   2  164.34    4.10 
  -2  -4  -2  151.04    4.07 
  -2   4   2  160.31    4.10 
   2   4  -2  163.95    3.96 
   2   4  -2  166.73    4.05 
  -2   4  -2  156.29    3.83 
  -2   4  -2  146.94    3.82 
  -2   4  -2  147.89    3.75 
   2  -4  -2  151.27    3.80 
   2  -4  -2  151.43    3.74 
   2   4   2  153.05    3.80 
  -2  -4   2  151.88    3.74 
   2  -4  -2  146.13    3.80 
  -3  -4  -2  119.45    3.08 
   3   4  -2  120.82    2.98 
  -3   4   2  123.10    3.12 
   3  -4   2  122.34    3.10 
  -3   4   2  121.43    3.12 
   3  -4   2  122.74    3.16 
   3   4  -2  125.07    3.05 
   3  -4  -2   94.00    2.46 
  -3   4  -2   96.88    2.48 
  -3   4  -2   91.19    2.47 
   3   4   2   96.28    2.45 
   3  -4  -2   92.58    2.46 
   3  -4  -2   97.36    2.43 
  -4   4   2   64.47    1.73 
  -4   4   2   62.07    1.68 
   4   4  -2   65.47    1.63 
   4  -4   2   63.89    1.74 
   4  -4   2   64.33    1.77 
  -4   4  -2   74.14    1.95 
  -4   4  -2   70.61    1.92 
   4   4   2   72.65    1.87 
   4   4   2   73.58    1.92 
   4  -4  -2   69.89    1.90 
   4  -4  -2   71.78    1.93 
   4  -4  -2   71.42    1.92 
  -5   4   2   26.81    0.85 
   5  -4   2   28.07    0.91 
   5  -4   2   26.82    0.91 
   5   4  -2   27.96    0.73 
  -5   4   2   26.74    0.75 
   5   4   2   26.77    0.78 
   5  -4  -2   24.67    0.82 
   5  -4  -2   26.01    0.84 
  -5   4  -2   25.57    0.79 
  -5   4  -2   24.87    0.84 
   5  -4  -2   26.49    0.83 
   5   4   2   25.24    0.79 
   5   4   2   25.44    0.81 
  -6   4   2   52.16    1.44 
   6  -4   2   50.47    1.53 
   6  -4   2   53.65    1.52 
   6   4  -2   49.51    1.32 
   6  -4  -2   55.21    1.58 
   6  -4  -2   54.91    1.58 
  -6   4  -2   57.40    1.60 
   6   4   2   56.17    1.56 
   6   4   2   55.08    1.53 
  -6   4  -2   56.51    1.50 
   6   4   2   55.19    1.54 
   7   4  -2   23.78    0.70 
   7  -4   2   23.70    0.92 
   7  -4   2   24.44    0.92 
   7   4   2   30.72    0.99 
   7  -4  -2   32.25    1.06 
   7  -4  -2   32.65    1.05 
   7   4   2   31.57    0.99 
   8  -4   2   52.91    1.67 
   8   4  -2   52.47    1.41 
   8  -4   2   55.79    1.67 
   8   4   2   57.39    1.67 
   8  -4  -2   60.57    1.74 
   9   4  -2   21.62    0.68 
   9  -4   2   20.94    0.96 
   9   4   2   19.99    0.81 
   9  -4  -2   21.37    0.89 
  10  -4   2   26.95    1.15 
  10   4   2   25.07    0.97 
  10  -4  -2   26.77    1.07 
   0  -5   2   91.59    2.36 
   0  -5  -2   91.90    2.37 
   0   5  -2   91.79    2.40 
   0   5   2   97.71    2.38 
   0   5  -2   92.96    2.40 
   0   5   2   91.05    2.39 
   0   5   2   93.36    2.42 
   0  -5   2   93.62    2.40 
   0  -5  -2   93.77    2.41 
   0  -5  -2   92.12    2.39 
   0  -5   2   93.36    2.40 
   0   5  -2   94.22    2.37 
  -1   5   2   47.48    1.32 
   1   5  -2   44.95    1.29 
   1   5  -2   49.66    1.28 
   1  -5   2   48.31    1.32 
  -1   5   2   49.98    1.34 
   1   5  -2   48.96    1.29 
   1  -5   2   48.95    1.33 
  -1  -5  -2   48.13    1.31 
  -1   5   2   46.45    1.31 
   1  -5   2   47.27    1.31 
  -1  -5   2   61.01    1.51 
   1   5   2   56.09    1.51 
   1   5   2   58.02    1.51 
   1  -5  -2   55.84    1.53 
  -1  -5   2   56.86    1.51 
   1   5   2   55.72    1.55 
   1  -5  -2   56.73    1.55 
  -1   5  -2   57.79    1.56 
  -1   5  -2   57.03    1.56 
  -1   5  -2   59.95    1.55 
  -1  -5   2   56.55    1.49 
   1  -5  -2   57.69    1.54 
  -2   5   2   77.59    2.11 
   2  -5   2   82.58    2.10 
   2   5  -2   79.56    2.02 
   2  -5   2   78.40    2.12 
  -2   5   2   78.96    2.08 
   2  -5   2   78.86    2.11 
  -2   5   2   80.25    2.11 
   2   5  -2   81.55    2.04 
  -2  -5  -2   78.11    2.07 
   2   5  -2   79.54    2.06 
   2  -5  -2   65.55    1.75 
   2   5   2   63.31    1.75 
  -2  -5   2   62.99    1.69 
  -2   5  -2   65.65    1.78 
   2  -5  -2   67.08    1.74 
  -2   5  -2   64.35    1.75 
  -2   5  -2   67.84    1.78 
   2  -5  -2   66.53    1.77 
   3   5  -2  141.19    3.40 
   3  -5   2  135.01    3.58 
   3  -5   2  141.03    3.52 
   3   5  -2  138.73    3.45 
  -3   5   2  137.45    3.55 
  -3   5   2  133.43    3.55 
   3   5  -2  143.47    3.48 
  -3   5  -2  160.32    4.24 
   3  -5  -2  163.55    4.23 
   3  -5  -2  172.26    4.17 
   3  -5  -2  166.19    4.23 
  -3   5  -2  166.83    4.25 
   3   5   2  169.74    4.22 
  -4   5   2  107.57    2.90 
   4  -5   2  113.58    2.97 
  -4   5   2  110.84    2.92 
   4   5  -2  115.81    2.84 
   4   5  -2  112.12    2.77 
   4  -5   2  113.92    2.92 
  -4   5  -2  100.03    2.75 
   4  -5  -2  102.54    2.76 
   4   5   2  106.06    2.75 
  -4   5  -2  106.82    2.79 
   4  -5  -2  106.68    2.77 
   4  -5  -2  110.43    2.74 
   5  -5   2  132.99    3.51 
   5  -5   2  131.76    3.45 
   5   5  -2  136.97    3.34 
  -5   5   2  130.33    3.39 
  -5   5   2  135.57    3.46 
  -5   5  -2  121.09    3.18 
   5  -5  -2  116.77    3.19 
  -5   5  -2  124.44    3.22 
   5   5   2  125.23    3.11 
   5  -5  -2  120.79    3.16 
   5  -5  -2  121.42    3.20 
   5   5   2  126.39    3.18 
  -6   5   2   60.28    1.74 
   6  -5   2   63.88    1.80 
   6  -5   2   62.85    1.82 
   6   5   2   66.41    1.82 
   6   5   2   68.02    1.86 
   6  -5  -2   66.01    1.89 
   6  -5  -2   67.24    1.89 
  -6   5  -2   66.09    1.83 
   6   5   2   69.21    1.84 
  -6   5  -2   69.35    1.91 
   7  -5   2   23.21    0.92 
   7   5  -2   23.36    0.69 
   7  -5   2   21.97    0.91 
   7   5   2   14.18    0.61 
   7   5   2   14.79    0.59 
   7  -5  -2   14.02    0.67 
   7  -5  -2   13.81    0.68 
   8   5  -2   34.14    0.98 
   8  -5   2   36.00    1.27 
   8  -5   2   34.93    1.25 
   8  -5  -2   30.41    1.09 
   8   5   2   30.73    1.01 
   8  -5  -2   29.26    1.08 
   9  -5   2    2.92    0.45 
   9   5  -2    3.02    0.24 
   9  -5  -2    3.19    0.42 
   9   5   2    3.33    0.36 
  10  -5   2   16.49    0.95 
  10  -5  -2   19.29    0.95 
  10   5   2   17.17    0.78 
   0   6  -2   59.71    1.66 
   0  -6   2   59.69    1.66 
   0   6  -2   62.58    1.65 
   0  -6   2   61.16    1.65 
   0   6  -2   64.76    1.69 
   0  -6  -2   59.98    1.65 
   0  -6  -2   61.07    1.65 
   0  -6   2   63.04    1.66 
   0   6   2   59.93    1.65 
   0   6   2   66.30    1.71 
   0  -6  -2   63.11    1.68 
   0   6   2   61.69    1.66 
  -1   6   2  225.02    5.51 
   1  -6   2  207.64    5.59 
   1  -6   2  232.53    5.51 
  -1   6   2  219.14    5.61 
  -1   6   2  228.15    5.62 
   1   6  -2  218.80    5.57 
   1   6  -2  224.17    5.48 
   1   6  -2  230.04    5.58 
   1  -6   2  222.40    5.61 
  -1  -6   2  230.11    5.59 
  -1  -6   2  227.34    5.64 
  -1   6  -2  226.80    5.54 
   1   6   2  227.14    5.64 
   1   6   2  229.41    5.64 
  -1   6  -2  222.42    5.64 
   1  -6  -2  220.75    5.61 
   1  -6  -2  213.25    5.62 
   1   6   2  225.02    5.51 
  -1  -6   2  223.23    5.49 
   1  -6  -2  221.14    5.53 
  -2   6   2   51.87    1.47 
   2   6  -2   52.51    1.42 
   2   6  -2   53.10    1.40 
  -2   6   2   52.06    1.47 
   2  -6   2   51.73    1.47 
   2   6  -2   51.34    1.39 
   2  -6   2   52.47    1.47 
  -2   6   2   54.15    1.47 
   2  -6   2   51.69    1.48 
   2   6   2   58.24    1.58 
  -2   6  -2   63.15    1.68 
   2  -6  -2   58.91    1.62 
   2  -6  -2   59.18    1.65 
  -2   6  -2   58.77    1.64 
   2   6   2   61.30    1.64 
   2  -6  -2   58.59    1.63 
   3  -6   2   19.34    0.72 
   3   6  -2   20.57    0.64 
  -3   6   2   19.60    0.70 
  -3   6   2   21.69    0.72 
   3   6  -2   20.15    0.62 
   3   6  -2   20.24    0.60 
   3  -6   2   20.21    0.73 
   3  -6   2   19.92    0.77 
   3  -6  -2   20.74    0.71 
   3  -6  -2   19.15    0.70 
   3   6   2   21.14    0.71 
   3  -6  -2   19.52    0.71 
  -3   6  -2   21.61    0.74 
   4   6  -2   55.40    1.45 
   4   6  -2   56.30    1.50 
   4  -6   2   56.86    1.62 
   4   6  -2   56.34    1.45 
  -4   6   2   52.12    1.56 
  -4   6   2   56.49    1.59 
   4  -6   2   57.04    1.60 
   4   6   2   49.46    1.40 
   4  -6  -2   48.02    1.41 
  -4   6  -2   49.48    1.44 
   4  -6  -2   47.73    1.42 
   4  -6  -2   49.38    1.42 
   5  -6   2   26.79    0.93 
   5   6  -2   25.22    0.76 
  -5   6   2   25.18    0.82 
   5  -6   2   25.42    0.92 
   5   6  -2   25.90    0.74 
  -5   6   2   25.30    0.88 
   5  -6  -2   30.28    1.01 
   5   6   2   31.12    0.98 
   5  -6  -2   29.48    1.00 
   5  -6  -2   32.32    1.02 
  -5   6  -2   28.67    1.00 
   6  -6   2   45.47    1.44 
   6   6  -2   47.14    1.23 
   6  -6   2   44.62    1.43 
   6   6  -2   45.29    1.22 
  -6   6   2   46.75    1.39 
   6  -6  -2   40.42    1.28 
   6   6   2   40.54    1.20 
   6   6   2   41.13    1.22 
   6   6   2   39.02    1.23 
  -6   6  -2   40.98    1.29 
   6  -6  -2   41.99    1.29 
   7  -6   2   59.75    1.82 
   7   6  -2   59.49    1.59 
   7  -6   2   61.82    1.85 
   7  -6  -2   62.48    1.88 
   7   6   2   62.72    1.80 
   7  -6  -2   65.38    1.88 
   7   6   2   64.93    1.87 
   7   6   2   64.46    1.79 
   8   6  -2   11.09    0.47 
   8  -6   2   11.54    0.74 
   8   6  -2   11.87    0.44 
   8  -6   2   12.30    0.75 
   8   6   2   13.59    0.64 
   8  -6  -2   13.02    0.74 
   8  -6  -2   12.32    0.73 
   9  -6   2   40.49    1.44 
   9   6  -2   38.48    1.07 
   9  -6  -2   36.08    1.29 
   9   6   2   33.71    1.15 
  10  -6   2    7.80    0.69 
  10  -6  -2    8.17    0.64 
  10   6   2    8.99    0.61 
   0  -7   2  135.55    3.34 
   0  -7  -2  130.76    3.33 
   0   7  -2  128.47    3.29 
   0  -7   2  133.59    3.29 
   0   7  -2  129.38    3.36 
   0   7   2  128.55    3.38 
   0  -7  -2  124.51    3.29 
   0   7   2  127.17    3.30 
  -1   7   2   18.22    0.66 
   1   7  -2   17.71    0.63 
   1  -7   2   17.84    0.64 
   1   7  -2   17.08    0.62 
   1  -7   2   18.93    0.66 
   1   7   2   24.59    0.81 
   1  -7  -2   24.07    0.80 
  -1   7  -2   24.46    0.81 
   1   7   2   24.23    0.78 
  -1  -7   2   26.27    0.77 
   1  -7  -2   23.65    0.78 
  -1   7  -2   22.59    0.81 
  -1  -7   2   24.74    0.75 
   2  -7   2   55.33    1.58 
   2   7  -2   56.66    1.54 
   2  -7   2   54.44    1.58 
  -2   7   2   56.96    1.60 
   2   7  -2   56.09    1.51 
   2  -7  -2   46.27    1.33 
   2   7   2   45.64    1.34 
   2   7   2   45.31    1.29 
  -2   7  -2   44.72    1.35 
   2  -7  -2   46.10    1.32 
  -2   7  -2   47.80    1.37 
   3  -7   2  169.20    4.25 
  -3   7   2  165.46    4.30 
   3   7  -2  167.15    4.14 
   3  -7   2  163.52    4.30 
   3   7  -2  169.01    4.23 
   3   7   2  182.41    4.73 
   3   7   2  184.02    4.61 
   3  -7  -2  190.06    4.75 
  -3   7  -2  187.25    4.78 
   3  -7  -2  185.12    4.68 
  -4   7   2   46.70    1.41 
   4  -7   2   46.42    1.43 
   4   7  -2   47.40    1.33 
   4  -7   2   48.04    1.44 
   4   7  -2   48.75    1.29 
   4  -7  -2   42.17    1.34 
  -4   7  -2   46.46    1.38 
   4   7   2   45.47    1.34 
   4  -7  -2   45.59    1.36 
   5   7  -2  139.22    3.40 
   5  -7   2  136.99    3.57 
   5   7  -2  138.39    3.48 
  -5   7   2  131.40    3.59 
  -5   7   2  135.56    3.57 
   5  -7   2  135.45    3.63 
  -5   7  -2  139.85    3.68 
   5  -7  -2  139.74    3.66 
   5  -7  -2  137.78    3.62 
   5   7   2  138.37    3.63 
   6   7  -2   22.37    0.69 
   6   7  -2   21.73    0.70 
  -6   7   2   21.65    0.84 
   6  -7   2   22.32    0.91 
   6  -7   2   21.90    0.91 
   6  -7  -2   25.46    0.96 
   6   7   2   25.49    0.90 
  -6   7  -2   27.08    0.98 
   6  -7  -2   26.26    0.98 
   6   7   2   26.40    0.91 
   7  -7   2   21.08    0.91 
   7   7  -2   19.32    0.63 
   7   7  -2   19.30    0.68 
   7  -7   2   18.57    0.90 
   7  -7  -2   20.17    0.91 
   7  -7  -2   20.22    0.89 
   7   7   2   21.51    0.82 
   7   7   2   23.01    0.83 
   8  -7   2   18.25    0.93 
   8  -7   2   18.98    0.93 
   8   7  -2   17.53    0.65 
   8   7  -2   18.41    0.61 
   8   7   2   23.78    0.90 
   8  -7  -2   23.30    1.00 
   8  -7  -2   24.22    1.03 
   9   7  -2    4.92    0.38 
   9  -7   2    5.67    0.60 
   9   7  -2    5.99    0.36 
   9   7   2    6.32    0.48 
   9  -7  -2    6.15    0.59 
  10  -7   2    7.70    0.72 
  10   7   2    9.13    0.61 
  10  -7  -2    7.45    0.65 
   0  -8  -2   13.70    0.56 
   0  -8   2   14.23    0.54 
   0   8   2   14.90    0.61 
   0   8  -2   14.34    0.58 
   0   8   2   12.79    0.56 
   0   8  -2   14.12    0.56 
   0  -8  -2   14.17    0.54 
   0  -8   2   12.90    0.55 
   1   8  -2  257.33    6.26 
  -1   8   2  241.45    6.28 
  -1   8   2  264.75    6.42 
   1  -8   2  242.66    6.37 
   1  -8   2  251.10    6.28 
   1   8  -2  261.34    6.37 
  -1   8  -2  265.00    6.66 
  -1   8  -2  269.69    6.78 
   1  -8  -2  264.28    6.74 
   1  -8  -2  268.15    6.64 
   1   8   2  274.00    6.78 
  -1  -8   2  279.18    6.72 
  -1  -8   2  270.61    6.60 
   1   8   2  258.57    6.62 
   2  -8   2   57.57    1.68 
   2   8  -2   60.64    1.62 
  -2   8   2   58.85    1.71 
   2   8  -2   58.51    1.65 
   2  -8   2   60.99    1.69 
   2   8   2   60.31    1.70 
   2  -8  -2   58.32    1.68 
   2   8   2   59.34    1.63 
  -2   8  -2   60.53    1.72 
   2  -8  -2   59.08    1.68 
   3   8  -2   49.79    1.38 
   3   8  -2   47.63    1.40 
  -3   8   2   51.42    1.49 
   3  -8   2   48.18    1.48 
   3  -8   2   49.46    1.48 
   3   8   2   54.91    1.57 
   3  -8  -2   58.24    1.65 
   3  -8  -2   57.51    1.64 
  -3   8  -2   57.11    1.68 
   3   8   2   56.97    1.64 
   4   8  -2   92.20    2.29 
  -4   8   2   85.60    2.43 
   4  -8   2   85.05    2.42 
   4  -8   2   90.20    2.45 
   4   8  -2   86.91    2.35 
   4   8   2   97.78    2.53 
  -4   8  -2   96.52    2.67 
   4   8   2   95.52    2.62 
   4  -8  -2   99.13    2.63 
   4  -8  -2   95.94    2.63 
  -5   8   2   16.48    0.71 
   5   8  -2   15.23    0.59 
   5  -8   2   14.45    0.73 
   5  -8   2   14.69    0.74 
   5   8  -2   14.43    0.55 
  -5   8  -2    9.38    0.56 
   5  -8  -2    8.17    0.58 
   5  -8  -2   10.09    0.58 
   5   8   2   10.15    0.53 
  -6   8   2   23.12    0.90 
   6   8  -2   22.29    0.76 
   6  -8   2   22.95    0.96 
   6   8  -2   22.53    0.74 
   6  -8   2   22.94    0.97 
   6   8   2   24.02    0.89 
   6  -8  -2   25.03    0.99 
   6   8   2   23.34    0.90 
   6  -8  -2   25.36    0.97 
  -6   8  -2   24.73    0.97 
   7   8  -2   57.66    1.59 
   7  -8   2   61.72    1.87 
   7  -8   2   58.44    1.86 
   7   8  -2   58.56    1.58 
   7  -8  -2   52.79    1.68 
   7   8   2   52.43    1.59 
   7   8   2   52.42    1.58 
   7  -8  -2   52.89    1.67 
   8   8  -2    1.22    0.21 
   8   8  -2    1.12    0.24 
   8  -8   2    1.20    0.41 
   8  -8   2    1.20    0.42 
   8  -8  -2    0.48    0.38 
   8  -8  -2    1.14    0.39 
   8   8   2    0.88    0.27 
   8   8   2    1.06    0.30 
   9  -8   2   41.25    1.59 
   9  -8   2   43.04    1.57 
   9   8  -2   40.18    1.19 
   9   8   2   41.03    1.34 
   9  -8  -2   40.77    1.51 
  10  -8   2    4.12    0.62 
  10   8   2    3.37    0.41 
  10  -8  -2    3.80    0.59 
   0   9   2  154.12    4.11 
   0   9  -2  163.52    4.12 
   0  -9  -2  161.26    4.11 
   0  -9   2  152.35    4.09 
   0   9   2  157.10    4.21 
   0  -9  -2  169.72    4.16 
   0   9  -2  168.24    4.21 
   0  -9   2  165.93    4.15 
  -1   9   2   51.92    1.58 
  -1   9   2   54.03    1.57 
   1   9  -2   55.42    1.56 
   1  -9   2   53.89    1.56 
   1  -9   2   51.97    1.54 
   1   9  -2   53.29    1.53 
  -1   9  -2   45.10    1.36 
   1   9   2   44.75    1.37 
   1  -9  -2   46.33    1.33 
  -1  -9   2   46.45    1.30 
   1   9   2   43.64    1.32 
  -1  -9   2   44.50    1..30 
   1  -9  -2   45.81    1.35 
  -1   9  -2   43.06    1.36 
  -2   9   2   44.24    1.42 
   2  -9   2   46.16    1.40 
   2   9  -2   46.86    1.37 
   2  -9   2   46.40    1.41 
   2   9  -2   46.63    1.35 
  -2   9  -2   48.14    1.46 
   2  -9  -2   47.28    1.43 
   2   9   2   47.73    1.44 
   2   9   2   48.14    1.38 
   2  -9  -2   45.22    1.40 
   3   9  -2  158.02    3.98 
   3  -9   2  152.17    3.99 
   3  -9   2  152.54    4.04 
  -3   9   2  154.58    4.06 
   3   9  -2  151.27    3.89 
   3   9   2  133.85    3.42 
   3   9   2  131.82    3.52 
  -3   9  -2  130.21    3.55 
   3  -9  -2  139.12    3.50 
   3  -9  -2  130.73    3.51 
   4   9  -2   17.89    0.69 
   4  -9   2   17.90    0.79 
   4   9  -2   17.07    0.64 
  -4   9   2   16.47    0.76 
   4  -9   2   18.73    0.81 
  -4   9  -2   18.73    0.81 
   4  -9  -2   19.54    0.81 
   4  -9  -2   20.37    0.83 
   4   9   2   20.49    0.73 
   4   9   2   19.27    0.79 
   5   9  -2  129.13    3.39 
  -5   9   2  130.74    3.50 
   5  -9   2  128.43    3.51 
   5   9  -2  131.43    3.30 
   5  -9   2  126.36    3.47 
   5  -9  -2  129.48    3.49 
  -5   9  -2  129.75    3.55 
   5   9   2  130.83    3.50 
   5   9   2  131.06    3.37 
   5  -9  -2  132.96    3.52 
  -6   9   2   16.16    0.77 
   6   9  -2   15.67    0.64 
   6   9  -2   15.80    0.61 
   6  -9   2   14.38    0.83 
   6  -9   2   16.45    0.83 
   6  -9  -2   13.47    0.77 
  -6   9  -2   13.65    0.72 
   6   9   2   11.98    0.66 
   6  -9  -2   13.70    0.76 
   6   9   2   13.51    0.61 
   7   9  -2   17.32    0.64 
   7  -9   2   16.13    0.91 
   7  -9   2   16.73    0.92 
   7   9  -2   17.31    0.64 
   7  -9  -2   17.81    0.88 
   7   9   2   18.48    0.80 
   7  -9  -2   15.68    0.90 
   7   9   2   17.65    0.80 
   8  -9   2   23.76    1.15 
   8  -9   2   26.67    1.17 
   8   9  -2   24.75    0.89 
   8   9   2   18.76    0.85 
   8   9   2   18.33    0.80 
   8  -9  -2   18.80    0.99 
   8  -9  -2   17.49    0.95 
   9  -9   2    1.69    0.49 
   9  -9   2    2.00    0.52 
   9   9  -2    1.37    0.27 
   9  -9  -2    0.65    0.43 
   9   9   2    0.91    0.34 
   0  10   2   20.73    0.84 
   0  10  -2   22.12    0.82 
   0 -10   2   21.44    0.78 
   0 -10   2   21.52    0.79 
   0 -10  -2   22.54    0.78 
   0 -10  -2   21.92    0.81 
   0  10  -2   20.30    0.81 
   0  10   2   20.63    0.81 
   1  10  -2   70.59    1.94 
   1 -10   2   68.05    1.95 
   1  10  -2   67.67    1.97 
  -1  10   2   71.35    2.02 
   1 -10   2   68.22    1.95 
   1  10   2   72.28    2.01 
   1 -10  -2   70.71    2.02 
   1  10   2   73.01    2.07 
  -1  10  -2   72.18    2.08 
   1 -10  -2   72.08    2.02 
  -1 -10   2   73.02    1.98 
  -1  10  -2   71.58    2.05 
  -2  10   2   72.15    2.03 
   2 -10   2   67.00    1.97 
   2 -10   2   67.53    1.96 
   2  10  -2   66.79    1.95 
   2  10  -2   70.44    1.93 
   2  10   2   71.55    2.02 
   2 -10  -2   68.50    1.97 
   2 -10  -2   67.57    1.98 
   2  10   2   67.43    1.93 
  -2  10  -2   72.29    2.04 
   3  10  -2   17.51    0.72 
   3  10  -2   16.55    0.67 
  -3  10   2   17.19    0.77 
   3 -10   2   16.58    0.76 
   3 -10   2   17.24    0.78 
  -3  10  -2   14.19    0.70 
   3  10   2   14.97    0.68 
   3 -10  -2   13.50    0.70 
   3 -10  -2   13.87    0.67 
   3  10   2   13.57    0.61 
   4  10  -2   74.10    2.06 
  -4  10   2   71.72    2.15 
   4  10  -2   73.95    2.00 
   4 -10   2   72.01    2.13 
   4 -10   2   72.47    2.14 
   4 -10  -2   70.60    2.05 
   4  10   2   70.40    1.95 
  -4  10  -2   70.67    2.09 
   4 -10  -2   66.15    2.03 
   4  10   2   72.99    2.06 
   5 -10   2   24.02    1.01 
  -5  10   2   23.82    0.96 
   5  10  -2   23.42    0.83 
   5 -10   2   22.71    1.00 
   5  10  -2   22.93    0.87 
   5  10   2   23.16    0.95 
   5 -10  -2   24.91    1.00 
  -5  10  -2   23.93    0.99 
   5  10   2   23.79    0.87 
   5 -10  -2   23.29    0.99 
   6 -10   2   38.93    1.41 
   6  10  -2   39.93    1.19 
   6  10  -2   37.56    1.23 
  -6  10   2   38.29    1.37 
   6 -10   2   37.67    1.40 
   6 -10  -2   38.77    1.37 
   6  10   2   36.26    1.30 
   6 -10  -2   37.79    1.34 
  -6  10  -2   38.73    1.37 
   7 -10   2   52.92    1.77 
   7 -10   2   51.97    1.77 
   7  10  -2   50.84    1.51 
   7 -10  -2   49.91    1.71 
   7 -10  -2   53.47    1.70 
   7  10   2   52.44    1.63 
   7  10   2   48.70    1.61 
   8  10  -2    3.63    0.39 
   8 -10   2    3.95    0.56 
   8 -10   2    3.33    0.55 
   8  10   2    4.86    0.46 
   8  10   2    4.08    0.46 
   8 -10  -2    4.01    0.55 
   8 -10  -2    4.61    0.57 
   9 -10   2   31.37    1.36 
   9  10  -2   25.96    0.96 
   9 -10   2   27.53    1.30 
   9  10   2   30.71    1.20 
   9 -10  -2   33.82    1.39 
   0 -11  -2  105.51    2.83 
   0  11   2  104.36    2.85 
   0 -11   2  105.27    2.82 
   0  11  -2  107.78    2.91 
   0 -11   2  100.30    2.81 
   0 -11  -2  102.41    2.83 
   0  11  -2  107.73    2.86 
   0  11   2  108.47    2.93 
   1 -11   2   17.25    0.73 
   1  11  -2   14.12    0.69 
   1 -11   2   15.81    0.70 
  -1  11   2   17.54    0.78 
   1  11  -2   15.61    0.69 
  -1  11  -2   12.05    0.65 
   1  11   2   12.25    0.62 
  -1 -11   2   12.17    0.57 
  -1  11  -2   11.62    0.65 
   1 -11  -2   12.81    0.65 
   1 -11  -2   12.29    0.62 
   1  11   2   12.13    0.64 
   2  11  -2   81.51    2.22 
   2 -11   2   78.25    2.26 
   2 -11   2   77.73    2.26 
  -2  11   2   80.14    2.31 
   2  11  -2   79.50    2.25 
   2  11   2   83.26    2.34 
   2 -11  -2   83.54    2.37 
   2  11   2   85.44    2.42 
   2 -11  -2   85.16    2.37 
  -2  11  -2   86.44    2.43 
   3 -11   2   72.07    2.12 
   3  11  -2   74.42    2.09 
   3 -11   2   69.16    2.10 
   3  11  -2   72.30    2.03 
  -3  11   2   72.02    2.15 
   3 -11  -2   76.18    2.18 
   3 -11  -2   78.60    2.21 
   3  11   2   75.37    2.12 
   3  11   2   73.95    2.20 
  -3  11  -2   75.46    2.24 
  -4  11   2    6.14    0.52 
   4 -11   2    6.07    0.52 
   4  11  -2    6.11    0.48 
   4  11  -2    5.63    0.45 
   4 -11   2    6.83    0.57 
  -4  11  -2    7.29    0.58 
   4 -11  -2    6.38    0.51 
   4  11   2    6.89    0.55 
   4 -11  -2    6.34    0.54 
   5 -11   2   66.06    2.08 
   5 -11   2   67.07    2.09 
  -5  11   2   69.22    2.09 
   5  11  -2   69.35    1.99 
   5 -11  -2   60.24    1.87 
  -5  11  -2   59.80    1.89 
   5 -11  -2   57.21    1.85 
   5  11   2   61.25    1.86 
  -6  11   2   32.56    1.23 
   6 -11   2   31.68    1.26 
   6 -11   2   33.06    1.30 
   6  11  -2   29.60    1.10 
   6 -11  -2   34.74    1.31 
   6 -11  -2   33.94    1.27 
  -6  11  -2   33.26    1.30 
   6  11   2   31.57    1.23 
   7 -11   2   16.25    0.99 
   7 -11   2   16.12    0.96 
   7  11  -2   14.95    0.71 
   7  11   2   14.71    0.82 
   7 -11  -2   15.13    0.94 
   7  11   2   16.41    0.84 
   7 -11  -2   16.41    0.94 
   8 -11   2   28.84    1.33 
   8 -11   2   31.41    1.34 
   8  11  -2   28.35    1.08 
   8  11   2   31.57    1.21 
   8 -11  -2   32.99    1.37 
   8 -11  -2   34.49    1.41 
   8  11   2   34.45    1.27 
   9 -11   2    2.30    0.57 
   9 -11   2    2.19    0.58 
   9  11  -2    1.98    0.35 
   9 -11  -2    0.95    0.52 
   9  11   2    1.82    0.42 
   0 -12  -2   58.89    1.74 
   0  12  -2   57.12    1.76 
   0 -12   2   55.17    1.71 
   0 -12   2   58.45    1.71 
   0  12  -2   58.81    1.79 
   0  12   2   57.87    1.81 
   0  12   2   58.54    1.77 
   0 -12  -2   58.13    1.71 
   1  12  -2  154.73    4.16 
   1 -12   2  156.48    4.11 
  -1  12   2  160.68    4.22 
   1 -12   2  153.27    4.09 
   1  12  -2  154.93    4.08 
   1 -12  -2  155.28    4.06 
  -1 -12   2  156.34    4.02 
   1  12   2  149.36    4.03 
  -1  12  -2  150.55    4.13 
   1 -12  -2  157.13    4.06 
   1  12   2  155.46    4.14 
   2 -12   2   40.03    1.34 
   2  12  -2   38.75    1.34 
   2 -12   2   39.78    1.35 
  -2  12   2   41.62    1.41 
   2 -12  -2   34.73    1.22 
   2 -12  -2   32.41    1.17 
  -2  12  -2   35.13    1.25 
   2  12   2   33.96    1.22 
   3 -12   2   43.99    1.49 
  -3  12   2   44.53    1.50 
   3  12  -2   42.42    1.43 
   3 -12   2   44.29    1.47 
   3  12   2   42.99    1.45 
  -3  12  -2   44.49    1.50 
   3 -12  -2   44.08    1.43 
   3 -12  -2   41.48    1.45 
   4  12  -2   61.12    1.81 
   4 -12   2   55.75    1.86 
   4 -12   2   59.05    1.86 
  -4  12   2   59.59    1.89 
   4 -12  -2   53.19    1.74 
   4  12   2   56.37    1.76 
   4 -12  -2   57.05    1.79 
  -4  12  -2   54.20    1.79 
   5 -12   2   13.57    0.86 
  -5  12   2   12.12    0.77 
   5 -12   2   14.33    0.89 
   5  12  -2   13.49    0.72 
  -5  12  -2   17.52    0.90 
   5 -12  -2   15.96    0.88 
   5  12   2   16.94    0.86 
   5 -12  -2   17.84    0.95 
   6  12  -2   27.97    1.05 
   6 -12   2   27.40    1.21 
   6 -12   2   26.21    1.22 
  -6  12   2   25.32    1.14 
   6 -12  -2   25.53    1.18 
  -6  12  -2   25.73    1.13 
   6  12   2   26.00    1.08 
   6 -12  -2   23.76    1.11 
   7  12  -2   17.27    0.82 
   7 -12   2   18.66    1.09 
   7 -12   2   18.68    1.05 
   7  12   2   17.33    0.93 
   7 -12  -2   18.98    1.09 
   7 -12  -2   20.14    1.03 
   7  12   2   17.83    0.93 
   8 -12   2    6.13    0.69 
   8 -12   2    5.47    0.69 
   8  12   2    7.28    0.60 
   8 -12  -2    8.13    0.76 
   8  12   2    7.24    0.63 
   8 -12  -2    6.77    0.70 
   9 -12   2   22.78    1.30 
   9 -12   2   25.03    1.34 
   9 -12  -2   24.73    1.31 
   0  13  -2   27.37    1.07 
   0 -13   2   26.27    1.00 
   0 -13   2   26.48    1.01 
   0  13   2   26.76    1.09 
  -1  13   2   87.57    2.54 
   1  13  -2   84.42    2.48 
   1 -13   2   84.90    2.42 
   1 -13   2   84.41    2.44 
   1  13   2   93.86    2.75 
   1 -13  -2   95.71    2.69 
   1 -13  -2   97.11    2.67 
  -1 -13   2   96.43    2.62 
  -1  13  -2   95.22    2.76 
   2 -13   2   34.55    1.23 
   2  13  -2   35.39    1.25 
  -2  13   2   33.95    1.31 
   2 -13   2   35.52    1.27 
   2 -13  -2   33.21    1.24 
  -2  13  -2   34.57    1.27 
   2 -13  -2   31.97    1.20 
   2  13   2   33.79    1.26 
   3  13  -2   43.95    1.47 
   3 -13   2   42.72    1.49 
   3 -13   2   45.30    1.52 
  -3  13   2   42.79    1.54 
   3 -13  -2   52.21    1.68 
  -3  13  -2   50.82    1.72 
   3  13   2   49.63    1.68 
   3 -13  -2   51.90    1.65 
   4 -13   2   50.42    1.72 
   4 -13   2   54.46    1.75 
   4  13  -2   49.50    1.66 
  -4  13   2   51.52    1.76 
   4 -13  -2   58.42    1.82 
  -4  13  -2   57.02    1.88 
   4 -13  -2   55.65    1.85 
   4  13   2   55.44    1.83 
   5 -13   2   33.29    1.31 
   5 -13   2   33.03    1.34 
   5  13  -2   33.70    1.23 
  -5  13   2   31.71    1.31 
  -5  13  -2   34.33    1.34 
   5 -13  -2   33.10    1.30 
   5  13   2   34.28    1.30 
   5 -13  -2   32.09    1.35 
   6 -13   2   32.27    1.34 
   6  13  -2   30.96    1.20 
   6 -13   2   31.75    1.36 
   6  13   2   31.58    1.29 
  -6  13  -2   33.15    1.37 
   6 -13  -2   31.06    1.36 
   6 -13  -2   33.91    1.33 
   7 -13   2   20.06    1.13 
   7 -13   2   23.94    1.21 
   7  13  -2   18.86    0.91 
   7 -13  -2   20.64    1.09 
   7  13   2   18.86    1.00 
   7 -13  -2   21.35    1.17 
   8 -13   2   18.99    1.21 
   8 -13   2   19.04    1.15 
   8 -13  -2   17.29    1.09 
   8  13   2   17.49    0.98 
   8  13   2   15.15    0.92 
   8 -13  -2   18.45    1.19 
   9 -13   2   10.31    0.88 
   0 -14   2   55.46    1.67 
   0  14  -2   50.88    1.76 
   0  14   2   56.75    1.82 
   1  14  -2   39.01    1.40 
  -1  14   2   38.46    1.43 
   1 -14   2   36.77    1.32 
   1 -14   2   39.71    1.46 
   1 -14  -2   35.52    1.25 
   1 -14  -2   32.99    1.28 
   1  14   2   35.48    1.33 
  -1  14  -2   35.69    1.33 
  -2  14   2   33.91    1.31 
   2  14  -2   32.83    1.25 
   2 -14   2   31.21    1.19 
   2 -14   2   30.89    1.23 
   2 -14  -2   28.30    1.12 
   2 -14  -2   29.13    1.18 
   2  14   2   27.76    1.16 
  -2  14  -2   28.42    1.18 
   3 -14   2   48.73    1.66 
   3  14  -2   47.87    1.62 
  -3  14   2   46.76    1.70 
   3 -14   2   49.62    1.63 
   3 -14  -2   41.73    1.46 
  -3  14  -2   40.29    1.52 
   3  14   2   43.15    1.51 
   3 -14  -2   42.33    1.51 
   4 -14   2   11.20    0.82 
   4 -14   2   11.08    0.82 
   4  14  -2   11.32    0.74 
  -4  14   2    9.22    0.75 
   4 -14  -2   13.19    0.85 
   4 -14  -2   13.47    0.88 
   4  14   2   14.07    0.84 
  -4  14  -2   13.29    0.86 
   5 -14   2   32.91    1.39 
   5 -14   2   33.47    1.35 
   5  14  -2   32.83    1.26 
  -5  14   2   30.21    1.35 
   5 -14  -2   33.51    1.39 
   5 -14  -2   34.44    1.37 
  -5  14  -2   34.84    1.42 
   5  14   2   32.57    1.34 
   6 -14   2   24.62    1.24 
   6 -14   2   22.47    1.20 
   6  14  -2   23.40    1.06 
   6  14   2   25.48    1.18 
   6 -14  -2   25.80    1.28 
   6 -14  -2   23.71    1.18 
  -6  14  -2   27.64    1.25 
   7 -14   2   17.85    1.15 
   7 -14   2   18.66    1.12 
   7  14  -2   15.87    0.87 
   7 -14  -2   19.60    1.15 
   7  14   2   16.84    0.99 
   7 -14  -2   16.96    1.05 
   8 -14   2   19.85    1.26 
   8 -14   2   21.92    1.27 
   8 -14  -2   23.70    1.34 
   8 -14  -2   22.94    1.22 
   0  15   2    5.06    0.56 
   0  15  -2    6.83    0.64 
   0 -15   2    5.28    0.49 
   1  15  -2   50.12    1.73 
   1 -15   2   49.24    1.63 
  -1  15   2   49.51    1.75 
  -1  15  -2   54.03    1.82 
   1  15   2   51.43    1.81 
   1 -15  -2   53.61    1.70 
   2  15  -2   27.97    1.20 
   2 -15   2   29.08    1.17 
  -2  15   2   30.75    1.29 
   2 -15  -2   30.13    1.24 
   2 -15  -2   29.23    1.17 
  -2  15  -2   27.65    1.22 
   2  15   2   27.54    1.22 
  -3  15   2   35.47    1.46 
   3  15  -2   37.00    1.39 
   3 -15   2   37.08    1.38 
   3 -15  -2   35.86    1.38 
  -3  15  -2   36.45    1.43 
   3 -15  -2   37.61    1.43 
   3  15   2   34.68    1.39 
  -4  15   2   44.58    1.64 
   4 -15   2   40.46    1.59 
   4  15  -2   39.99    1.51 
   4 -15   2   43.42    1.56 
  -4  15  -2   36.65    1.50 
   4 -15  -2   40.64    1.54 
   4  15   2   39.82    1.50 
   4 -15  -2   38.18    1.46 
   5 -15   2   21.12    1.11 
   5  15  -2   18.63    1.00 
   5 -15   2   20.58    1.13 
  -5  15   2   23.07    1.15 
   5 -15  -2   22.26    1.15 
   5 -15  -2   23.64    1.18 
   5  15   2   24.15    1.15 
  -5  15  -2   25.28    1.21 
   6 -15   2   17.38    1.16 
   6  15  -2   18.89    0.99 
   6 -15   2   21.14    1.15 
  -6  15  -2   15.38    1.06 
   6 -15  -2   15.12    1.04 
   6  15   2   15.72    0.98 
   6 -15  -2   15.41    1.09 
   7 -15   2   15.37    1.13 
   7  15  -2   13.09    0.86 
   7 -15   2   15.37    1.12 
   7 -15  -2   17.42    1.17 
   7 -15  -2   17.79    1.14 
   7  15   2   16.29    1.03 
   8 -15   2    1.55    0.60 
   8 -15  -2    2.61    0.64 
   8 -15  -2    3.01    0.64 
   0  16  -2  109.98    3.16 
   0  16   2  104.82    3.14 
   0 -16   2  102.12    2.94 
  -1  16   2   15.44    0.96 
   1 -16   2   15.15    0.86 
   1  16  -2   13.73    0.89 
   1 -16  -2   18.42    0.95 
  -1  16  -2   19.44    1.04 
   1  16   2   20.97    1.06 
  -2  16   2   49.91    1.84 
   2  16  -2   51.31    1.81 
   2 -16   2   52.59    1.73 
   2 -16  -2   46.30    1.61 
  -2  16  -2   44.23    1.69 
   2  16   2   47.49    1.72 
   3  16  -2   30.32    1.28 
   3 -16   2   28.80    1.25 
  -3  16   2   31.72    1.37 
  -3  16  -2   35.40    1.48 
   3 -16  -2   35.74    1.38 
   3  16   2   33.73    1.41 
   4  16  -2    4.33    0.57 
   4 -16   2    4.32    0.59 
  -4  16   2    5.64    0.69 
  -4  16  -2    4.05    0.60 
   4  16   2    3.66    0.56 
   4 -16  -2    2.65    0.54 
   5  16  -2   22.09    1.11 
  -5  16   2   23.11    1.23 
   5 -16   2   22.67    1.19 
   5  16   2   22.90    1.17 
   5 -16  -2   23.92    1.19 
   5 -16  -2   21.86    1.24 
  -5  16  -2   22.59    1.20 
   6  16  -2    9.86    0.79 
   6 -16   2    7.99    0.78 
   6  16   2   10.34    0.84 
   6 -16  -2    8.65    0.82 
   6 -16  -2   10.65    0.84 
   7  16  -2    3.61    0.55 
   7 -16   2    3.76    0.68 
   7 -16  -2    5.19    0.74 
   7  16   2    5.10    0.65 
   7 -16  -2    5.29    0.70 
   0  17   2   -0.15    0.39 
   0  17  -2    0.02    0.40 
   0 -17   2    0.62    0.37 
   1  17  -2   20.22    1.09 
   1 -17   2   19.32    0.99 
  -1  17   2   18.48    1.09 
  -1  17  -2   18.40    1.06 
   1  17   2   16.97    1.03 
  -2  17   2   32.42    1.44 
   2 -17   2   32.89    1.32 
   2  17  -2   32.70    1.38 
  -2  17  -2   30.99    1.41 
   2 -17  -2   33.47    1.33 
   2  17   2   30.94    1.39 
   3  17  -2    3.32    0.54 
   3 -17   2    3.47    0.54 
  -3  17   2    3.12    0.59 
   3 -17  -2    1.59    0.49 
  -3  17  -2    2.26    0.52 
   3  17   2    2.67    0.53 
  -4  17   2   69.38    2.36 
   4 -17   2   68.89    2.24 
   4  17  -2   66.68    2.25 
   4  17   2   69.14    2.30 
  -4  17  -2   63.91    2.32 
   4 -17  -2   71.71    2.26 
   5  17  -2    2.27    0.51 
   5 -17   2    2.55    0.59 
  -5  17   2    2.59    0.59 
  -5  17  -2    3.41    0.64 
   5 -17  -2    3.02    0.60 
   5  17   2    3.65    0.59 
   6  17  -2   26.58    1.27 
   6 -17   2   25.02    1.33 
   6 -17  -2   27.25    1.37 
   6  17   2   28.48    1.38 
   0  18  -2   55.12    2.04 
   0  18   2   57.65    2.07 
  -1  18   2    2.07    0.54 
   1  18  -2    1.53    0.48 
   1 -18   2    1.78    0.47 
  -1  18  -2    1.95    0.53 
   1  18   2    2.03    0.54 
   2  18  -2   27.78    1.30 
  -2  18   2   24.40    1.30 
   2 -18   2   24.74    1.20 
   2  18   2   24.95    1.28 
  -2  18  -2   23.54    1.26 
   2 -18  -2   22.78    1.17 
   3 -18   2   16.16    1.06 
   3  18  -2   15.36    1.03 
  -3  18   2   13.32    1.03 
  -3  18  -2   12.16    0.96 
   3  18   2    9.81    0.86 
   3 -18  -2   12.44    0.95 
  -4  18   2    0.45    0.49 
   4 -18   2    0.53    0.52 
   4  18  -2   -0.01    0.42 
  -4  18  -2   -0.09    0.49 
   4 -18  -2    0.35    0.51 
   4  18   2   -0.34    0.43 
   5 -18   2   15.89    1.12 
  -5  18   2   13.25    1.07 
   5  18  -2   14.40    1.01 
   5  18   2   13.51    1.03 
  -5  18  -2   13.30    1.08 
   5 -18  -2   14.66    1.10 
   6  18  -2   10.82    0.90 
   0  19   2   -0.14    0.48 
   0  19  -2    0.28    0.47 
  -1  19   2   17.65    1.23 
   1 -19   2   17.89    1.03 
   1  19  -2   18.24    1.17 
   1  19   2   14.12    1.06 
  -1  19  -2   15.37    1.10 
   2 -19   2   16.73    1.06 
  -2  19   2   16.38    1.15 
   2  19  -2   14.54    1.05 
   2  19   2   15.31    1.09 
  -2  19  -2   13.93    1.10 
   3 -19   2    2.38    0.57 
   3  19  -2    2.36    0.57 
  -3  19   2    2.58    0.63 
   3  19   2    3.24    0.63 
  -3  19  -2    3.29    0.66 
   3 -19  -2    2.05    0.57 
  -4  19   2   40.31    1.73 
   4  19  -2   34.66    1.58 
  -4  19  -2   36.42    1.70 
   4  19   2   39.37    1.70 
  -5  19  -2    1.38    0.59 
   0  20   2   39.87    1.76 
   0  20  -2   38.83    1.75 
   1  20  -2    7.67    0.83 
  -1  20   2    8.88    0.90 
   1  20   2    8.30    0.86 
  -1  20  -2    8.76    0.92 
  -2  20   2   24.34    1.44 
   2 -20   2   21.51    1.23 
   2  20  -2   23.41    1.48 
  -2  20  -2   30.43    1.56 
  -3  20   2    6.26    0.83 
  -3  20  -2   11.01    1.03 
  -4  20   2    1.79    0.63 
   0   0   3   -0.04    0.02 
   0   0  -3    0.10    0.05 
   0   0   3    0.06    0.05 
   0   0  -3    0.00    0.04 
   0   0   3    0.19    0.05 
  -1   0  -3  182.89    4.63 
   1   0  -3  190.62    4.60 
  -1   0  -3  192.66    4.63 
   1   0   3  191.88    4.54 
   1   0  -3  185.81    4.65 
   1   0   3  181.73    4.64 
  -1   0  -3  189.18    4.54 
   1   0   3  185.34    4.63 
  -1   0   3  186.16    4.60 
  -1   0   3  183.49    4.50 
  -1   0   3  188.80    4.63 
   2   0  -3   61.85    1.51 
   2   0  -3   59.73    1.51 
   2   0  -3   63.12    1.55 
   2   0  -3   62.18    1.53 
  -2   0  -3   60.59    1.61 
   2   0   3   61.48    1.62 
   2   0   3   61.26    1.58 
  -2   0  -3   60.43    1.57 
   2   0   3   64.73    1.61 
   2   0  -3   63.54    1.54 
  -2   0  -3   62.13    1.59 
  -2   0   3   61.51    1.54 
   3   0   3   35.59    1.01 
   3   0   3   36.28    1.00 
  -3   0  -3   35.88    0.97 
  -3   0  -3   35.28    1.01 
   3   0  -3   37.22    0.93 
  -3   0  -3   37.34    0.98 
   3   0  -3   36.32    0.91 
   4   0   3  113.14    2.86 
   4   0   3  110.14    2.81 
   4   0  -3  112.35    2.77 
   4   0  -3  110.04    2.71 
   5   0   3   18.66    0.64 
   5   0  -3   18.81    0.55 
   5   0  -3   19.21    0.55 
  -5   0  -3   18.75    0.62 
   5   0   3   18.93    0.65 
   6   0  -3   19.60    0.60 
   6   0   3   19.38    0.71 
  -6   0  -3   20.77    0.67 
   6   0  -3   20.13    0.61 
   6   0   3   20.43    0.71 
   7   0   3   90.71    2.40 
   7   0  -3   86.97    2.24 
   7   0  -3   85.27    2.28 
   7   0   3   89.05    2.36 
   8   0   3    2.37    0.33 
   8   0  -3    2.30    0.24 
   8   0   3    2.14    0.32 
   9   0   3   46.81    1.48 
   9   0  -3   45.16    1.31 
  10   0  -3    9.61    0.52 
  10   0   3   10.73    0.73 
  11   0  -3    8.29    0.50 
   0   1   3   25.23    0.71 
   0   1  -3   26.75    0.73 
   0   1  -3   25.96    0.72 
   0  -1   3   27.52    0.72 
   0  -1  -3   26.25    0.72 
   0  -1  -3   27.12    0.73 
   0   1   3   26.32    0.73 
   0   1   3   27.09    0.72 
  -1   1   3  152.10    3.61 
  -1   1   3  151.53    3.54 
  -1  -1  -3  149.59    3.56 
   1  -1   3  149.34    3.57 
  -1  -1  -3  149.13    3.63 
  -1  -1  -3  146.29    3.64 
  -1   1   3  144.52    3.61 
   1   1  -3  149.04    3.59 
   1   1  -3  124.32    3.51 
  -1   1   3  143.76    3.54 
   1  -1   3  147.33    3.64 
   1   1  -3  142.74    3.60 
  -1   1   3  147.43    3.60 
  -1   1  -3  188.06    4.59 
   1  -1  -3  183.23    4.57 
   1   1   3  189.59    4.59 
   1  -1  -3  188.59    4.57 
   1   1   3  178.62    4.59 
   1   1   3  186.12    4.49 
  -1  -1   3  173.33    4.55 
  -1   1  -3  191.27    4.60 
  -1   1  -3  184.76    4.50 
  -1  -1   3  187.86    4.45 
  -2   1   3   99.82    2.40 
  -2   1   3   98.57    2.40 
  -2   1   3   98.50    2.44 
   2   1  -3   98.28    2.43 
   2  -1   3   98.96    2.47 
  -2  -1  -3  100.44    2.45 
  -2  -1  -3   96.63    2.51 
   2  -1   3  100.05    2.52 
   2  -1  -3   84.18    2.09 
   2  -1  -3   83.40    2.06 
  -2   1  -3   85.15    2.14 
   2   1   3   81.40    2.10 
   2  -1  -3   84.60    2.11 
  -2   1  -3   81.33    2.16 
   2   1   3   85.15    2.14 
  -2   1  -3   84.84    2.10 
   2   1   3   84.23    2.15 
   3  -1   3  236.89    5.83 
  -3  -1  -3  233.49    5.79 
  -3  -1  -3  234.19    5.93 
  -3   1   3  243.79    5.87 
   3  -1   3  247.17    5.96 
   3  -1  -3  262.51    6.26 
   3  -1  -3  255.84    6.14 
   3   1   3  252.78    6.31 
  -3   1  -3  247.72    6.18 
   3  -1  -3  249.38    6.26 
   3   1   3  256.05    6.32 
  -3   1  -3  251.22    6.33 
  -3   1  -3  262.29    6.31 
   3   1   3  253.34    6.19 
   4  -1   3   18.04    0.59 
   4  -1   3   16.36    0.58 
  -4   1   3   17.58    0.49 
   4  -1  -3   16.36    0.48 
   4   1   3   14.60    0.52 
   4  -1  -3   15.84    0.47 
  -4   1  -3   15.37    0.49 
   4   1   3   15.44    0.56 
   4  -1  -3   16.04    0.48 
   4   1   3   15.67    0.53 
   5  -1   3  159.71    4.02 
   5   1  -3  155.33    3.81 
   5  -1   3  157.70    3.95 
   5   1   3  164.94    4.14 
   5  -1  -3  166.55    4.08 
   5  -1  -3  162.72    4.00 
   5   1   3  160.73    4.07 
  -5   1  -3  161.08    4.13 
   6  -1   3   18.93    0.74 
   6   1  -3   21.51    0.60 
   6  -1   3   20.57    0.74 
   6  -1  -3   29.47    0.84 
   6   1   3   28.56    0.91 
   6  -1  -3   28.69    0.83 
   6   1   3   27.43    0.90 
  -6   1  -3   28.26    0.88 
   7   1  -3   25.34    0.75 
   7  -1   3   26.04    0.90 
   7  -1   3   25.65    0.91 
   7   1   3   22.17    0.80 
   7   1   3   22.27    0.80 
   7  -1  -3   21.94    0.74 
   7  -1  -3   23.21    0.74 
   8   1  -3   29.10    0.86 
   8  -1   3   29.39    1.05 
   8  -1   3   30.29    1.06 
   8   1   3   36.68    1.18 
   8  -1  -3   35.59    1.09 
   9  -1   3    1.14    0.34 
   9   1  -3    1.24    0.23 
   9  -1  -3    1.19    0.27 
   9   1   3    2.01    0.34 
  10  -1   3   12.79    0.79 
  10   1  -3   12.72    0.54 
  10   1   3   12.47    0.75 
  10  -1  -3   12.71    0.62 
  11   1  -3   16.15    0.59 
   0   2  -3   59.96    1.57 
   0  -2   3   63.64    1.60 
   0   2  -3   63.01    1.60 
   0   2   3   62.30    1.61 
   0  -2  -3   62.51    1.61 
  -1  -2  -3  316.91    7.84 
  -1   2   3  321.42    7.69 
  -1   2   3  323.56    7.90 
   1   2  -3  323.26    7.89 
   1  -2   3  315.87    7.70 
   1   2  -3  313.87    7.74 
  -1   2   3  318.23    7.84 
  -1   2  -3  298.61    7.40 
   1  -2  -3  302.88    7.37 
   1  -2  -3  293.04    7.22 
  -1  -2   3  296.75    7.25 
   1   2   3  299.09    7.38 
  -1  -2   3  324.59    7.43 
  -1   2  -3  302.54    7.24 
   1   2   3  284.00    7.23 
   1  -2  -3  295.64    7.37 
   2  -2   3  119.43    2.99 
  -2  -2  -3  108.19    2.96 
  -2   2   3  116.20    2.89 
  -2   2   3  118.80    2.94 
  -2   2   3  119.69    2.96 
   2  -2   3  117.89    2.94 
   2   2  -3  122.47    2.84 
  -2   2  -3  119.31    2.99 
  -2   2  -3  116.62    2.93 
   2  -2  -3  115.67    2.90 
   2  -2  -3  118.19    2.95 
   2   2   3  116.37    2.92 
   2  -2  -3  117.86    2.96 
   2   2   3  116.24    2.99 
   2   2   3  121.67    2.97 
  -3  -2  -3   50.14    1.32 
  -3   2   3   49.61    1.30 
  -3   2   3   48.61    1.25 
   3  -2   3   46.39    1.33 
  -3   2   3   49.10    1.27 
  -3   2   3   51.17    1.25 
   3  -2   3   49.36    1.35 
   3  -2  -3   48.45    1.29 
   3   2   3   50.53    1.36 
   3  -2  -3   49.65    1.30 
  -3   2  -3   47.78    1.34 
  -3   2  -3   49.19    1.35 
   3  -2  -3   51.21    1.32 
   3   2   3   49.48    1.31 
   3   2   3   51.35    1.34 
   4  -2   3   72.90    1.90 
   4  -2   3   70.86    1.92 
   4   2   3   96.61    2.41 
  -4   2  -3   90.62    2.43 
   4  -2  -3   92.36    2.38 
   4  -2  -3   95.78    2.42 
   4   2   3   96.21    2.44 
   4   2   3   95.49    2.47 
  -4   2  -3   94.12    2.47 
   4  -2  -3   96.51    2.42 
   5  -2   3   14.40    0.57 
  -5   2   3   13.39    0.45 
   5  -2   3   14.07    0.55 
   5   2   3   15.08    0.57 
   5   2   3   14.68    0.54 
   5  -2  -3   13.94    0.50 
  -5   2  -3   14.69    0.48 
   5  -2  -3   15.07    0.51 
   5   2   3   14.90    0.53 
   5  -2  -3   14.68    0.52 
  -5   2  -3   14.32    0.55 
   6  -2   3   76.04    2.06 
   6   2  -3   71.35    1.84 
   6  -2   3   74.77    2.03 
  -6   2   3   75.93    1.89 
   6   2   3   83.45    2.27 
   6  -2  -3   84.19    2.24 
  -6   2  -3   89.41    2.31 
   6  -2  -3   88.02    2.27 
   6   2   3   87.41    2.30 
   7  -2   3   69.87    1.97 
   7  -2   3   71.13    1.99 
   7   2  -3   68.76    1.76 
   7  -2  -3   64.69    1.75 
   7   2   3   65.89    1.79 
   7   2   3   63.53    1.80 
   7  -2  -3   62.74    1.76 
   8   2  -3   12.55    0.46 
   8  -2   3   12.97    0.68 
   8  -2   3   13.59    0.70 
   8   2   3   14.04    0.66 
   8  -2  -3   14.00    0.62 
   9  -2   3   49.00    1.54 
   9   2  -3   46.64    1.28 
   9  -2  -3   45.67    1.38 
   9   2   3   46.73    1.45 
  10  -2   3    6.57    0.58 
  10   2   3    6.56    0.54 
  10  -2  -3    7.79    0.56 
   0   3  -3  449.97   10.64 
   0   3   3  439.44   10.83 
   0   3   3  446.93   11.00 
   0   3   3  433.29   10.55 
   0  -3   3  440.78   10.99 
   0   3  -3  440.35   10.79 
   0  -3  -3  421.21   10.76 
   1  -3   3   77.86    2.09 
   1   3  -3   82.85    2.09 
   1   3  -3   84.71    2.09 
  -1  -3  -3   83.72    2.13 
  -1   3   3   85.23    2.14 
  -1   3   3   81.97    2.08 
  -1   3   3   80.90    2.12 
   1  -3   3   82.07    2.14 
   1   3  -3   84.18    2.06 
  -1  -3   3   92.44    2.23 
  -1   3  -3   85.77    2.29 
   1  -3  -3   87.41    2.26 
  -1  -3   3   91.10    2.20 
  -1   3  -3   89.77    2.29 
   1  -3  -3   90.32    2.28 
   1   3   3   90.47    2.29 
  -1   3  -3   84.69    2.25 
   1  -3  -3   89.34    2.24 
   2  -3   3  132.52    3.35 
  -2   3   3  136.51    3.33 
  -2   3   3  136.36    3.32 
   2  -3   3  131.28    3.30 
   2   3  -3  128.22    3.25 
   2   3  -3  136.08    3.27 
  -2  -3  -3  127.83    3.32 
  -2   3   3  127.72    3.26 
   2   3  -3  127.89    3.20 
  -2   3  -3  151.52    3.72 
   2   3   3  152.10    3.78 
   2  -3  -3  149.56    3.76 
   2  -3  -3  146.16    3.69 
   2  -3  -3  153.48    3.77 
  -2   3  -3  146.99    3.79 
  -2   3  -3  148.88    3.79 
   3   3  -3  163.12    3.91 
  -3   3   3  159.81    4.06 
   3   3  -3  164.88    3.99 
  -3   3   3  165.49    4.08 
   3  -3   3  164.40    4.13 
   3  -3   3  159.37    4.05 
  -3  -3  -3  160.20    4.07 
  -3   3  -3  130.43    3.39 
  -3   3  -3  134.17    3.40 
   3   3   3  130.88    3.31 
   3   3   3  132.54    3.39 
   3  -3  -3  132.74    3.37 
   3  -3  -3  136.61    3.36 
   3  -3  -3  134.05    3.31 
  -4   3   3   84.59    2.09 
  -4   3   3   81.22    2.08 
   4  -3   3   82.64    2.19 
   4  -3   3   84.67    2.22 
  -4   3   3   82.98    2.16 
   4  -3  -3   81.74    2.13 
   4   3   3   81.15    2.10 
   4  -3  -3   82.54    2.10 
   4   3   3   84.08    2.14 
  -4   3  -3   79.44    2.17 
  -4   3  -3   79.83    2.14 
   4   3   3   83.11    2.16 
   4  -3  -3   81.35    2.13 
   5  -3   3   86.04    2.21 
  -5   3   3   75.03    2.13 
   5  -3   3   85.94    2.23 
   5  -3  -3   72.26    1.92 
   5   3   3   72.08    1.96 
   5   3   3   69.88    1.90 
   5   3   3   72.13    1.92 
  -5   3  -3   74.59    1.97 
   5  -3  -3   72.93    1.92 
   5  -3  -3   72.30    1.90 
  -5   3  -3   70.80    1.90 
  -6   3   3   66.67    1.73 
   6  -3   3   65.43    1.84 
   6  -3   3   63.47    1.85 
  -6   3  -3   64.00    1.72 
   6   3   3   66.53    1.80 
   6  -3  -3   65.62    1.77 
   6   3   3   66.64    1.78 
  -6   3  -3   65.60    1.82 
   6  -3  -3   65.49    1.79 
   7  -3   3   36.57    1.20 
   7  -3   3   35.79    1.20 
   7  -3  -3   24.47    0.87 
   7   3   3   26.60    0.89 
   7   3   3   25.92    0.88 
   7  -3  -3   26.56    0.87 
   8  -3   3   41.46    1.36 
   8  -3   3   42.09    1.37 
   8   3  -3   39.64    1.08 
   8   3   3   41.20    1.28 
   8  -3  -3   40.55    1.26 
   9  -3   3    5.17    0.51 
   9   3   3    5.34    0.45 
   9  -3  -3    5.42    0.45 
  10  -3   3   14.46    0.86 
  10   3   3   16.43    0.82 
  10  -3  -3   17.35    0.80 
   0   4   3  175.56    4.44 
   0   4  -3  185.95    4.53 
   0  -4   3  184.50    4.52 
   0   4   3  177.11    4.51 
   0   4  -3  182.31    4.52 
   0   4  -3  179.99    4.44 
   0   4   3  185.84    4.54 
   0  -4  -3  176.72    4.53 
  -1   4   3  191.51    4.99 
   1   4  -3  200.46    4.96 
  -1   4   3  200.69    4.90 
  -1  -4  -3  201.91    4.99 
  -1   4   3  204.96    5.01 
   1   4  -3  205.63    4.87 
   1   4  -3  186.99    4.96 
   1  -4   3  206.81    4.92 
   1  -4   3  199.83    5.01 
  -1  -4   3  200.94    4.74 
   1  -4  -3  192.37    4.70 
   1  -4  -3  190.31    4.78 
   1  -4  -3  191.33    4.77 
  -1  -4   3  186.94    4.65 
   1   4   3  189.22    4.79 
  -1   4  -3  192.58    4.79 
  -1   4  -3  186.63    4.80 
  -1   4  -3  190.62    4.71 
   2   4  -3  144.29    3.65 
  -2   4   3  151.54    3.79 
   2  -4   3  145.93    3.73 
  -2  -4  -3  150.40    3.77 
  -2   4   3  149.59    3.78 
   2  -4   3  149.36    3.81 
  -2   4   3  149.81    3.72 
   2   4  -3  148.10    3.72 
   2   4  -3  154.58    3.71 

   2   4   3  149.85    3.79 
  -2   4  -3  151.74    3.80 
  -2   4  -3  144.89    3.79 
   2  -4  -3  141.72    3.70 
   2  -4  -3  150.01    3.78 
  -2   4  -3  153.62    3.74 
   2  -4  -3  151.87    3.77 
  -3   4   3   92.15    2.48 
  -3   4   3   93.99    2.49 
   3   4  -3   99.76    2.36 
   3   4  -3   97.79    2.41 
   3   4  -3   96.64    2.38 
   3  -4   3   95.52    2.53 
   3  -4   3   95.83    2.50 
   3  -4  -3   80.16    2.13 
   3  -4  -3   79.77    2.14 
   3   4   3   82.87    2.16 
   3  -4  -3   82.61    2.11 
  -3   4  -3   80.56    2.16 
  -3   4  -3   82.45    2.17 
   4  -4   3  156.41    3.93 
   4  -4   3  152.17    3.86 
  -4   4   3  151.26    3.87 
   4   4  -3  155.42    3.75 
   4   4  -3  150.24    3.68 
  -4   4   3  147.67    3.82 
   4  -4  -3  149.45    3.84 
   4   4   3  149.58    3.76 
  -4   4  -3  148.17    3.85 
   4  -4  -3  146.26    3.77 
  -4   4  -3  152.19    3.88 
   4   4   3  153.20    3.85 
   4  -4  -3  156.70    3.84 
   5  -4   3   30.62    0.99 
   5  -4   3   29.78    1.00 
  -5   4   3   30.34    0.92 
   5  -4  -3   27.30    0.83 
   5   4   3   24.17    0.80 
  -5   4  -3   25.57    0.81 
  -5   4  -3   26.01    0.86 
   5   4   3   25.66    0.84 
   5  -4  -3   25.11    0.83 
   5   4   3   26.13    0.81 
   5  -4  -3   24.65    0.82 
  -6   4   3   63.82    1.73 
   6  -4   3   62.37    1.82 
   6  -4   3   63.39    1.82 
  -6   4  -3   52.28    1.50 
  -6   4  -3   48.82    1.40 
   6  -4  -3   51.12    1.46 
   6   4   3   48.96    1.47 
   6  -4  -3   50.15    1.45 
   6  -4  -3   53.27    1.46 
   6   4   3   49.79    1.43 
   6   4   3   51.51    1.44 
   7  -4   3   39.41    1.30 
   7  -4   3   39.48    1.29 
   7   4   3   32.85    1.07 
   7   4   3   35.16    1.08 
   7  -4  -3   31.82    1.08 
   7  -4  -3   35.51    1.09 
   8  -4   3   32.03    1.18 
   8  -4   3   31.39    1.16 
   8   4   3   28.89    1.01 
   8  -4  -3   29.50    1.03 
   9  -4   3   20.55    0.96 
   9   4   3   23.98    0.92 
   9  -4  -3   22.80    0.94 
  10  -4   3   18.99    0.98 
  10  -4  -3   17.09    0.84 
  10   4   3   16.30    0.82 
   0   5  -3  345.54    8.56 
   0  -5  -3  352.61    8.55 
   0  -5   3  327.36    8.37 
   0  -5   3  349.69    8.54 
   0   5   3  341.64    8.54 
   0   5   3  351.40    8.56 
   0   5  -3  350.38    8.38 
   0   5  -3  346.06    8.54 
   0   5   3  343.99    8.38 
   1   5  -3  131.12    3.33 
  -1   5   3  135.93    3.42 
   1  -5   3  133.74    3.43 
  -1   5   3  139.09    3.44 
  -1   5   3  136.15    3.37 
   1   5  -3  132.86    3.40 
   1  -5   3  134.22    3.37 
   1   5  -3  134.39    3.39 
  -1  -5  -3  130.71    3.41 
   1   5   3  132.24    3.33 
   1   5   3  133.43    3.38 
   1  -5  -3  135.33    3.31 
  -1  -5   3  139.02    3.32 
  -1  -5   3  135.74    3.27 
  -1   5  -3  129.50    3.39 
  -1   5  -3  131.69    3.33 
  -1   5  -3  124.35    3.37 
   1  -5  -3  128.35    3.37 
   1  -5  -3  132.84    3.35 
   1   5   3  128.50    3.29 
   2  -5   3  235.85    5.81 
   2   5  -3  236.51    5.72 
   2  -5   3  234.84    5.70 
   2   5  -3  225.35    5.71 
  -2   5   3  225.84    5.68 
  -2   5   3  236.94    5.79 
  -2   5   3  225.91    5.78 
   2   5  -3  223.75    5.61 
   2   5   3  250.02    6.25 
  -2   5  -3  241.91    6.26 
   2  -5  -3  247.65    6.24 
   2  -5  -3  256.94    6.13 
  -2   5  -3  249.93    6.15 
  -2   5  -3  249.32    6.26 
   2  -5  -3  251.03    6.23 
   3  -5   3   68.46    1.92 
   3   5  -3   73.18    1.84 
   3   5  -3   71.38    1.80 
   3   5  -3   72.11    1.82 
   3  -5   3   69.77    1.95 
  -3   5   3   72.52    1.92 
  -3   5   3   71.74    1.93 
   3   5   3   71.81    1.91 
  -3   5  -3   69.42    1.92 
   3  -5  -3   67.45    1.90 
   3  -5  -3   72.30    1.89 
   3  -5  -3   70.46    1.87 
  -4   5   3  156.82    4.01 
   4  -5   3  155.12    4.08 
   4   5  -3  160.56    3.93 
   4   5  -3  155.49    3.84 
  -4   5   3  158.78    4.04 
   4  -5   3  158.56    4.01 
   4   5  -3  159.49    3.90 
   4   5   3  164.65    4.17 
   4  -5  -3  172.29    4.25 
   4  -5  -3  167.60    4.26 
   4  -5  -3  164.42    4.18 
   4   5   3  166.89    4.26 
  -4   5  -3  163.85    4.28 
   5   5  -3   45.70    1.15 
  -5   5   3   42.64    1.21 
   5  -5   3   43.91    1.36 
  -5   5   3   43.86    1.29 
   5  -5   3   44.80    1.35 
   5   5  -3   44.82    1.14 
   5   5   3   56.28    1.56 
   5  -5  -3   52.11    1.55 
  -5   5  -3   52.49    1.53 
   5   5   3   54.42    1.51 
   5  -5  -3   55.81    1.55 
   5   5   3   55.45    1.52 
  -5   5  -3   54.60    1.59 
   5  -5  -3   54.32    1.54 
   6  -5   3   66.59    1.93 
   6  -5   3   67.66    1.96 
  -6   5   3   67.16    1.85 
   6  -5  -3   67.00    1.94 
  -6   5  -3   72.46    2.00 
   6  -5  -3   71.40    1.97 
   6   5   3   70.46    1.92 
   6   5   3   70.17    1.93 
   6   5   3   70.02    1.96 
   7  -5   3   38.23    1.30 
   7  -5   3   38.42    1.30 
   7   5  -3   38.21    1.02 
   7   5   3   41.89    1.27 
   7  -5  -3   41.00    1.30 
   7   5   3   41.10    1.28 
   7  -5  -3   41.26    1.30 
   7   5   3   41.79    1.27 
   8  -5   3   23.66    1.01 
   8  -5   3   24.13    1.01 
   8  -5  -3   25.06    0.99 
   8   5   3   26.53    0.94 
   9  -5   3   24.04    1.07 
   9  -5  -3   26.04    1.04 
   9   5   3   26.06    0.98 
  10  -5   3   15.97    0.95 
  10  -5  -3   17.97    0.90 
  10   5   3   16.86    0.82 
   0  -6  -3  159.04    4.11 
   0  -6   3  160.15    4.05 
   0   6   3  165.69    4.09 
   0   6   3  154.15    3.99 
   0  -6   3  157.46    3.98 
   0   6  -3  160.51    3.99 
   0   6  -3  161.53    4.06 
  -1   6   3   54.28    1.53 
   1   6  -3   53.91    1.46 
   1   6  -3   51.98    1.48 
  -1   6   3   55.87    1.56 
   1  -6   3   54.54    1.51 
   1   6  -3   54.77    1.47 
   1  -6   3   54.33    1.50 
  -1   6   3   54.81    1.50 
  -1  -6   3   58.65    1.53 
   1   6   3   56.35    1.55 
   1   6   3   58.05    1.61 
  -1  -6   3   59.65    1.54 
   1  -6  -3   57.34    1.59 
  -1   6  -3   58.03    1.59 
  -1   6  -3   58.44    1.61 
   1  -6  -3   58.21    1.57 
   1  -6  -3   54.81    1.56 
   2  -6   3  203.88    5.28 
   2   6  -3  212.57    5.20 
   2   6  -3  210.04    5.11 
   2  -6   3  207.63    5.19 
   2   6  -3  212.83    5.21 
  -2   6   3  201.52    5.27 
  -2   6   3  210.25    5.28 
  -2   6  -3  177.92    4.65 
   2  -6  -3  181.56    4.71 
  -2  -6   3  195.48    4.55 
   2  -6  -3  185.80    4.63 
  -2   6  -3  180.28    4.72 
   2  -6  -3  187.38    4.70 
   2   6   3  190.06    4.72 
  -3   6   3  177.62    4.69 
   3   6  -3  185.76    4.52 
   3  -6   3  182.06    4.72 
   3   6  -3  186.16    4.59 
   3   6  -3  189.24    4.61 
  -3   6   3  177.13    4.69 
   3  -6   3  190.11    4.64 
   3  -6  -3  193.73    4.77 
   3  -6  -3  185.48    4.78 
   3   6   3  188.93    4.78 
  -3   6  -3  186.07    4.80 
   3  -6  -3  184.84    4.69 
  -4   6   3   40.16    1.25 
   4  -6   3   42.51    1.30 
   4   6  -3   42.75    1.11 
  -4   6   3   40.06    1.23 
   4  -6   3   43.59    1.29 
   4   6  -3   42.00    1.15 
   4   6  -3   42.35    1.12 
   4  -6  -3   37.39    1.14 
  -4   6  -3   39.35    1.19 
   4  -6  -3   37.23    1.15 
   4   6   3   36.57    1.14 
   4  -6  -3   37.73    1.15 
  -5   6   3  124.61    3.20 
   5   6  -3  119.83    3.03 
   5  -6   3  112.63    3.23 
  -5   6   3  115.13    3.12 
   5  -6   3  125.71    3.21 
   5   6  -3  125.78    3.00 
   5   6  -3  123.69    3.05 
   5   6   3  127.64    3.27 
  -5   6  -3  124.24    3.30 
   5  -6  -3  117.76    3.26 
   5   6   3  125.97    3.19 
   5  -6  -3  123.04    3.26 
   5  -6  -3  124.56    3.23 
  -6   6   3   83.75    2.30 
   6   6  -3   84.74    2.11 
   6  -6   3   85.21    2.36 
   6  -6   3   81.39    2.37 
   6   6   3   87.32    2.37 
   6  -6  -3   86.77    2.36 
   6   6   3   85.23    2.33 
   6   6   3   86.29    2.32 
  -6   6  -3   84.61    2.41 
   6  -6  -3   86.52    2.38 
   7   6  -3   29.80    0.83 
   7  -6   3   31.11    1.14 
   7   6  -3   29.12    0.86 
   7  -6   3   30.89    1.14 
   7   6   3   28.03    0.98 
   7  -6  -3   28.77    1.06 
   7   6   3   30.33    1.01 
   7  -6  -3   30.70    1.06 
   7   6   3   29.57    1.02 
   8  -6   3   56.69    1.79 
   8  -6   3   57.16    1.82 
   8   6  -3   54.26    1.46 
   8   6  -3   58.29    1.46 
   8  -6  -3   57.06    1.75 
   8  -6  -3   56.19    1.74 
   8   6   3   58.35    1.69 
   9  -6   3   12.94    0.84 
   9   6   3    9.44    0.62 
   9  -6  -3    9.16    0.71 
  10  -6   3   18.99    1.05 
  10   6   3   22.89    0.96 
  10  -6  -3   24.25    1.08 
   0  -7  -3    5.38    0.32 
   0   7  -3    4.82    0.32 
   0  -7   3    5.37    0.34 
   0   7  -3    5.34    0.34 
   0   7   3    5.29    0.33 
   0  -7   3    5.33    0.33 
   0   7   3    5.75    0.37 
   1  -7   3  298.30    7.01 
   1  -7   3  285.97    7.13 
   1   7  -3  290.65    6.97 
   1   7  -3  282.37    7.10 
  -1   7   3  276.11    7.01 
  -1   7   3  274.08    7.14 
   1  -7  -3  278.95    6.74 
  -1  -7   3  278.24    6.81 
   1   7   3  267.47    6.71 
  -1  -7   3  273.34    6.70 
   1   7   3  279.65    6.88 
  -1   7  -3  270.92    6.87 
   1  -7  -3  269.11    6.84 
  -1   7  -3  271.61    6.75 
   2   7  -3  141.44    3.68 
  -2   7   3  146.58    3.82 
   2  -7   3  143.93    3.80 
   2  -7   3  150.17    3.76 
   2   7  -3  153.39    3.76 
  -2  -7   3  127.81    3.14 
   2   7   3  127.46    3.28 
   2  -7  -3  125.02    3.25 
  -2   7  -3  125.76    3.29 
  -2   7  -3  125.75    3.25 
   2   7   3  123.12    3.18 
   2  -7  -3  122.03    3.22 
  -3   7   3   80.21    2.17 
   3  -7   3   76.95    2.17 
   3   7  -3   79.85    2.08 
   3   7  -3   78.87    2.04 
   3  -7   3   77.36    2.15 
   3   7   3   77.41    2.11 
   3  -7  -3   77.15    2.08 
  -3   7  -3   74.03    2.12 
   3  -7  -3   76.16    2.07 
   4   7  -3  140.36    3.51 
  -4   7   3  127.97    3.60 
   4  -7   3  139.32    3.59 
   4   7  -3  140.34    3.44 
   4  -7   3  140.66    3.65 
  -4   7  -3  128.05    3.40 
   4   7   3  128.32    3.37 
   4  -7  -3  130.76    3.33 
   4  -7  -3  124.51    3.35 
   5  -7   3   18.50    0.79 
   5   7  -3   18.70    0.61 
   5   7  -3   18.28    0.59 
  -5   7   3   16.94    0.67 
   5  -7   3   18.72    0.79 
  -5   7   3   18.40    0.74 
   5  -7  -3   16.88    0.70 
  -5   7  -3   15.21    0.69 
   5  -7  -3   14.53    0.69 
   5   7   3   16.91    0.68 
   6  -7   3   62.03    1.87 
  -6   7   3   62.33    1.83 
   6   7  -3   63.75    1.65 
   6   7  -3   62.57    1.64 
   6  -7   3   63.36    1.90 
   6   7   3   52.32    1.54 
   6  -7  -3   53.09    1.59 
   6   7   3   50.60    1.56 
  -6   7  -3   54.37    1.63 
   6  -7  -3   51.45    1.59 
   7  -7   3   55.96    1.73 
   7  -7   3   53.79    1.73 
   7   7  -3   53.65    1.44 
   7  -7  -3   59.72    1.78 
   7   7   3   56.79    1.73 
   7  -7  -3   58.16    1.77 
   7   7   3   59.19    1.72 
   7   7   3   59.39    1.77 
   8   7  -3    1.69    0.20 
   8  -7   3    1.81    0.44 
   8   7  -3    1.61    0.21 
   8  -7   3    1.77    0.42 
   8   7   3    1.88    0.35 
   8  -7  -3    2.26    0.40 
   8  -7  -3    1.86    0.40 
   8   7   3    2.23    0.33 
   9  -7   3   29.84    1.29 
   9  -7   3   28.90    1.26 
   9  -7  -3   28.24    1.15 
   9   7   3   29.02    1.07 
  10  -7   3   12.54    0.96 
  10   7   3    9.87    0.69 
  10  -7  -3    9.71    0.72 
   0   8   3  335.68    8.29 
   0  -8   3  331.92    8.24 
   0   8  -3  325.87    8.11 
   0  -8   3  334.08    8.10 
   0  -8  -3  328.64    8.23 
   0   8   3  329.53    8.11 
   0   8  -3  326.37    8.26 
   1  -8   3   50.89    1.45 
   1   8  -3   50.36    1.42 
   1   8  -3   51.09    1.44 
  -1   8   3   50.04    1.49 
  -1   8   3   50.46    1.46 
   1  -8   3   47.34    1.44 
   1  -8  -3   56.31    1.55 
  -1   8  -3   55.41    1.58 
   1  -8  -3   50.35    1.55 
  -1  -8   3   55.71    1.52 
   1   8   3   54.29    1.55 
  -1  -8   3   57.28    1.52 
   1   8   3   54.51    1.60 
  -1   8  -3   55.21    1.59 
   2   8  -3  173.72    4.32 
   2  -8   3  167.64    4.38 
   2  -8   3  170.16    4.44 
  -2   8   3  172.20    4.47 
   2   8  -3  176.54    4.39 
   2   8   3  190.52    4.72 
  -2   8  -3  193.47    4.87 
   2  -8  -3  181.80    4.81 
   2   8   3  185.72    4.84 
  -2  -8   3  193.34    4.68 
   2  -8  -3  187.41    4.76 
   3   8  -3   93.02    2.39 
   3  -8   3   90.77    2.50 
   3   8  -3   90.60    2.43 
   3  -8   3   92.36    2.52 
  -3   8   3   92.48    2.53 
   3   8   3   99.10    2.61 
   3   8   3   98.87    2.70 
   3  -8  -3  100.12    2.68 
  -3   8  -3   99.46    2.73 
   3  -8  -3  103.02    2.68 
  -4   8   3    4.98    0.42 
   4  -8   3    4.85    0.42 
   4   8  -3    5.57    0.35 
   4   8  -3    4.90    0.32 
   4  -8   3    4.54    0.41 
  -4   8  -3    6.99    0.49 
   4  -8  -3    6.78    0.49 
   4   8   3    7.13    0.48 
   4  -8  -3    6.83    0.50 
   5   8  -3   71.51    1.91 
   5  -8   3   68.62    2.04 
   5  -8   3   70.74    2.07 
   5   8  -3   69.91    1.86 
  -5   8   3   70.80    2.03 
   5  -8  -3   73.58    2.09 
   5  -8  -3   72.80    2.09 
   5   8   3   72.10    2.10 
  -5   8  -3   76.12    2.15 
   6  -8   3   35.87    1.26 
   6  -8   3   35.91    1.26 
   6   8  -3   34.80    1.02 
  -6   8   3   34.26    1.19 
   6   8  -3   34.19    1.02 
   6   8   3   32.14    1.13 
  -6   8  -3   34.56    1.21 
   6   8   3   35.50    1.17 
   6  -8  -3   33.18    1.19 
   6  -8  -3   34.72    1.18 
   7  -8   3    5.66    0.55 
   7  -8   3    5.98    0.55 
   7   8  -3    6.03    0.36 
   7   8   3    8.03    0.57 
   7  -8  -3    7.79    0.58 
   7   8   3    7.51    0.56 
   7  -8  -3    6.77    0.54 
   8  -8   3   57.51    1.85 
   8   8  -3   55.12    1.49 
   8  -8   3   56.81    1.85 
   8   8  -3   53.38    1.51 
   8  -8  -3   56.71    1.79 
   8  -8  -3   58.00    1.80 
   8   8   3   54.25    1.69 
   8   8   3   56.23    1.72 
   9  -8   3    4.77    0.62 
   9   8  -3    4.03    0.32 
   9  -8   3    4.99    0.61 
   9   8   3    5.25    0.50 
   9  -8  -3    4.85    0.54 
  10  -8   3   17.87    1.12 
   0  -9   3    2.01    0.26 
   0  -9   3    2.72    0.27 
   0   9   3    2.21    0.29 
   0   9  -3    1.81    0.26 
   0   9   3    2.70    0.31 
   0   9  -3    2.60    0.30 
   1  -9   3  103.46    2.72 
   1   9  -3  103.20    2.69 
  -1   9   3  104.94    2.79 
   1   9  -3  102.79    2.74 
   1  -9   3   96.01    2.72 
   1   9   3   98.91    2.63 
   1  -9  -3  101.73    2.65 
  -1   9  -3   93.17    2.65 
   1  -9  -3   96.34    2.64 
  -1  -9   3  100.71    2.61 
  -1  -9   3  101.07    2.60 
   1   9   3   99.98    2.71 
  -1   9  -3  100.76    2.70 
   2   9  -3   86.00    2.33 
   2  -9   3   87.71    2.41 
   2   9  -3   89.03    2.38 
  -2   9   3   86.72    2.45 
   2  -9   3   88.66    2.40 
   2  -9  -3   95.44    2.61 
   2  -9  -3   96.48    2.62 
   2   9   3   97.69    2.67 
   2   9   3   92.60    2.57 
  -2  -9   3  102.32    2.55 
  -2   9  -3  100.16    2.69 
   3   9  -3   15.55    0.59 
   3   9  -3   14.70    0.60 
  -3   9   3   14.16    0.67 
   3  -9   3   13.35    0.67 
   3  -9   3   13.75    0.67 
  -3   9  -3   12.92    0.64 
   3   9   3   12.64    0.61 
   3  -9  -3   12.50    0.64 
   3   9   3   12.29    0.55 
   3  -9  -3   12.29    0.60 
   4   9  -3  165.61    4.15 
   4  -9   3  164.22    4.34 
   4   9  -3  166.59    4.24 
  -4   9   3  157.03    4.34 
   4  -9   3  170.10    4.31 
  -4   9  -3  175.59    4.61 
   4  -9  -3  171.86    4.56 
   4   9   3  175.85    4.43 
   4  -9  -3  176.14    4.52 
   4   9   3  176.56    4.58 
   5  -9   3   16.00    0.82 
  -5   9   3   16.66    0.76 
   5  -9   3   14.44    0.78 
   5   9  -3   15.62    0.64 
   5   9  -3   16.41    0.61 
   5  -9  -3   15..54    0.75 
   5   9   3   15.52    0.72 
   5   9   3   15.37    0.64 
  -5   9  -3   14.84    0.75 
   5  -9  -3   15.45    0.75 
  -6   9   3   65.02    2.00 
   6  -9   3   67.78    2.04 
   6  -9   3   67.25    2.05 
   6   9  -3   66.62    1.85 
   6   9  -3   67.07    1.81 
   6   9   3   77.49    2.28 
   6   9   3   87.28    2.36 
  -6   9  -3   83.49    2.39 
   6  -9  -3   79.61    2.33 
   6  -9  -3   78.00    2.33 
   7  -9   3   24.01    1.11 
   7  -9   3   26.92    1.13 
   7   9  -3   24.42    0.78 
   7   9  -3   25.65    0.83 
   7  -9  -3   25.00    1.04 
   7   9   3   25.53    1.00 
   7  -9  -3   23.56    1.04 
   7   9   3   23.46    0.97 
   8   9  -3    6.37    0.41 
   8  -9   3    5.29    0.60 
   8   9  -3    5.36    0.39 
   8  -9   3    6.22    0.62 
   8   9   3    7.55    0.60 
   8  -9  -3    7.18    0.62 
   8   9   3    7.02    0.55 
   8  -9  -3    7.59    0.63 
   9  -9   3   13.79    1.02 
   9   9  -3   16.09    0.61 
   9  -9   3   15.01    1.02 
   9  -9  -3   16.53    1.00 
   9   9   3   16.68    0.86 
   0  10  -3  171.25    4.52 
   0  10   3  172.93    4.54 
   0  10   3  173.74    4.45 
   0 -10   3  177.54    4.47 
   0 -10   3  175.10    4.41 
   0  10  -3  168.97    4.43 
   1 -10   3   14.36    0.64 
   1 -10   3   13.14    0.63 
   1  10  -3   14.44    0.64 
   1  10  -3   14.53    0.63 
  -1  10   3   13.68    0.67 
  -1 -10   3   14.28    0.60 
  -1 -10   3   15.11    0.60 
  -1  10  -3   13.80    0.65 
   1  10   3   14.49    0.67 
   1 -10  -3   13.12    0.65 
  -1  10  -3   13.96    0.67 
   1 -10  -3   14.96    0.63 
   1  10   3   14.67    0.63 
   2  10  -3  130.22    3.38 
   2  10  -3  131.27    3.44 
   2 -10   3  130.23    3.43 
  -2  10   3  128.47    3.51 
   2 -10   3  129.41    3.47 
  -2  10  -3  144.23    3.75 
   2 -10  -3  138.88    3.65 
   2  10   3  139.50    3.62 
   2  10   3  138.90    3.72 
   2 -10  -3  136.91    3.66 
   3 -10   3   68.95    1.99 
  -3  10   3   68.76    2.02 
   3  10  -3   66.15    1.89 
   3  10  -3   67.85    1.92 
   3 -10   3   67.19    1.98 
   3  10   3   59.45    1.76 
  -3  10  -3   55.44    1.76 
   3 -10  -3   57.78    1.71 
   3 -10  -3   59.06    1.75 
   3  10   3   57.97    1.67 
   4 -10   3   17.13    0.83 
   4  10  -3   17.04    0.68 
   4 -10   3   18.63    0.84 
  -4  10   3   16.74    0.80 
   4  10  -3   18.36    0.72 
   4  10   3   18.75    0.82 
  -4  10  -3   20.01    0.86 
   4 -10  -3   19.49    0.86 
   4 -10  -3   19.34    0.83 
   4  10   3   18.00    0.74 
   5 -10   3   61.69    1.90 
  -5  10   3   61.07    1.88 
   5  10  -3   59.02    1.70 
   5  10  -3   60.97    1.76 
   5 -10   3   61.13    1.89 
   5 -10  -3   52.21    1.67 
  -5  10  -3   49.63    1.68 
   5 -10  -3   53.64    1.65 
   5  10   3   53.79    1.67 
   6 -10   3   43.66    1.54 
   6  10  -3   43.21    1.34 
   6  10  -3   44.06    1.30 
  -6  10   3   42.90    1.48 
   6 -10   3   46.18    1.55 
   6 -10  -3   37.74    1.35 
   6  10   3   37.49    1.34 
  -6  10  -3   38.16    1.37 
   6 -10  -3   39.26    1.39 
   7  10  -3   15.92    0.63 
   7 -10   3   15.82    0.95 
   7 -10   3   16.07    0.95 
   7  10   3   14.55    0.79 
   7 -10  -3   16.09    0.91 
   7  10   3   15.77    0.82 
   7 -10  -3   14.61    0.86 
   8 -10   3   41.84    1.61 
   8 -10   3   44.63    1.62 
   8  10  -3   41.66    1.32 
   8  10   3   41.58    1.44 
   8 -10  -3   43.34    1.55 
   8 -10  -3   44.02    1.59 
   8  10   3   42.83    1.47 
   9 -10   3    0.70    0.50 
   9  10  -3    0.41    0.25 
   9 -10   3    0.83    0.51 
   9 -10  -3    2.11    0.52 
   9  10   3    1.88    0.41 
   0  11   3   48.63    1.55 
   0 -11   3   50.27    1.47 
   0  11  -3   50.52    1.52 
   0  11   3   47.16    1.51 
   0  11  -3   49.07    1.53 
   0 -11   3   47.03    1.48 
   1  11  -3   47.63    1.50 
   1  11  -3   47.46    1.47 
   1 -11   3   47.56    1.48 
   1 -11   3   48.32    1.48 
  -1  11   3   49.55    1.56 
   1 -11  -3   38.11    1.23 
  -1 -11   3   39.42    1.21 
   1 -11  -3   38.79    1.26 
  -1  11  -3   37.24    1.27 
  -1 -11   3   38.94    1.18 
  -1  11  -3   39.25    1.30 
   1  11   3   36.28    1.29 
   1  11   3   37.70    1.24 
   2 -11   3  104.58    2.89 
   2 -11   3  104.91    2.89 
   2  11  -3  106.65    2.83 
  -2  11   3  106.77    2.96 
   2  11  -3  104.17    2.87 
  -2  11  -3   87.70    2.61 
   2 -11  -3   95.93    2.57 
   2  11   3   95.32    2.63 
   2  11   3   89.90    2.52 
   2 -11  -3   93.23    2.57 
   3  11  -3   23.66    0.88 
   3  11  -3   23.03    0.90 
  -3  11   3   23.54    0.97 
   3 -11   3   23.42    0.97 
   3 -11   3   24.99    0.98 
   3 -11  -3   20.27    0.88 
  -3  11  -3   18.04    0.87 
   3  11   3   21.41    0.88 
   3 -11  -3   20.97    0.86 
   3  11   3   20.63    0.81 
   4 -11   3  115.06    3.15 
   4  11  -3  111.68    3.05 
   4  11  -3  110.26    2.99 
   4 -11   3  114.03    3.13 
  -4  11   3  113.91    3.17 
   4 -11  -3  109.15    3.05 
   4 -11  -3  110.68    3.07 
  -4  11  -3  114.79    3.14 
   4  11   3  109.38    3.10 
   5  11  -3    8.14    0.54 
  -5  11   3    8.95    0.65 
   5 -11   3    7.51    0.61 
   5 -11   3    8.76    0.66 
   5  11   3    7.87    0.62 
  -5  11  -3    6.24    0.57 
   5 -11  -3    6.39    0.56 
   5 -11  -3    6.44    0.54 
   6 -11   3   40.89    1.53 
   6  11  -3   44.10    1.36 
  -6  11   3   41.57    1.48 
   6 -11   3   41.37    1.53 
  -6  11  -3   43.07    1.52 
   6 -11  -3   43.47    1.49 
   6  11   3   42.72    1.50 
   6 -11  -3   42.04    1.53 
   7 -11   3   23.66    1.15 
   7  11  -3   21.65    0.84 
   7 -11   3   22.97    1.14 
   7  11   3   24.27    1.03 
   7  11   3   23.30    1.03 
   7 -11  -3   22.39    1.07 
   7 -11  -3   23.73    1.14 
   8 -11   3    5.53    0.64 
   8 -11   3    4.65    0.63 
   8 -11  -3    3.55    0.56 
   8 -11  -3    3.00    0.56 
   8  11   3    4.68    0.52 
   8  11   3    4.28    0.50 
   9  11  -3   16.54    0.75 
   9 -11   3   18.92    1.16 
   9 -11   3   18.75    1.18 
   9  11   3   14.69    0.88 
   9 -11  -3   13.13    1.02 
   0  12  -3  117.97    3.32 
   0 -12   3  120.95    3.24 
   0 -12   3  122.72    3.24 
   0  12  -3  123.17    3.28 
   0  12   3  120.43    3.35 
   1  12  -3   51.20    1.61 
   1  12  -3   50.55    1.60 
   1 -12   3   50.19    1.56 
   1 -12   3   50.49    1.57 
  -1  12   3   50.59    1.63 
   1 -12  -3   53.27    1.65 
  -1  12  -3   54.07    1.69 
   1  12   3   53.55    1.70 
  -1 -12   3   54.31    1.56 
  -1 -12   3   49.38    1.57 
   1 -12  -3   52.57    1.61 
   2 -12   3   59.44    1.82 
   2  12  -3   58.39    1.80 
   2 -12   3   60.17    1.81 
  -2  12   3   59.13    1.86 
   2 -12  -3   61.80    1.84 
   2  12   3   62.96    1.91 
   2 -12  -3   59.44    1.86 
  -2  12  -3   60.93    1.91 
   3 -12   3   18.48    0.89 
   3 -12   3   18.42    0.87 
  -3  12   3   18.51    0.88 
   3  12  -3   17.79    0.80 
   3 -12  -3   21.64    0.91 
   3  12   3   21.26    0.92 
  -3  12  -3   19.65    0.90 
   3 -12  -3   20.35    0.93 
   4 -12   3    7.86    0.64 
   4  12  -3    8.95    0.58 
   4 -12   3    7.87    0.62 
  -4  12   3    8.29    0.65 
   4  12   3    8.00    0.64 
  -4  12  -3    8.60    0.67 
   4 -12  -3    8.57    0.69 
   4 -12  -3    8.30    0.66 
   5 -12   3   16.48    0.93 
  -5  12   3   17.40    0.89 
   5  12  -3   16.83    0.79 
   5 -12   3   18.14    0.97 
   5 -12  -3   13.21    0.86 
   5  12   3   13.08    0.81 
  -5  12  -3   14.02    0.82 
   5 -12  -3   13.51    0.81 
   6 -12   3   22.13    1.08 
   6 -12   3   21.10    1.10 
   6  12  -3   20.14    0.89 
   6 -12  -3   24.74    1.10 
  -6  12  -3   24.16    1.11 
   6  12   3   23.54    1.08 
   6 -12  -3   25.36    1.16 
   7 -12   3   20.70    1.12 
   7  12  -3   18.20    0.81 
   7 -12   3   18.84    1.07 
   7  12   3   14.55    0.86 
   7 -12  -3   15.89    0.96 
   7  12   3   14.82    0.88 
   7 -12  -3   15.75    1.01 
   8 -12   3   39.27    1.61 
   8 -12   3   42.40    1.67 
   8  12   3   40.95    1.52 
   8 -12  -3   44.12    1.60 
   8  12   3   38.10    1.47 
   8 -12  -3   41.47    1.64 
   9 -12   3   12.40    0.93 
   9 -12   3   12.35    0.98 
   9 -12  -3    9.21    0.92 
   0  13   3   18.91    0.90 
   0 -13   3   18.25    0.82 
   0  13  -3   19.19    0.88 
   0 -13   3   18.50    0.81 
   1  13  -3   35.05    1.28 
  -1  13   3   37.04    1.35 
   1 -13   3   37.05    1.25 
   1 -13   3   36.70    1.28 
   1 -13  -3   36.51    1.23 
   1  13   3   34.18    1.30 
  -1  13  -3   35.03    1.28 
   1 -13  -3   36.72    1.28 
  -1 -13   3   35.13    1.17 
   2 -13   3   48.32    1.59 
   2 -13   3   48.77    1.57 
  -2  13   3   45.65    1.62 
   2  13  -3   49.34    1.58 
   2 -13  -3   58.25    1.76 
  -2  13  -3   57.27    1.84 
   2  13   3   55.57    1.83 
   2 -13  -3   56.63    1.80 
   3  13  -3   56.47    1.77 
  -3  13   3   56.08    1.85 
   3 -13   3   56.71    1.79 
   3 -13   3   54.22    1.80 
   3  13   3   56.92    1.88 
   3 -13  -3   58.67    1.83 
   3 -13  -3   60.44    1.88 
  -3  13  -3   58.24    1.90 
   4 -13   3   49.77    1.67 
   4 -13   3   48.15    1.68 
   4  13  -3   49.02    1.60 
  -4  13   3   49.47    1.70 
  -4  13  -3   48.37    1.70 
   4 -13  -3   49.28    1.65 
   4  13   3   48.63    1.66 
   4 -13  -3   48.08    1.62 
  -5  13   3   26.65    1.18 
   5 -13   3   27.60    1.24 
   5  13  -3   26.91    1.07 
   5 -13   3   27.18    1.19 
   5 -13  -3   29.94    1.21 
   5  13   3   28.94    1.22 
  -5  13  -3   27.34    1.23 
   5 -13  -3   30.95    1.28 
   6 -13   3   37.06    1.49 
   6 -13   3   35.15    1.45 
   6  13  -3   33.99    1.28 
   6 -13  -3   35.58    1.47 
  -6  13  -3   34.70    1.42 
   6  13   3   36.73    1.41 
   6 -13  -3   35.33    1.39 
   7  13  -3    6.64    0.55 
   7 -13   3    8.22    0.75 
   7 -13   3    9.09    0.79 
   7  13   3    8.25    0.71 
   7 -13  -3    8.92    0.79 
   7  13   3   10.84    0.81 
   7 -13  -3    7.46    0.70 
   8 -13   3    9.58    0.87 
   8 -13   3    8.62    0.81 
   8  13   3    6.45    0.64 
   8  13   3    8.84    0.72 
   8 -13  -3    8.53    0.80 
   8 -13  -3    8.04    0.74 
   9 -13   3   10.03    0.89 
   0  14   3   31.48    1.22 
   0  14  -3   28.94    1.17 
   0 -14   3   28.83    1.09 
   1  14  -3   48.71    1.62 
   1 -14   3   47.45    1.54 
  -1  14   3   46.18    1.64 
  -1  14  -3   50.73    1.73 
   1 -14  -3   55.32    1.71 
   1 -14  -3   52.76    1.65 
  -1 -14   3   50.43    1.58 
   1  14   3   50.07    1.74 
   2  14  -3   29.23    1.21 
   2 -14   3   33.13    1.24 
  -2  14   3   30.00    1.25 
   2 -14   3   33.12    1.21 
  -2  14  -3   37.19    1.38 
   2 -14  -3   34.71    1.33 
   2 -14  -3   38.03    1.30 
   2  14   3   33.92    1.34 
   3 -14   3   50.90    1.68 
   3 -14   3   50.27    1.70 
   3  14  -3   49.87    1.67 
  -3  14   3   48.16    1.73 
   3  14   3   48.43    1.67 
   3 -14  -3   50.55    1.64 
  -3  14  -3   45.36    1.67 
   3 -14  -3   48.03    1.68 
   4 -14   3   19.33    1.03 
   4  14  -3   20.51    0.95 
  -4  14   3   20.76    1.04 
   4 -14   3   22.12    1.06 
   4 -14  -3   21.04    1.02 
  -4  14  -3   22.22    1.08 
   4 -14  -3   20.92    1.09 
   4  14   3   20.97    1.04 
   5  14  -3   33.56    1.27 
  -5  14   3   32.63    1.38 
   5 -14   3   33.41    1.39 
   5 -14   3   33.56    1.38 
   5  14   3   37.33    1.47 
  -5  14  -3   36.77    1.49 
   5 -14  -3   38.11    1.45 
   5 -14  -3   40.59    1.53 
   6  14  -3   20.26    0.96 
   6 -14   3   19.44    1.13 
   6 -14   3   21.18    1.15 
   6  14   3   20.16    1.07 
  -6  14  -3   21.09    1.12 
   6 -14  -3   22.87    1.19 
   6 -14  -3   20.64    1.09 
   7 -14   3   28.44    1.39 
   7 -14   3   29.96    1.35 
   7  14  -3   24.89    1.09 
   7  14   3   32.76    1.43 
   7  14   3   35.73    1.43 
   7 -14  -3   34.58    1.47 
   7 -14  -3   37.78    1.55 
   8 -14   3    8.62    0.84 
   8 -14   3    9.09    0.84 
   8 -14  -3    6.74    0.72 
   8 -14  -3    9.44    0.85 
   8  14   3    7.77    0.71 
   0 -15   3   41.39    1.39 
   0  15   3   41.64    1.55 
   0  15  -3   40.92    1.51 
   1 -15   3   33.30    1.23 
   1  15  -3   34.77    1.32 
  -1  15   3   32.48    1.35 
   1  15   3   34.86    1.39 
  -1  15  -3   35.83    1.38 
   2  15  -3   37.05    1.38 
  -2  15   3   36.22    1.44 
   2 -15   3   35.74    1.33 
  -2  15  -3   32.69    1.34 
   2 -15  -3   33.67    1.28 
   2  15   3   32.62    1.34 
   2 -15  -3   33.04    1.33 
  -3  15   3   50.23    1.82 
   3 -15   3   52.83    1.76 
   3  15  -3   52.13    1.76 
  -3  15  -3   50.32    1.78 
   3 -15  -3   49.98    1.75 
   3  15   3   47.01    1.75 
   3 -15  -3   52.81    1.71 
   4 -15   3   13.01    0.90 
   4 -15   3   12.56    1.00 
   4  15  -3   13.28    0.84 
  -4  15   3   12.58    0.90 
  -4  15  -3   11.37    0.86 
   4  15   3   11.18    0.83 
   4 -15  -3   11.87    0.88 
   4 -15  -3   10.31    0.80 
   5 -15   3   42.11    1.64 
  -5  15   3   40.34    1.61 
   5 -15   3   41.36    1.61 
   5  15  -3   41.88    1.52 
   5  15   3   40.64    1.60 
   5 -15  -3   42.21    1.58 
  -5  15  -3   41.99    1.64 
   5 -15  -3   43.70    1.66 
   6 -15   3   15.23    1.07 
   6  15  -3   13.20    0.84 
   6 -15   3   12.99    1.03 
   6  15   3   10.47    0.84 
  -6  15  -3   11.67    0.91 
   6 -15  -3   10.61    0.85 
   6 -15  -3   10.68    0.81 
   7 -15   3   19.81    1.21 
   7 -15   3   16.51    1.16 
   7  15   3   15.90    1.02 
   7 -15  -3   14.91    1.10 
   7  15   3   15.49    1.01 
   7 -15  -3   14.85    1.07 
   8 -15   3   12.39    0.98 
   8 -15  -3   11.99    0.94 
   8 -15  -3   10.88    0.95 
   0  16   3    8.51    0.75 
   0 -16   3   10.18    0.71 
   0  16  -3    9.90    0.80 
   1  16  -3   64.39    2.12 
  -1  16   3   61.75    2.14 
   1 -16   3   64.96    2.01 
   1  16   3   56.16    1.98 
  -1  16  -3   58.70    1.98 
  -2  16   3   20.02    1.09 
   2 -16   3   19.69    1.00 
   2  16  -3   20.67    1.05 
  -2  16  -3   15.96    0.97 
   2 -16  -3   17.19    0.93 
   2  16   3   16.39    0.97 
   3 -16   3   21.23    1.07 
  -3  16   3   20.64    1.12 
   3  16  -3   22.29    1.07 
   3 -16  -3   18.73    1.01 
   3  16   3   17.45    1.04 
  -3  16  -3   17.72    1.04 
  -4  16   3   45.92    1.77 
   4  16  -3   45.30    1.66 
   4 -16   3   45.78    1.68 
   4  16   3   41.48    1.63 
   4 -16  -3   43.34    1.59 
  -4  16  -3   40.44    1.63 
   5  16  -3   10.01    0.81 
  -5  16   3    9.95    0.86 
   5 -16   3   10.46    0.81 
   5 -16  -3   12.39    0.99 
  -5  16  -3   11.11    0.90 
   5  16   3   13.29    0.95 
   5 -16  -3   12.68    1.02 
   6  16  -3   16.54    0.98 
   6 -16   3   16.06    1.10 
   6 -16  -3   16.43    1.11 
   6  16   3   14.29    1.03 
   6 -16  -3   13.77    1.13 
   7 -16  -3   27.75    1.40 
   7  16   3   27.38    1.36 
   7 -16  -3   30.44    1.50 
   0  17  -3   39.10    1.60 
   0  17   3   41.48    1.64 
   0 -17   3   41.40    1.44 
  -1  17   3   20.61    1.16 
   1 -17   3   20.70    1.03 
   1  17  -3   21.75    1.12 
   1  17   3   23.78    1.21 
  -1  17  -3   23.11    1.17 
  -2  17   3   16.11    1.05 
   2  17  -3   16.99    1.00 
   2 -17   3   16.08    0.96 
   2  17   3   17.63    1.08 
   2 -17  -3   17.24    0.98 
  -2  17  -3   16.89    1.04 
  -3  17   3   44.31    1.75 
   3 -17   3   44.89    1.64 
   3  17  -3   43.67    1.66 
  -3  17  -3   53.90    2.00 
   3 -17  -3   58.85    1.91 
   3  17   3   53.95    1.98 
   4 -17   3    0.39    0.48 
  -4  17   3    0.51    0.47 
   4  17  -3    0.88    0.43 
  -4  17  -3    0.51    0.46 
   4  17   3    0.55    0.46 
   4 -17  -3    0.69    0.50 
   5  17  -3   40.81    1.61 
   5 -17   3   42.49    1.66 
  -5  17   3   40.26    1.73 
   5  17   3   41.70    1.70 
  -5  17  -3   41.00    1.74 
   5 -17  -3   42.27    1.68 
   6 -17   3    9.64    0.92 
   6  17  -3   10.06    0.81 
   6  17   3   11.70    0.94 
   6 -17  -3   10.48    0.87 
   0  18   3    0.27    0.46 
   0 -18   3    0.44    0.40 
   0  18  -3    0.78    0.47 
   1 -18   3   34.50    1.38 
   1  18  -3   34.40    1.51 
  -1  18   3   36.18    1.57 
  -1  18  -3   33.68    1.50 
   1  18   3   32.82    1.48 
   2  18  -3   25.61    1.28 
  -2  18   3   24.45    1.32 
   2 -18   3   25.58    1.20 
  -2  18  -3   27.75    1.40 
   2  18   3   31.94    1.46 
   3  18  -3    9.72    0.83 
   3 -18   3   11.59    0.94 
  -3  18   3   10.27    0.91 
  -3  18  -3    8.84    0.85 
   3  18   3    7.89    0.79 
   3 -18  -3    7.90    0.73 
   4  18  -3   37.88    1.59 
   4 -18   3   39.51    1.60 
  -4  18   3   38.56    1.71 
   4 -18  -3   41.19    1.61 
  -4  18  -3   39.19    1.68 
   4  18   3   35.33    1.63 
   5  18  -3    4.98    0.65 
  -5  18  -3    4.36    0.72 
   5 -18  -3    5.56    0.73 
   5  18   3    5.42    0.73 
   6  18  -3   18.61    1.12 
   0  19  -3   34.58    1.63 
   0  19   3   39.22    1.67 
   1 -19   3    8.32    0.71 
  -1  19   3    6.50    0.80 
   1  19  -3    8.45    0.84 
   1  19   3    6.14    0.76 
  -1  19  -3    8.73    0.87 
  -2  19   3   23.09    1.34 
   2 -19   3   24.92    1.20 
   2  19  -3   24.13    1.30 
  -2  19  -3   24.26    1.35 
   2  19   3   26.11    1.39 
   3 -19   3   40.98    1.60 
   3  19  -3   35.63    1.61 
  -3  19   3   34.95    1.67 
  -3  19  -3   33.81    1.57 
   3 -19  -3   32.72    1.44 
   3  19   3   32.77    1.56 
   4  19  -3    1.69    0.54 
  -4  19   3    2.35    0.64 
  -4  19  -3    1.90    0.61 
  -5  19  -3   26.20    1.46 
   0  20  -3    3.93    0.70 
   0  20   3    3.86    0.72 
   1 -20   3   40.79    1.58 
  -1  20   3   40.24    1.81 
   1  20  -3   43.38    1.78 
   1  20   3   37.10    1.72 
  -1  20  -3   39.79    1.75 
   2 -20   3    5.73    0.70 
  -2  20   3    8.88    0.94 
  -2  20  -3    5.59    0.79 
  -3  20   3   16.75    1.25 
  -3  20  -3   15.79    1.32 
  -4  20   3    9.90    0.99 
   0   0  -4    5.97    0.24 
   0   0   4    5.72    0.25 
   0   0  -4    6.20    0.24 
   0   0   4    5.67    0.23 
   0   0  -4    5.56    0.23 
  -1   0   4   15.45    0.44 
  -1   0   4   16.12    0.46 
   1   0  -4   15.36    0.45 
   1   0   4   16.30    0.50 
  -1   0   4   15.79    0.44 
   1   0  -4   14.96    0.44 
   1   0  -4   15.21    0.44 
   1   0   4   15.23    0.47 
  -1   0  -4   14.27    0.49 
  -1   0  -4   15.64    0.47 
   2   0  -4    4.72    0.18 
   2   0  -4    4.40    0.16 
   2   0   4    4.37    0.25 
   2   0   4    5.52    0.24 
   2   0  -4    4.36    0.17 
   2   0   4    4.57    0.24 
  -2   0  -4    4.56    0.21 
  -2   0  -4    4.12    0.23 
  -2   0  -4    4.23    0.22 
   2   0  -4    4.20    0.16 
  -3   0   4  156.75    3.88 
   3   0   4  159.05    4.00 
  -3   0  -4  158.18    4.00 
   3   0  -4  166.58    3.90 
   3   0  -4  157.85    3.89 
   3   0  -4  155.26    3.82 
   3   0   4  155.12    3.92 
   3   0   4  156.04    4.02 
   3   0  -4  159.28    3.91 
  -3   0  -4  157.84    3.97 
   4   0   4    8.14    0.37 
  -4   0  -4    7.86    0.31 
   4   0  -4    7.49    0.27 
   4   0   4    7.16    0.37 
   4   0  -4    7.79    0.26 
   5   0   4  208.23    5.24 
   5   0  -4  206.17    5.01 
   5   0   4  205.99    5.13 
   6   0  -4    2.25    0.19 
   6   0   4    2.38    0.27 
   6   0  -4    2.35    0.18 
   6   0   4    2.48    0.27 
  -6   0  -4    2.75    0.25 
   7   0   4    8.54    0.50 
   7   0   4    9.13    0.53 
   7   0  -4    7.95    0.37 
   8   0  -4    5.94    0.36 
   8   0   4    6.36    0.48 
   8   0   4    6.13    0.47 
   9   0   4    0.27    0.31 
   9   0  -4    0.55    0.21 
  10   0  -4    1.85    0.26 
  10   0   4    1.50    0.39 
  11   0  -4   24.84    0.80 
   0   1   4  155.97    3.75 
   0   1   4  146.87    3.74 
   0  -1  -4  137.23    3.74 
   0   1  -4  156.35    3.75 
   0  -1   4  148.62    3.74 
   0   1  -4  151.01    3.74 
   0  -1  -4  155.34    3.67 
   0   1  -4  145.69    3.66 
   1   1  -4  446.69   11.28 
  -1   1   4  467.20   11.37 
   1  -1   4  447.10   11.12 
  -1  -1  -4  460.28   11.02 
   1  -1   4  458.13   11.44 
   1   1  -4  460.25   11.16 
  -1   1   4  466.80   11.53 
  -1   1   4  460.77   11.08 
  -1  -1  -4  464.09   11.39 
   1   1  -4  452.94   11.35 
  -1   1   4  456.73   11.47 
  -1  -1   4  538.95   11.96 
  -1  -1   4  481.88   11.69 
   1   1   4  476.55   11.93 
   1   1   4  490.14   11.80 
   1  -1  -4  463.21   11.62 
   1  -1  -4  477.94   12.00 
  -1   1  -4  468.74   11.94 
   1  -1  -4  498.98   12.00 
  -1   1  -4  465.52   11.60 
  -1   1  -4  462.02   11.91 
  -2  -1  -4   16.63    0.51 
   2  -1   4   16.68    0.53 
   2   1  -4   16.27    0.46 
  -2   1   4   17.96    0.45 
   2  -1   4   15.72    0.53 
  -2   1   4   14.94    0.47 
   2   1  -4   16.12    0.44 
  -2  -1  -4   16.87    0.51 
   2   1  -4   15.75    0.44 
  -2   1   4   16.41    0.46 
  -2   1   4   16.44    0.45 
  -2  -1  -4   17.33    0.53 
  -2   1   4   15.80    0.45 
   2   1   4    7.03    0.30 
   2  -1  -4    7.50    0.26 
  -2   1  -4    7.49    0.32 
   2  -1  -4    7.48    0.27 
  -2   1  -4    7.58    0.30 
   2   1   4    7.04    0.30 
  -2   1  -4    7.45    0.30 
   2  -1  -4    7.66    0.25 
   2   1   4    6.98    0.32 
  -3  -1  -4   67.76    1.81 
  -3   1   4   69.18    1.74 
   3   1  -4   69.84    1.71 
   3  -1   4   68.76    1.80 
   3  -1   4   67.00    1.82 
   3   1   4   62.88    1.73 
  -3   1  -4   64.07    1.69 
   3  -1  -4   64.55    1.65 
   3  -1  -4   64.01    1.61 
  -3   1  -4   65.33    1.79 
   3  -1  -4   63.78    1.63 
   3   1   4   67.15    1.71 
   3   1   4   62.44    1.68 
   4  -1   4   13.47    0.51 
  -4   1   4   12.98    0.39 
   4  -1   4   13.17    0.50 
   4   1   4   10.74    0.43 
   4  -1  -4   10.18    0.35 
   4  -1  -4   10.09    0.36 
   4  -1  -4   10.13    0.34 
   4   1   4   10.42    0.45 
   4   1   4   10.11    0.42 
  -4   1  -4    9.96    0.38 
   5  -1   4   24.93    0.84 
   5  -1   4   26.46    0.84 
   5   1   4   19.50    0.68 
   5  -1  -4   19.10    0.59 
  -5   1  -4   20.30    0.61 
   5   1   4   20.09    0.69 
   5  -1  -4   19.46    0.60 
   5  -1  -4   19.82    0.59 
  -5   1  -4   20.12    0.68 
   6   1  -4    9.57    0.33 
   6  -1   4    9.29    0.50 
   6  -1   4    9.88    0.50 
  -6   1  -4   11.90    0.51 
   6   1   4   12.13    0.53 
   6  -1  -4   11.28    0.45 
   6  -1  -4   11.99    0.44 
   6   1   4   11.57    0.53 
   7  -1   4  104.77    2.75 
   7   1  -4   99.21    2.54 
   7  -1   4  103.17    2.77 
   7   1   4   90.22    2.45 
   7   1   4   89.63    2.42 
   7  -1  -4   88.53    2.31 
   7  -1  -4   91.49    2.35 
   8  -1   4    4.84    0.44 
   8   1  -4    4.33    0.29 
   8  -1   4    3.93    0.41 
   8   1   4    3.91    0.40 
   8   1   4    4.29    0.40 
   8  -1  -4    4.59    0.37 
   9   1  -4   66.14    1.74 
   9  -1   4   68.62    2.01 
   9   1   4   63.03    1.86 
   9  -1  -4   60.94    1.69 
  10  -1   4    1.16    0.38 
  10   1  -4    1.11    0.20 
  10   1   4    0.16    0.33 
  10  -1  -4    0.53    0.24 
   0  -2  -4    9.64    0.37 
   0  -2   4   11.36    0.36 
   0   2   4   11.07    0.36 
   0   2   4   10.97    0.37 
   0   2  -4   10.53    0.36 
   0   2   4   10.75    0.38 
   0   2  -4   10.26    0.35 
   1   2  -4  146.17    3.48 
  -1   2   4  142.40    3.50 
  -1  -2  -4  131.91    3.58 
   1  -2   4  146.68    3.59 
  -1   2   4  146.66    3.57 
  -1   2   4  143.22    3.58 
  -1   2   4  144.93    3.56 
   1  -2   4  142.64    3.52 
   1   2  -4  139.39    3.55 
   1   2   4  157.03    4.02 
  -1  -2   4  162.00    3.96 
  -1   2  -4  164.33    4.02 
   1  -2  -4  161.58    4.00 
   1   2   4  157.10    4.01 
  -1   2  -4  160.15    3.94 
  -1  -2   4  159.65    3.88 
   2  -2   4   24.45    0.75 
   2  -2   4   24.95    0.74 
   2   2  -4   23.96    0.67 
  -2   2   4   25.33    0.69 
  -2   2   4   24.46    0.69 
  -2   2   4   25.35    0.69 
   2   2  -4   26.07    0.65 
  -2   2   4   24.74    0.72 
  -2  -2  -4   25.39    0.74 
  -2   2   4   24.64    0.69 
   2   2  -4   24.80    0.65 
   2   2   4   28.54    0.83 
   2   2   4   29.36    0.81 
   2  -2  -4   26.40    0.77 
   2  -2  -4   28.58    0.77 
  -2   2  -4   29.01    0.82 
   2   2   4   28.47    0.81 
  -2   2  -4   25.99    0.81 
   2  -2  -4   27.64    0.79 
   3  -2   4  269.29    6.80 
   3   2  -4  263.92    6.65 
  -3   2   4  281.32    6.68 
  -3  -2  -4  267.03    6.76 
  -3   2   4  277.34    6.72 
   3  -2   4  274.33    6.66 
  -3   2   4  275.37    6.56 
  -3   2   4  271.06    6.68 
  -3   2  -4  281.58    7.24 
   3  -2  -4  289.61    7.20 
   3   2   4  298.87    7.26 
   3   2   4  293.59    7.25 
   3   2   4  295.71    7.10 
   3  -2  -4  292.53    7.20 
   3  -2  -4  290.80    7.05 
   4  -2   4   15.89    0.60 
   4  -2   4   16.98    0.61 
   4   2   4   13.85    0.54 
   4   2   4   14.00    0.52 
  -4   2  -4   13.29    0.49 
   4  -2  -4   13.70    0.46 
   4  -2  -4   13.88    0.46 
   4   2   4   14.36    0.51 
   4  -2  -4   14.25    0.47 
   5  -2   4  236.14    5.82 
   5  -2   4  232.38    5.92 
  -5   2   4  233.96    5.78 
   5   2   4  212.63    5.44 
   5  -2  -4  220.29    5.37 
  -5   2  -4  214.93    5.43 
  -5   2  -4  212.15    5.38 
   5   2   4  218.28    5.43 
   5   2   4  216.91    5.32 
   5  -2  -4  211.64    5.26 
   5  -2  -4  213.56    5.36 
   6  -2   4   16.99    0.68 
   6  -2   4   15.70    0.68 
   6  -2  -4   11.88    0.47 
   6   2   4   11.95    0.52 
   6  -2  -4   12.16    0.49 
  -6   2  -4   11.89    0.53 
   6   2   4   11.71    0.54 
   7  -2   4   43.78    1.37 
   7  -2   4   43.29    1.37 
   7  -2  -4   37.02    1.09 
   7   2   4   36.01    1.15 
   7   2   4   36.72    1.16 
   7  -2  -4   37.31    1.09 
   8  -2   4   11.40    0.67 
   8  -2   4   10.99    0.66 
   8   2   4    9.34    0.58 
   8  -2  -4    8.49    0.50 
   9  -2   4    3.52    0.45 
   9  -2  -4    4.68    0.38 
   9   2   4    3.84    0.43 
  10  -2   4    5.33    0.55 
  10  -2  -4    7.21    0.53 
  10   2   4    7.60    0.58 
   0  -3  -4  261.37    6.48 
   0   3  -4  257.20    6.49 
   0   3   4  258.17    6.49 
   0   3  -4  260.07    6.35 
   0  -3   4  271.70    6.48 
   1   3  -4  418.35    9.87 
   1   3  -4  397.99   10.05 
   1  -3   4  391.56   10.03 
   1  -3   4  403.10    9.82 
  -1  -3  -4  408.97   10.00 
  -1   3   4  406.67    9.80 
  -1   3   4  407.24   10.00 
  -1   3   4  417.48   10.01 
  -1  -3   4  375.24    9.08 
  -1  -3   4  367.33    9.33 
  -1   3  -4  377.01    9.28 
   1   3   4  386.57    9.27 
   1  -3  -4  375.03    9.24 
  -1   3  -4  363.05    9.08 
   1  -3  -4  384.75    9.25 
  -2  -3  -4  108.67    2.72 
  -2   3   4  104.26    2.65 
   2   3  -4  106.46    2.60 
   2  -3   4  107.69    2.69 
  -2   3   4  105.87    2.71 
   2   3  -4  109.12    2.64 
  -2   3   4   98.59    2.69 
   2  -3   4  107.38    2.74 
   2  -3  -4  101.85    2.60 
  -2   3  -4  102.44    2.65 
   2  -3  -4  105.25    2.57 
  -2   3  -4  105.57    2.61 
   2   3   4  104.18    2.59 
   2   3   4  103.39    2.65 
   2  -3  -4   94.66    2.62 
  -3   3   4   53.35    1.44 
   3  -3   4   53.03    1.52 
  -3   3   4   57.45    1.49 
   3   3  -4   56.70    1.40 
  -3   3   4   54.89    1.45 
   3  -3   4   54.63    1.51 
   3   3  -4   56.64    1.37 
   3  -3  -4   37.49    1.08 
   3  -3  -4   39.98    1.10 
  -3   3  -4   38.06    1.12 
   3   3   4   39.60    1.14 
   3   3   4   41.89    1.12 
   3   3   4   40.20    1.11 
  -3   3  -4   38.50    1.14 
   3  -3  -4   39.60    1.08 
   4  -3   4   30.17    0.95 
  -4   3   4   30.91    0.89 
   4  -3   4   29.97    0.95 
  -4   3   4   30.73    0.83 
  -4   3  -4   30.91    0.94 
   4  -3  -4   30.87    0.92 
   4   3   4   32.36    0.94 
   4  -3  -4   30.58    0.91 
   4   3   4   31.89    0.98 
   4  -3  -4   31.66    0.91 
   4   3   4   32.35    0.94 
  -4   3  -4   32.15    0.97 
   5  -3   4    8.66    0.47 
   5  -3   4    9.06    0.48 
   5   3   4   16.83    0.65 
  -5   3  -4   16.68    0.65 
   5  -3  -4   16.73    0.59 
  -5   3  -4   17.24    0.59 
   5   3   4   16.97    0.62 
   5  -3  -4   16.62    0.60 
   5   3   4   16.98    0.61 
   5  -3  -4   16.79    0.59 
   6  -3   4   25.24    0.91 
  -6   3   4   25.65    0.76 
   6  -3   4   26.62    0.93 
  -6   3  -4   21.77    0.79 
   6   3   4   21.19    0.76 
   6  -3  -4   20.63    0.72 
   6  -3  -4   22.37    0.74 
  -6   3  -4   21.27    0.69 
   6  -3  -4   22.90    0.74 
   6   3   4   21.66    0.80 
   6   3   4   22.41    0.77 
   7  -3   4   73.67    2.11 
   7  -3   4   72.60    2.09 
   7   3   4   81.58    2.29 
   7  -3  -4   86.44    2.26 
   7  -3  -4   81.54    2.22 
   7   3   4   84.76    2.28 
   8  -3   4   19.51    0.88 
   8  -3   4   18.02    0.85 
   8  -3  -4   18.85    0.75 
   8   3   4   19.25    0.80 
   9  -3   4   50.95    1.66 
   9   3   4   52.30    1.58 
   9  -3  -4   49.81    1.51 
  10  -3   4   12.27    0.84 
  10   3   4   11.82    0.75 
  10  -3  -4   12.46    0.68 
   0   4  -4  156.02    3.90 
   0   4  -4  160.78    3.84 
   0   4   4  149.71    3.88 
   0   4   4  150.70    3.92 
   0   4   4  148.84    3.83 
   0  -4   4  160.86    3.90 
   0  -4  -4  154.40    3.91 
   0   4  -4  157.29    3.89 
   1  -4   4   51.39    1.38 
   1  -4   4   52.61    1.40 
  -1   4   4   51.47    1.38 
  -1  -4  -4   47.10    1.38 
  -1   4   4   52.04    1.41 
   1   4  -4   52.45    1.36 
   1   4  -4   50.63    1.35 
  -1   4   4   51.08    1.37 
   1   4  -4   51.18    1.34 
  -1   4  -4   47.92    1.31 
   1  -4  -4   47.99    1.27 
  -1  -4   4   48.75    1.25 
   1  -4  -4   46.79    1.30 
   1   4   4   45.74    1.31 
   1  -4  -4   45.10    1.27 
  -1  -4   4   48.82    1.24 
  -1   4  -4   46.56    1.29 
  -2   4   4  102.96    2.62 
  -2  -4  -4  103.66    2.66 
   2   4  -4  104.32    2.59 
  -2   4   4  102.78    2.66 
   2  -4   4  103.57    2.69 
   2  -4   4  102.40    2.65 
  -2   4   4  103.75    2.67 
   2   4  -4  102.63    2.60 
   2   4  -4  102.03    2.55 
  -2   4  -4  116.33    2.97 
   2   4   4  118.48    3.03 
  -2   4  -4  117.52    3.03 
   2  -4  -4  117.09    2.98 
  -2   4  -4  114.70    3.02 
  -2  -4   4  122.89    2.85 
   2  -4  -4  117.26    3.00 
   2  -4  -4  112.89    2.94 
  -3   4   4  287.34    7.06 
   3   4  -4  292.44    6.96 
   3   4  -4  287.18    6.96 
  -3   4   4  266.22    7.04 
   3   4  -4  287.54    6.83 
   3  -4   4  286.27    6.97 
   3  -4   4  277.25    7.11 
   3  -4  -4  265.64    6.48 
  -3   4  -4  261.64    6.64 
   3   4   4  256.75    6.49 
  -3   4  -4  267.47    6.64 
   3   4   4  271.54    6.64 
   3  -4  -4  262.47    6.60 
   3  -4  -4  270.81    6.61 
  -4   4   4  126.41    3.19 
   4   4  -4  123.56    3.06 
   4  -4   4  120.89    3.19 
  -4   4   4  121.25    3.12 
   4  -4   4  125.39    3.25 
   4   4  -4  124.92    3.00 
   4   4   4  135.96    3.46 
   4  -4  -4  141.61    3.46 
   4   4   4  136.92    3.49 
   4  -4  -4  134.06    3.40 
  -4   4  -4  133.57    3.51 
   4  -4  -4  132.95    3.46 
  -4   4  -4  131.03    3.48 
   4   4   4  133.97    3.41 
   5  -4   4  159.20    4.13 
   5  -4   4  155.59    4.06 
  -5   4   4  161.64    4.04 
   5   4   4  140.48    3.62 
  -5   4  -4  146.62    3.74 
   5   4   4  149.58    3.70 
   5  -4  -4  138.45    3.67 
   5  -4  -4  145.41    3.67 
  -5   4  -4  137.52    3.68 
   5   4   4  145.74    3.72 
   5  -4  -4  141.82    3.61 
   6  -4   4   32.43    1.03 
  -6   4   4   23.09    0.83 
   6  -4   4   30.36    1.01 
   6  -4  -4   30.69    0.99 
  -6   4  -4   31.41    0.97 
   6  -4  -4   31.40    0.99 
   6  -4  -4   32.01    1.01 
  -6   4  -4   32.50    1.05 
   6   4   4   32.52    1.02 
   6   4   4   31.86    1.01 
   6   4   4   31.20    1.05 
   7  -4   4   26.32    1.03 
   7  -4   4   28.25    1.03 
   7  -4  -4   27.08    0.92 
   7   4   4   25.99    0.92 
   7  -4  -4   27.02    0.93 
   7   4   4   25.94    0.92 
   8  -4   4    5.97    0.54 
   8  -4   4    5.73    0.51 
   8  -4  -4    5.65    0.44 
   8   4   4    5.39    0.45 
   9  -4   4    8.94    0.73 
   9   4   4    8.54    0.63 
   9  -4  -4   10.66    0.63 
  10  -4   4    5.75    0.60 
  10   4   4    6.46    0.54 
  10  -4  -4    6.89    0.53 
   0  -5   4  233.11    5.46 
   0  -5  -4  204.93    5.46 
   0   5  -4  225.24    5.47 
   0   5  -4  213.28    5.45 
   0   5   4  218.21    5.45 
   0   5   4  221.99    5.48 
   0  -5   4  195.35    5.33 
   0   5   4  224.49    5.36 
   0   5  -4  224.72    5.37 
  -1   5   4  242.04    6.13 
   1   5  -4  250.25    6.09 
  -1  -5  -4  241.54    6.11 
  -1   5   4  238.46    6.00 
   1  -5   4  246.19    6.00 
   1   5  -4  242.09    6.08 
  -1   5   4  256.08    6.12 
   1  -5   4  239.57    6.12 
   1   5  -4  243.44    5.97 
  -1  -5   4  265.58    6.39 
  -1  -5   4  270.99    6.51 
   1  -5  -4  254.28    6.43 
  -1   5  -4  267.90    6.46 
  -1   5  -4  258.40    6.58 
  -1   5  -4  255.04    6.55 
   1   5   4  271.42    6.58 
   1  -5  -4  260.26    6.55 
   1  -5  -4  260.76    6.54 
   2  -5   4   95.66    2.52 
   2   5  -4   95.36    2.43 
   2   5  -4   96.66    2.44 
  -2   5   4   94.62    2.49 
   2  -5   4   94.61    2.48 
  -2   5   4   93.19    2.51 
   2   5  -4   95.50    2.39 
  -2   5  -4   75.17    2.12 
  -2   5  -4   79.26    2.10 
   2  -5  -4   78.88    2.08 
   2   5   4   78.63    2.12 
   2  -5  -4   81.14    2.11 
  -2  -5   4   82.06    1.98 
   2  -5  -4   77.45    2.06 
   3  -5   4   77.99    2.17 
  -3   5   4   83.95    2.14 
   3   5  -4   77.98    2.00 
   3   5  -4   78.07    2.02 
   3   5  -4   81.62    2.04 
  -3   5   4   76.86    2.11 
   3  -5   4   81.01    2.14 
   3  -5  -4   76.44    2.00 
   3   5   4   74.99    2.04 
   3  -5  -4   73.05    2.02 
  -3   5  -4   76.36    2.06 
   3  -5  -4   75.53    1.99 
   4   5  -4   13.94    0.43 
   4   5  -4   13.24    0.40 
  -4   5   4   13.22    0.54 
   4   5  -4   13.69    0.42 
  -4   5   4   13.66    0.50 
   4  -5   4   12.81    0.60 
   4  -5   4   14.39    0.60 
   4   5   4   11.19    0.50 
   4  -5  -4   11.55    0.49 
  -4   5  -4   10.99    0.52 
   4  -5  -4   11.32    0.49 
   4   5   4   11.93    0.52 
   4  -5  -4   11.37    0.50 
  -5   5   4   49.54    1.43 
   5  -5   4   50.06    1.51 
   5   5  -4   51.87    1.27 
  -5   5   4   50.10    1.33 
  -5   5   4   49.84    1.34 
   5  -5   4   47.28    1.49 
   5  -5  -4   50.54    1.47 
   5   5   4   51.56    1.46 
  -5   5  -4   51.26    1.53 
   5  -5  -4   51.23    1.47 
   5   5   4   51.90    1.47 
   5   5   4   51.59    1.51 
   5  -5  -4   50.79    1.48 
   6  -5   4   52.71    1.56 
  -6   5   4   50.59    1.46 
   6  -5   4   48.90    1.57 
   6   5   4   51.33    1.50 
   6   5   4   50.27    1.53 
   6   5   4   51.44    1.49 
   6  -5  -4   51.05    1.50 
   6  -5  -4   51.49    1.50 
  -6   5  -4   52.43    1.56 
   7  -5   4   53.23    1.65 
   7  -5   4   52.56    1.67 
   7  -5  -4   41.78    1.32 
   7   5   4   42.30    1.31 
   7  -5  -4   42.11    1.31 
   7   5   4   41.81    1.32 
   7   5   4   43.16    1.34 
   8  -5   4   66.49    2.08 
   8  -5   4   72.87    2.14 
   8   5   4   62.61    1.80 
   8  -5  -4   59.35    1.78 
   9  -5   4   27.93    1.18 
   9   5   4   27.02    1.04 
   9  -5  -4   27.71    1.05 
  10  -5   4   28.74    1.25 
  10  -5  -4   25.05    1.05 
  10   5   4   25.97    1.04 
   0   6  -4    0.31    0.14 
   0   6  -4    0.54    0.15 
   0  -6   4    0.50    0.15 
   0  -6   4    0.33    0.14 
   0   6   4    0.34    0.14 
   0   6   4    1.22    0.18 
  -1   6   4   37.47    1.08 
   1   6  -4   34.47    1.05 
   1  -6   4   34.35    1.04 
   1  -6   4   34.51    1.04 
  -1   6   4   33.41    1.03 
   1   6  -4   35.34    1.01 
   1   6  -4   35.16    1.02 
   1  -6  -4   33.29    0.98 
  -1   6  -4   30.51    0.99 
  -1  -6   4   32.71    0.93 
   1   6   4   34.38    1.02 
   1   6   4   32.36    0.96 
   1  -6  -4   31.88    0.95 
  -1   6  -4   32.32    0.99 
  -1  -6   4   33.28    0.93 
   1  -6  -4   30.79    0.97 
   2   6  -4  211.58    5.25 
   2  -6   4  206.24    5.32 
   2  -6   4  216.40    5.24 
  -2   6   4  210.08    5.38 
   2   6  -4  206.80    5.14 
   2   6  -4  206.15    5.24 
  -2   6   4  210.77    5.32 
   2  -6  -4  190.71    4.74 
  -2   6  -4  182.66    4.84 
  -2  -6   4  195.00    4.65 
   2   6   4  184.52    4.84 
   2  -6  -4  194.52    4.80 
  -2   6  -4  193.33    4.77 
   2  -6  -4  189.61    4.83 
   3  -6   4   70.80    1.90 
   3   6  -4   68.12    1.80 
  -3   6   4   68.66    1.90 
  -3   6   4   66.72    1.88 
   3  -6   4   66.19    1.91 
   3   6  -4   69.03    1.78 
   3   6  -4   70.07    1.78 
   3  -6  -4   82.44    2.18 
  -3   6  -4   83.01    2.24 
   3   6   4   82.40    2.23 
   3  -6  -4   81.34    2.22 
   3  -6  -4   80.57    2.19 
   4   6  -4  274.81    6.61 
   4   6  -4  285.99    6.74 
   4   6  -4  258.23    6.73 
  -4   6   4  271.31    6.86 
   4  -6   4  269.04    6.91 
  -4   6   4  270.66    6.85 
   4  -6   4  277.78    6.79 
   4  -6  -4  235.82    6.19 
   4  -6  -4  250.55    6.09 
   4  -6  -4  251.10    6.19 
   4   6   4  246.36    6.22 
  -4   6  -4  242.43    6.23 
   5  -6   4   59.57    1.77 
  -5   6   4   58.62    1.64 
   5   6  -4   60.02    1.54 
   5   6  -4   59.45    1.56 
   5  -6   4   63.03    1.77 
   5   6  -4   59.63    1.54 
  -5   6   4   59.51    1.71 
   5  -6  -4   65.10    1.86 
   5  -6  -4   67.65    1.85 
   5   6   4   65.93    1.84 
   5   6   4   64.59    1.83 
   5  -6  -4   65.28    1.84 
  -5   6  -4   65.20    1.90 
   5   6   4   66.84    1.88 
  -6   6   4  143.51    3.71 
   6  -6   4  139.29    3.79 
   6  -6   4  144.85    3.75 
  -6   6   4  139.43    3.55 
   6   6  -4  142.69    3.48 
   6   6   4  137.48    3.55 
   6   6   4  136.13    3.63 
   6   6   4  133.78    3.59 
   6  -6  -4  136.91    3.56 
  -6   6  -4  139.01    3.66 
   6  -6  -4  138.32    3.60 
   7  -6   4   33.15    1.22 
   7  -6   4   32.41    1.20 
   7   6   4   33.55    1.12 
   7   6   4   33.05    1.13 
   7  -6  -4   31.07    1.12 
   7  -6  -4   32.24    1.12 
   7   6   4   34.15    1.10 
   8  -6   4    4.49    0.51 
   8  -6   4    3.77    0.49 
   8   6   4    5.64    0.46 
   8  -6  -4    5.90    0.51 
   9  -6   4   10.46    0.85 
   9  -6   4   10.16    0.81 
   9  -6  -4   10.57    0.73 
   9   6   4   10.59    0.68 
  10  -6   4   17.35    1.03 
  10   6   4   14.99    0.82 
  10  -6  -4   15.87    0.89 
   0   7  -4  569.12   13.89 
   0  -7   4  563.19   13.61 
   0  -7   4  575.65   13.90 
   0   7   4  544.22   13.63 
   0   7  -4  567.80   13.63 
   0   7   4  558.63   13.92 
   1  -7   4    9.50    0.45 
   1   7  -4    8.82    0.42 
  -1   7   4    9.75    0.48 
   1  -7   4    9.95    0.47 
   1   7  -4    9.49    0.44 
  -1   7   4    9.65    0.46 
   1  -7  -4   13.30    0.56 
   1  -7  -4   13.06    0.54 
   1   7   4   14.55    0.55 
   1   7   4   14.91    0.60 
  -1   7  -4   14.20    0.58 
  -1   7  -4   14.59    0.58 
  -1  -7   4   14.65    0.52 
  -1  -7   4   14.29    0.51 
   2  -7   4  220.40    5.69 
   2   7  -4  216.26    5.62 
   2   7  -4  226.32    5.52 
   2  -7   4  234.72    5.60 
  -2   7   4  223.55    5.70 
  -2   7  -4  213.33    5.55 
  -2   7  -4  213.91    5.47 
   2   7   4  218.56    5.56 
   2  -7  -4  214.58    5.51 
   2  -7  -4  223.36    5.44 
  -2  -7   4  227.60    5.36 
   2   7   4  216.99    5.41 
   3   7  -4   33.87    1.00 
   3  -7   4   33.49    1.10 
   3  -7   4   34.46    1.11 
  -3   7   4   34.72    1.09 
   3   7  -4   33.59    0.98 
  -3   7  -4   42.18    1.32 
   3  -7  -4   42.39    1.27 
   3   7   4   43.88    1.32 
   3  -7  -4   44.23    1.30 
   4   7  -4    9.16    0.39 
   4   7  -4    8.68    0.39 
   4  -7   4    8.50    0.53 
  -4   7   4    9.48    0.49 
   4  -7   4    8.96    0.55 
   4  -7  -4    6.65    0.47 
  -4   7  -4    6.93    0.47 
   4  -7  -4    6.75    0.45 
   4   7   4    7.53    0.46 
  -5   7   4   17.22    0.65 
  -5   7   4   16.98    0.70 
   5  -7   4   15.92    0.76 
   5   7  -4   16.93    0.57 
   5  -7   4   16.95    0.77 
   5   7  -4   16.60    0.56 
   5  -7  -4   17.14    0.71 
   5   7   4   15.76    0.69 
   5  -7  -4   16.18    0.71 
   5   7   4   17.04    0.72 
  -5   7  -4   16.51    0.74 
  -6   7   4   57.36    1.71 
   6  -7   4   59.75    1.81 
   6   7  -4   57.64    1.52 
   6  -7   4   57.55    1.79 
  -6   7  -4   58.27    1.76 
   6   7   4   58.08    1.68 
   6   7   4   57.58    1.74 
   6  -7  -4   57.10    1.70 
   6  -7  -4   57.49    1.71 
   6   7   4   56.36    1.69 
   7  -7   4   11.35    0.76 
   7  -7   4   11.71    0.75 
   7   7  -4   11.89    0.44 
   7   7   4   12.93    0.69 
   7   7   4   13.78    0.69 
   7  -7  -4   13.48    0.73 
   7   7   4   13.79    0.67 
   7  -7  -4   13.52    0.71 
   8  -7   4  100.05    2.88 
   8  -7   4  101.70    2.93 
   8   7   4  106.16    2.90 
   8  -7  -4  106.11    2.93 
   8   7   4  105.73    2.93 
   8  -7  -4  107.22    2.95 
   9  -7   4   10.19    0.79 
   9  -7   4   11.16    0.87 
   9  -7  -4   10.97    0.78 
   9   7   4   12.55    0.74 
  10  -7   4   32.69    1.42 
  10  -7  -4   33.44    1.31 
  10   7   4   32.45    1.23 
   0   8   4    3.53    0.34 
   0   8  -4    3.15    0.29 
   0   8   4    3.37    0.30 
   0  -8   4    3.32    0.29 
   0  -8   4    3.11    0.28 
   0   8  -4    2.92    0.29 
   1  -8   4   98.50    2.58 
  -1   8   4   97.76    2.60 
  -1   8   4  101.29    2.65 
   1  -8   4   94.65    2.60 
   1   8  -4   96.15    2.55 
   1   8  -4   94.72    2.58 
  -1   8  -4   89.56    2.47 
  -1  -8   4   92.62    2.39 
   1   8   4   92.56    2.49 
   1  -8  -4   90.87    2.43 
  -1   8  -4   89.70    2.45 
   1   8   4   91.68    2.41 
   1  -8  -4   88.66    2.42 
  -1  -8   4   91.72    2.38 
   2  -8   4  171.15    4.46 
   2   8  -4  178.11    4.48 
  -2   8   4  179.78    4.55 
   2   8  -4  173.23    4.39 
   2  -8   4  174.46    4.53 
   2   8   4  149.09    3.81 
  -2   8  -4  152.94    3.93 
   2   8   4  145.46    3.92 
   2  -8  -4  146.53    3.84 
  -2  -8   4  157.86    3.77 
   2  -8  -4  147.70    3.87 
   3   8  -4   31.50    0.98 
   3  -8   4   31.69    1.07 
   3   8  -4   30.92    0.96 
   3  -8   4   34.26    1.09 
  -3   8   4   30.80    1.06 
   3  -8  -4   23.33    0.84 
   3   8   4   24.73    0.89 
  -3   8  -4   24.59    0.90 
   3   8   4   24.94    0.82 
   3  -8  -4   24.54    0.88 
   4   8  -4  256.51    6.37 
   4   8  -4  254.78    6.25 
   4  -8   4  254.14    6.52 
  -4   8   4  259.53    6.49 
   4  -8   4  247.52    6.39 
  -4   8  -4  248.06    6.40 
   4  -8  -4  253.80    6.35 
   4   8   4  248.24    6.38 
   4  -8  -4  248.93    6.26 
   5   8  -4    0.44    0.17 
   5  -8   4    0.22    0.27 
   5   8  -4    0.44    0.16 
  -5   8   4    0.28    0.22 
   5  -8   4    0.65    0.29 
   5   8   4    1.66    0.31 
  -5   8  -4    1.78    0.33 
   5  -8  -4    1.61    0.32 
   5  -8  -4    1.54    0.30 
  -6   8   4   92.89    2.61 
   6   8  -4   94.64    2.42 
   6  -8   4   93.30    2.64 
   6   8  -4   94.25    2.39 
   6  -8   4   90.37    2.67 
   6   8   4  100.52    2.77 
   6  -8  -4  103.10    2.80 
  -6   8  -4  104.07    2.88 
   6   8   4  100.40    2.83 
   6  -8  -4  102.05    2.81 
   7   8  -4    4.91    0.33 
   7  -8   4    3.91    0.49 
   7  -8   4    5.74    0.56 
   7   8   4    5.72    0.51 
   7   8   4    5.67    0.47 
   7  -8  -4    6.84    0.55 
   7   8   4    6.89    0.54 
   7  -8  -4    5.69    0.50 
   8  -8   4    2.16    0.48 
   8   8  -4    2.07    0.24 
   8   8  -4    2.34    0.23 
   8  -8   4    2.13    0.46 
   8   8   4    2.49    0.40 
   8  -8  -4    2.97    0.45 
   8   8   4    3.20    0.42 
   8  -8  -4    2.49    0.45 
   9  -8   4    4.44    0.61 
   9  -8   4    4.66    0.61 
   9  -8  -4    5.59    0.58 
   9   8   4    4.92    0.52 
  10  -8   4   20.61    1.19 
   0   9   4  304.23    7.73 
   0  -9   4  296.28    7.52 
   0   9  -4  304.72    7.56 
   0   9   4  304.80    7.55 
   0   9  -4  312.79    7.70 
   0  -9   4  308.18    7.66 
   1   9  -4   15.64    0.64 
   1  -9   4   16.15    0.66 
  -1   9   4   15.83    0.69 
   1   9  -4   14.14    0.64 
   1  -9   4   16.88    0.67 
  -1  -9   4   15.23    0.61 
   1  -9  -4   15.95    0.68 
   1   9   4   15.60    0.65 
   1  -9  -4   16.51    0.64 
  -1  -9   4   15.74    0.59 
  -1   9  -4   14.80    0.65 
  -1   9  -4   15.55    0.67 
   1   9   4   15.35    0.68 
   2  -9   4  182.57    4.95 
  -2   9   4  192.70    4.98 
   2  -9   4  201.51    4.90 
   2   9  -4  193.24    4.82 
   2   9  -4  190.35    4.91 
   2  -9  -4  191.73    5.27 
   2   9   4  207.85    5.34 
  -2  -9   4  213.96    5.15 
  -2   9  -4  211.45    5.35 
   2  -9  -4  206.72    5.23 
   2   9   4  209.87    5.20 
   3   9  -4   37.87    1.15 
   3  -9   4   36.94    1.23 
   3  -9   4   36.99    1.24 
  -3   9   4   37.85    1.24 
   3   9  -4   37.08    1.13 
   3  -9  -4   39.77    1.26 
   3   9   4   41.59    1.32 
   3  -9  -4   39.31    1.28 
  -3   9  -4   38.95    1.30 
   3   9   4   41.09    1.23 
   4  -9   4   16.70    0.78 
   4  -9   4   16.54    0.78 
   4   9  -4   17.32    0.66 
  -4   9   4   17.38    0.76 
   4   9  -4   17.01    0.64 
   4   9   4   18.57    0.82 
   4  -9  -4   19.95    0.81 
   4   9   4   19.99    0.74 
   4  -9  -4   18.73    0.82 
  -4   9  -4   19.25    0.84 
   5  -9   4   27.83    1.08 
   5   9  -4   28.82    0.89 
   5   9  -4   27.50    0.91 
  -5   9   4   27.66    1.03 
   5  -9   4   26.44    1.07 
   5   9   4   24.18    0.96 
  -5   9  -4   24.33    1.00 
   5  -9  -4   24.28    0.94 
   5  -9  -4   24.92    0.98 
  -6   9   4   50.35    1.62 
   6   9  -4   50.00    1.44 
   6  -9   4   49.19    1.66 
   6   9  -4   52.29    1.43 
   6  -9   4   52.84    1.69 
   6  -9  -4   37.64    1.33 
   6   9   4   37.42    1.29 
   6   9   4   37.86    1.33 
  -6   9  -4   36.63    1.34 
   6  -9  -4   40.41    1.32 
   7  -9   4    6.05    0.59 
   7   9  -4    6.44    0.40 
   7  -9   4    6.27    0.60 
   7  -9  -4    4.94    0.51 
   7   9   4    4.35    0.47 
   7  -9  -4    4.64    0.51 
   7   9   4    5.16    0.50 
   8  -9   4   79.99    2.47 
   8  -9   4   80.04    2.46 
   8   9  -4   78.38    2.11 
   8   9  -4   79.64    2.08 
   8   9   4   66.59    2.08 
   8   9   4   70.62    2.09 
   8  -9  -4   70.70    2.12 
   8  -9  -4   68.18    2.14 
   9  -9   4    0.77    0.47 
   9  -9   4    0.68    0.48 
   9  -9  -4    0.07    0.40 
   9   9   4    0.25    0.35 
   0  10  -4    1.87    0.28 
   0  10   4    2.79    0.36 
   0  10  -4    1.91    0.30 
   0 -10   4    1.87    0.26 
   0 -10   4    2.30    0.29 
   0  10   4    2.42    0.32 
   1  10  -4    7.56    0.47 
   1 -10   4    7.48    0.49 
  -1  10   4    7.97    0.50 
   1 -10   4    8.29    0.51 
   1  10  -4    7.83    0.48 
  -1 -10   4    3.25    0.31 
  -1  10  -4    3.89    0.39 
  -1 -10   4    3.72    0.31 
  -1  10  -4    3.20    0.36 
   1  10   4    3.41    0.33 
   1 -10  -4    3.36    0.34 
   1  10   4    3.74    0.39 
   1 -10  -4    3.65    0.38 
   2 -10   4   84.38    2.38 
   2  10  -4   85.76    2.35 
   2 -10   4   82.51    2.36 
   2  10  -4   84.80    2.30 
  -2  10   4   86.46    2.42 
   2  10   4   83.63    2.35 
  -2 -10   4   87.51    2.30 
  -2  10  -4   85.08    2.44 
   2 -10  -4   85.43    2.37 
   2  10   4   88.95    2.45 
   2 -10  -4   85.02    2.39 
   3 -10   4   15.28    0.74 
   3  10  -4   13.51    0.61 
   3  10  -4   14.15    0.61 
   3 -10   4   13.07    0.70 
  -3  10   4   13.86    0.69 
   3  10   4    7.89    0.55 
   3  10   4    7.71    0.48 
   3 -10  -4    8.53    0.58 
   3 -10  -4    7.57    0.53 
  -3  10  -4    6.73    0.51 
   4 -10   4  220.46    5.85 
   4  10  -4  228.43    5.63 
   4  10  -4  225.79    5.74 
  -4  10   4  226.96    5.86 
   4 -10   4  225.14    5.79 
   4 -10  -4  220.17    5.77 
  -4  10  -4  229.94    5.92 
   4  10   4  221.57    5.71 
   4 -10  -4  230.14    5.84 
   4  10   4  232.54    5.90 
   5  10  -4    8.69    0.49 
   5 -10   4    8.89    0.70 
   5 -10   4    7.00    0.57 
   5  10  -4    8.48    0.50 
  -5  10   4    8.57    0.60 
  -5  10  -4    7.68    0.64 
   5 -10  -4    8.18    0.66 
   5  10   4    8.40    0.62 
   5 -10  -4    8.74    0.64 
   6 -10   4   66.25    2.09 
   6 -10   4   67.85    2.08 
   6  10  -4   63.47    1.86 
   6  10  -4   66.12    1.83 
  -6  10   4   68.08    2.04 
  -6  10  -4   72.94    2.26 
   6 -10  -4   76.07    2.20 
   6 -10  -4   71.34    2.21 
   6  10   4   76.82    2.19 
   6  10   4   73.20    2.23 
   7 -10   4    9.43    0.72 
   7 -10   4    9.65    0.75 
   7 -10  -4   11.06    0.80 
   7  10   4   10.88    0.71 
   7  10   4   10.37    0.73 
   7 -10  -4   11.59    0.77 
   8 -10   4    3.02    0.55 
   8 -10   4    2.82    0.55 
   8 -10  -4    4.24    0.54 
   8  10   4    4.59    0.52 
   8 -10  -4    4.27    0.56 
   8  10   4    4.19    0.50 
   9 -10   4    5.25    0.68 
   9 -10   4    6.56    0.72 
   9  10  -4    5.32    0.41 
   9 -10  -4    5.30    0.63 
   9  10   4    3.84    0.52 
   0  11  -4  215.70    5.55 
   0 -11   4  218.01    5.51 
   0  11  -4  221.83    5.65 
   0  11   4  218.45    5.69 
   0  11   4  214.00    5.56 
   0 -11   4  219.84    5.58 
  -1  11   4   21.52    0.89 
   1 -11   4   20.85    0.84 
   1  11  -4   20.14    0.82 
   1  11  -4   20.67    0.84 
   1 -11   4   20.92    0.83 
   1 -11  -4   25.17    0.92 
   1  11   4   24.89    0.99 
  -1 -11   4   26.95    0.91 
   1  11   4   24.41    0.93 
  -1 -11   4   25.95    0.89 
   1 -11  -4   25.29    0.96 
  -1  11  -4   25.64    0.98 
   2 -11   4   69.49    2.01 
   2 -11   4   65.07    1.99 
  -2  11   4   66.54    2.04 
   2  11  -4   70.30    1.96 
   2  11  -4   69.52    1.98 
  -2  11  -4   75.55    2.24 
   2  11   4   76.23    2.15 
   2 -11  -4   75.27    2.19 
  -2 -11   4   78.05    2.10 
   2 -11  -4   76.89    2.16 
   2  11   4   74.54    2.23 
   3 -11   4    5.25    0.47 
   3  11  -4    5.18    0.41 
  -3  11   4    5.16    0.47 
   3 -11   4    4.67    0.45 
   3  11  -4    5.96    0.46 
   3 -11  -4    5.33    0.48 
  -3  11  -4    6.51    0.54 
   3 -11  -4    6.49    0.50 
   3  11   4    5.92    0.51 
   4 -11   4    5.45    0.51 
   4  11  -4    5.12    0.41 
   4  11  -4    5.97    0.46 
   4 -11   4    5.39    0.52 
  -4  11   4    6.10    0.53 
   4  11   4    6.35    0.54 
   4 -11  -4    5.58    0.52 
  -4  11  -4    5.85    0.55 
   4 -11  -4    5.27    0.49 
   5  11  -4    4.75    0.41 
   5 -11   4    4.30    0.51 
  -5  11   4    3.95    0.46 
   5 -11   4    3.38    0.48 
   5 -11  -4    4.00    0.48 
  -5  11  -4    2.99    0.44 
   5 -11  -4    3.26    0.44 
   5  11   4    3.82    0.46 
   6 -11   4   19.02    1.00 
   6  11  -4   19.18    0.79 
   6 -11   4   20.44    1.02 
   6 -11  -4   19.25    0.99 
   6  11   4   21.70    0.96 
   6 -11  -4   21.38    0.99 
  -6  11  -4   20.33    0.99 
   6  11   4   19.48    0.97 
   7 -11   4   13.39    0.93 
   7  11  -4   11.77    0.61 
   7 -11   4   13.47    0.93 
   7  11   4   10.76    0.75 
   7  11   4   10.98    0.76 
   7 -11  -4   10.78    0.82 
   7 -11  -4   10.22    0.76 
   8 -11   4   47.79    1.78 
   8 -11   4   49.93    1.82 
   8  11   4   55.04    1.81 
   8  11   4   52.07    1.79 
   8 -11  -4   55.20    1.85 
   8 -11  -4   54.97    1.90 
   9 -11   4    9.76    0.86 
   9  11  -4    9.14    0.56 
   9 -11   4   10.84    0.87 
   9  11   4    8.92    0.75 
   9 -11  -4    8.03    0.75 
   0 -12   4   11.93    0.62 
   0  12  -4   12.13    0.68 
   0 -12   4   12.14    0.63 
   0  12   4   11.97    0.71 
   1 -12   4   13.45    0.72 
  -1  12   4   17.60    0.82 
   1  12  -4   15.11    0.75 
   1 -12   4   14.41    0.74 
  -1 -12   4   22.04    0.83 
  -1  12  -4   21.93    0.94 
   1 -12  -4   21.98    0.92 
   1 -12  -4   22.23    0.89 
  -1 -12   4   22.66    0.86 
   1  12   4   22.38    0.95 
   2 -12   4   50.93    1.66 
   2 -12   4   51.30    1.64 
  -2  12   4   53.93    1.72 
   2  12  -4   54.27    1.64 
   2  12   4   40.90    1.42 
   2 -12  -4   42.57    1.36 
   2 -12  -4   41.60    1.40 
  -2  12  -4   40.12    1.40 
   3  12  -4   44.92    1.43 
   3 -12   4   44.21    1.51 
  -3  12   4   42.79    1.50 
   3 -12   4   44.88    1.49 
   3  12   4   51.98    1.67 
  -3  12  -4   49.66    1.68 
   3 -12  -4   51.24    1.65 
   3 -12  -4   51.11    1.62 
   4 -12   4   66.35    2.04 
   4  12  -4   65.20    1.95 
  -4  12   4   65.52    2.05 
   4 -12   4   65.52    2.04 
   4 -12  -4   61.20    1.87 
   4 -12  -4   60.66    1.90 
   4  12   4   60.31    1.91 
  -4  12  -4   58.73    1.93 
   5 -12   4   21.49    1.05 
  -5  12   4   22.96    1.02 
   5  12  -4   24.56    0.93 
   5 -12   4   22.14    1.06 
   5 -12  -4   22.77    1.02 
   5 -12  -4   22.83    1.07 
  -5  12  -4   23.72    1.07 
   5  12   4   24.11    1.06 
   6 -12   4   43.95    1.60 
   6  12  -4   41.11    1.38 
   6 -12   4   43.09    1.58 
   6  12   4   42.46    1.55 
   6 -12  -4   40.89    1.50 
   6 -12  -4   44.14    1.58 
  -6  12  -4   44.42    1.60 
   7 -12   4    4.34    0.61 
   7  12  -4    3.29    0.41 
   7 -12   4    5.13    0.63 
   7 -12  -4    3.38    0.56 
   7 -12  -4    3.49    0.53 
   7  12   4    3.32    0.52 
   7  12   4    2.80    0.46 
   8 -12   4    2.83    0.59 
   8 -12   4    3.37    0.61 
   8  12   4    2.81    0.49 
   8  12   4    3.52    0.53 
   8 -12  -4    2.58    0.55 
   8 -12  -4    2.44    0.55 
   9 -12   4    6.53    0.78 
   9 -12   4    6.35    0.77 
   0  13   4   80.74    2.45 
   0 -13   4   80.86    2.31 
   0  13  -4   84.05    2.42 
   1 -13   4   28.41    1.10 
  -1  13   4   27.86    1.15 
   1  13  -4   29.71    1.12 
   1 -13   4   28.52    1.07 
   1 -13  -4   30.57    1.08 
   1  13   4   27.70    1.15 
  -1 -13   4   28.44    1.01 
  -1  13  -4   29.12    1.15 
   2 -13   4   54.04    1.72 
   2 -13   4   51.26    1.70 
  -2  13   4   53.52    1.77 
   2  13  -4   55.04    1.71 
   2 -13  -4   54.70    1.70 
   2 -13  -4   51.45    1.63 
  -2  13  -4   49.63    1.71 
   2  13   4   50.62    1.71 
   3 -13   4    5.23    0.51 
   3  13  -4    5.29    0.50 
   3 -13   4    5.47    0.53 
  -3  13   4    6.20    0.60 
   3 -13  -4    5.75    0.52 
  -3  13  -4    4.48    0.52 
   3  13   4    6.23    0.57 
   3 -13  -4    4.87    0.54 
   4  13  -4   10.46    0.65 
  -4  13   4   10.23    0.74 
   4 -13   4    9.68    0.77 
   4 -13   4   11.49    0.83 
   4 -13  -4   10.12    0.76 
  -4  13  -4    9.90    0.76 
   4 -13  -4   10.63    0.81 
   4  13   4   11.22    0.75 
   5  13  -4   16.51    0.80 
  -5  13   4   15.25    0.88 
   5 -13   4   15.20    0.94 
   5 -13   4   15.90    0.95 
   5  13   4   13.13    0.85 
   5 -13  -4   15.21    0.91 
   5 -13  -4   14.13    0.87 
  -5  13  -4   14.72    0.89 
   6  13  -4   16.48    0.83 
   6 -13   4   18.23    1.07 
   6 -13   4   19.06    1.09 
   6 -13  -4   18.67    1.06 
   6 -13  -4   19.06    1.02 
   6  13   4   19.09    1.01 
  -6  13  -4   17.60    1.01 
   7 -13   4   15.52    1.05 
   7 -13   4   16.79    1.10 
   7 -13  -4   19.19    1.06 
   7  13   4   18.55    1.02 
   7  13   4   17.32    1.02 
   7 -13  -4   16.21    1.07 
   8 -13   4   24.30    1.32 
   8 -13   4   25.25    1.36 
   8 -13  -4   21.05    1.20 
   8  13   4   19.38    1.06 
   8  13   4   21.09    1.11 
   8 -13  -4   20.05    1.11 
   0  14   4    6.72    0.62 
   0 -14   4    5.81    0.48 
   0  14  -4    7.31    0.62 
   1  14  -4    8.54    0.67 
  -1  14   4    8.67    0.71 
   1 -14   4    9.38    0.67 
  -1 -14   4    6.74    0.54 
   1  14   4    6.02    0.59 
  -1  14  -4    6.50    0.58 
   2 -14   4   25.56    1.14 
   2 -14   4   26.12    1.07 
   2  14  -4   27.41    1.08 
  -2  14   4   24.92    1.13 
  -2  14  -4   26.61    1.15 
   2 -14  -4   28.60    1.15 
   2 -14  -4   26.59    1.09 
   2  14   4   26.16    1.16 
   3 -14   4   42.10    1.49 
  -3  14   4   40.99    1.54 
   3 -14   4   41.45    1.50 
   3  14  -4   42.18    1.46 
   3 -14  -4   39.42    1.43 
   3 -14  -4   43.15    1.51 
  -3  14  -4   40.77    1.52 
   3  14   4   41.04    1.51 
  -4  14   4   49.25    1.75 
   4  14  -4   48.95    1.64 
   4 -14   4   50.40    1.71 
   4 -14   4   49.47    1.75 
   4 -14  -4   52.26    1.74 
   4 -14  -4   50.59    1.78 
  -4  14  -4   50.82    1.80 
   4  14   4   52.43    1.80 
   5  14  -4   39.51    1.43 
  -5  14   4   42.71    1.57 
   5 -14   4   39.62    1.53 
   5 -14   4   39.23    1.56 
  -5  14  -4   41.27    1.58 
   5  14   4   39.04    1.55 
   5 -14  -4   39.70    1.50 
   5 -14  -4   41.64    1.58 
   6  14  -4   21.34    0.97 
   6 -14   4   20.21    1.16 
   6 -14   4   22.35    1.16 
   6  14   4   20.67    1.12 
   6 -14  -4   21.77    1.12 
  -6  14  -4   23.11    1.16 
   6 -14  -4   21.26    1.16 
   7 -14   4   11.10    0.91 
   7 -14   4    8.54    0.79 
   7 -14  -4    5.52    0.67 
   7 -14  -4    6.64    0.74 
   7  14   4    7.28    0.69 
   7  14   4    6.34    0.70 
   8 -14   4    3.78    0.68 
   8 -14   4    2.69    0.64 
   8 -14  -4    2.38    0.59 
   8 -14  -4    2.95    0.64 
   8  14   4    2.85    0.54 
   0 -15   4   34.16    1.25 
   0  15   4   34.66    1.40 
   0  15  -4   36.92    1.38 
  -1  15   4   96.75    2.97 
   1 -15   4   99.28    2.81 
   1  15  -4  101.23    2.92 
   1  15   4   91.75    2.81 
  -1 -15   4   95.52    2.62 
  -1  15  -4   92.30    2.79 
   2  15  -4   24.22    1.08 
  -2  15   4   22.27    1.11 
   2 -15   4   20.91    1.01 
  -2  15  -4   22.71    1.12 
   2 -15  -4   23.15    1.09 
   2 -15  -4   24.08    1.08 
   2  15   4   26.47    1.16 
   3  15  -4   20.83    1.03 
  -3  15   4   22.18    1.11 
   3 -15   4   23.03    1.09 
   3 -15  -4   19.11    0.97 
   3 -15  -4   16.63    1.01 
   3  15   4   16.13    0.94 
  -3  15  -4   18.23    1.01 
   4 -15   4    5.34    0.60 
   4  15  -4    5.48    0.56 
  -4  15   4    5.80    0.66 
  -4  15  -4    4.76    0.61 
   4  15   4    3.63    0.55 
   4 -15  -4    3.30    0.53 
   4 -15  -4    2.42    0.52 
   5 -15   4    9.80    0.78 
   5  15  -4    8.74    0.72 
  -5  15   4    9.57    0.81 
   5  15   4   13.55    0.95 
   5 -15  -4   16.31    0.98 
   5 -15  -4   10.87    0.87 
  -5  15  -4   12.25    0.96 
   6 -15   4   10.18    0.83 
   6  15  -4   10.88    0.78 
   6 -15   4   11.37    0.91 
   6 -15  -4   13.63    0.99 
  -6  15  -4   14.38    0.99 
   6  15   4   12.99    0.96 
   6 -15  -4   14.65    1.11 
   7 -15   4   26.98    1.36 
   7 -15   4   28.03    1.41 
   7  15   4   27.32    1.37 
   7 -15  -4   29.46    1.43 
   7 -15  -4   28.72    1.36 
   7  15   4   30.34    1.37 
   8  15   4    8.01    0.78 
   0  16   4   20.94    1.10 
   0  16  -4   20.20    1.05 
   0 -16   4   20.66    0.95 
   1 -16   4   21.94    1.03 
   1  16  -4   23.57    1.11 
  -1  16   4   22.44    1.16 
   1  16   4   27.83    1.30 
  -1  16  -4   30.35    1.29 
  -2  16   4   19.96    1.10 
   2 -16   4   18.69    1.00 
   2  16  -4   20.94    1.05 
   2  16   4   20.60    1.10 
   2 -16  -4   20.17    1.00 
  -2  16  -4   17.85    1.02 
   3 -16   4   59.23    1.95 
   3  16  -4   60.30    1.98 
  -3  16   4   55.28    2.04 
  -3  16  -4   71.03    2.32 
   3  16   4   67.95    2.29 
   3 -16  -4   70.63    2.21 
   4  16  -4   10.53    0.80 
  -4  16   4   12.49    0.97 
   4 -16   4   11.31    0.91 
  -4  16  -4    7.39    0.75 
   4 -16  -4    6.58    0.66 
   4  16   4    8.77    0.77 
   4 -16  -4    8.70    0.87 
  -5  16   4   43.10    1.74 
   5  16  -4   41.88    1.59 
   5 -16   4   45.09    1.69 
   5 -16  -4   45.67    1.67 
  -5  16  -4   43.43    1.73 
   5  16   4   40.75    1.70 
   5 -16  -4   43.87    1.72 
   6 -16   4    8.36    0.80 
   6  16  -4    6.33    0.64 
   6 -16  -4    5.76    0.71 
   6 -16  -4    5.96    0.74 
   6  16   4    6.38    0.73 
   7  16   4    6.00    0.74 
   7 -16  -4    5.49    0.75 
   7 -16  -4    5.27    0.71 
   0 -17   4    3.68    0.49 
   0  17   4    5.77    0.67 
   0  17  -4    4.14    0.58 
   1  17  -4   76.33    2.52 
   1 -17   4   77.58    2.38 
  -1  17   4   83.56    2.61 
   1  17   4   79.09    2.58 
  -1  17  -4   80.25    2.57 
   2  17  -4   12.06    0.88 
  -2  17   4   12.11    0.95 
   2 -17   4   11.85    0.86 
   2  17   4   11.54    0.91 
  -2  17  -4   10.53    0.86 
   3 -17   4   16.35    1.00 
  -3  17   4   14.35    1.04 
   3  17  -4   15.00    0.97 
   3  17   4   14.35    0.99 
  -3  17  -4   13.90    1.03 
   3 -17  -4   14.73    0.97 
  -4  17   4   17.70    1.11 
   4  17  -4   15.17    0.98 
   4 -17   4   16.72    1.07 
  -4  17  -4   14.42    1.05 
   4  17   4   17.37    1.09 
   4 -17  -4   19.35    1.10 
  -5  17   4    6.70    0.83 
   5  17  -4    5.88    0.65 
   5 -17   4    7.44    0.76 
   5 -17  -4    7.63    0.75 
  -5  17  -4    8.51    0.85 
   5  17   4    6.84    0.79 
   6  17  -4    8.52    0.75 
   6  17   4    6.73    0.78 
   6 -17  -4    7.25    0.76 
   0  18   4    5.20    0.70 
   0  18  -4    4.75    0.64 
   0 -18   4    3.82    0.51 
   1 -18   4   12.07    0.89 
  -1  18   4   14.74    1.06 
   1  18  -4   11.68    0.97 
   1  18   4   12.24    0.97 
  -1  18  -4   10.02    0.86 
  -2  18   4    3.68    0.64 
   2  18  -4    3.04    0.58 
   2 -18   4    1.95    0.51 
  -2  18  -4    2.38    0.56 
   2  18   4    2.28    0.56 
   3  18  -4   68.02    2.24 
  -3  18   4   61.11    2.32 
   3 -18   4   66.56    2.17 
   3 -18  -4   60.14    2.02 
   3  18   4   59.09    2.16 
  -3  18  -4   59.00    2.16 
   4  18  -4    0.94    0.46 
   4 -18   4    0.58    0.51 
  -4  18   4    0.32    0.50 
  -4  18  -4    0.44    0.50 
   4  18   4    0.11    0.47 
   4 -18  -4    0.95    0.54 
   5  18  -4   58.95    2.08 
  -5  18  -4   57.56    2.17 
   5  18   4   54.97    2.13 
   6  18  -4    4.58    0.65 
   0  19  -4   14.36    1.05 
   0  19   4   13.67    1.12 
   1  19  -4   65.93    2.30 
   1 -19   4   64.99    2.10 
  -1  19   4   62.50    2.33 
  -1  19  -4   70.57    2.42 
   1  19   4   65.70    2.39 
   2 -19   4   11.84    0.94 
   2  19  -4   10.25    0.90 
  -2  19   4   11.10    1.00 
   2  19   4   10.83    0.96 
  -2  19  -4   13.89    1.08 
  -3  19   4   11.32    1.01 
   3  19  -4    8.86    0.84 
   3 -19   4    9.25    0.80 
   3  19   4    7.59    0.83 
  -3  19  -4    7.35    0.82 
   4  19  -4    4.35    0.64 
  -4  19   4    5.49    0.78 
  -4  19  -4    4.76    0.75 
  -5  19  -4    4.60    0.74 
   0  20  -4   18.55    1.27 
   0  20   4   19.35    1.28 
   1 -20   4    5.86    0.66 
   1  20  -4    6.28    0.81 
  -1  20   4    5.45    0.79 
   1  20   4    4.91    0.75 
  -1  20  -4    7.60    0.86 
   2 -20   4   12.74    1.01 
  -2  20   4   15.85    1.23 
  -2  20  -4   15.94    1.23 
  -3  20   4   36.76    1.73 
  -4  20   4    8.93    0.92 
   0   0  -5   -0.49    0.07 
   0   0  -5   -0.17    0.09 
   0   0   5   -0.41    0.07 
   0   0   5   -0.45    0.09 
   1   0   5  541.66   13.67 
   1   0   5  561.67   13.96 
  -1   0  -5  585.42   14.10 
  -1   0  -5  583.31   13.78 
  -1   0   5  576.85   14.18 
   1   0   5  572.15   14.20 
   1   0  -5  524.96   14.13 
   1   0  -5  555.45   13.76 
  -1   0   5  579.95   13.87 
   1   0  -5  546.01   14.14 
  -1   0   5  631.81   14.19 
  -2   0  -5    0.10    0.09 
  -2   0  -5    0.17    0.09 
  -2   0   5    0.05    0.05 
  -2   0   5    0.01    0.02 
   2   0  -5    0.03    0.06 
   2   0  -5    0.15    0.07 
   2   0   5    0.24    0.11 
  -2   0  -5    0.15    0.08 
   2   0   5    0.01    0.09 
   2   0  -5    0.07    0.06 
   2   0   5    0.09    0.11 
  -2   0   5    0.33    0.06 
   3   0  -5   62.41    1.57 
   3   0  -5   62.51    1.57 
  -3   0   5   62.30    1.57 
  -3   0  -5   61.03    1.66 
   3   0   5   63.06    1.72 
   3   0   5   61.47    1.67 
   3   0   5   63.41    1.69 
   3   0  -5   62.81    1.58 
   3   0  -5   62.19    1.60 
   4   0  -5    0.20    0.09 
   4   0  -5   -0.04    0.07 
  -4   0  -5   -0.02    0.10 
   4   0   5   -0.18    0.13 
   4   0  -5   -0.07    0.07 
   4   0   5    0.01    0.13 
   5   0  -5    5.82    0.24 
   5   0  -5    5.71    0.25 
   5   0   5    6.75    0.39 
   5   0   5    5.68    0.39 
   5   0  -5    5.73    0.24 
   6   0  -5    1.25    0.14 
   6   0  -5    1.28    0.15 
   6   0   5    1.44    0.25 
   6   0   5    1.52    0.25 
   7   0   5  106.29    2.77 
   7   0   5  101.94    2.72 
   7   0  -5   96.53    2.53 
   8   0   5    0.18    0.26 
   8   0   5   -0.29    0.25 
   8   0  -5    0.16    0.16 
   9   0   5   66.47    1.98 
   9   0  -5   64.43    1.72 
  10   0   5    0.12    0.33 
  10   0  -5    0.61    0.20 
   0   1   5   62.81    1.64 
   0  -1  -5   63.92    1.66 
   0   1  -5   60.44    1.61 
   0   1  -5   63.59    1.64 
   0  -1  -5   63.90    1.62 
   0   1   5   64.39    1.66 
   0  -1   5   62.26    1.66 
   0   1   5   63.56    1.62 
   0  -1   5   61.95    1.63 
   0  -1  -5   56.55    1.63 
  -1   1   5  176.37    4.32 
   1  -1   5  161.46    4.35 
  -1   1   5  176.00    4.31 
  -1  -1  -5  177.53    4.26 
   1   1  -5  178.42    4.31 
   1  -1   5  178.09    4.35 
  -1  -1  -5  174.32    4.34 
  -1  -1  -5  159.76    4.33 
   1  -1   5  179.51    4.26 
   1   1  -5  170.99    4.31 
  -1   1   5  172.50    4.22 
   1   1  -5  169.96    4.22 
   1  -1  -5  216.89    5.32 
   1   1   5  210.60    5.34 
  -1   1  -5  215.85    5.34 
  -1   1  -5  219.78    5.23 
   1   1   5  211.16    5.35 
  -1  -1   5  209.51    5.29 
  -1  -1   5  211.70    5.18 
  -1  -1   5  209.37    5.30 
   1  -1  -5  220.35    5.32 
   1  -1  -5  218.20    5.21 
   1   1   5  209.45    5.23 
  -2   1   5    3.00    0.15 
  -2   1   5    3.28    0.15 
  -2   1   5    2.78    0.15 
   2   1  -5    2.76    0.16 
  -2  -1  -5    2.57    0.20 
  -2   1   5    3.06    0.16 
   2  -1   5    3.27    0.23 
   2   1  -5    3.15    0.15 
  -2  -1  -5    2.93    0.21 
   2  -1   5    3.01    0.23 
   2   1  -5    2.94    0.16 
  -2   1   5    3.07    0.18 
  -2  -1  -5    2.85    0.19 
   2  -1  -5    1.29    0.11 
  -2   1  -5    1.26    0.14 
   2   1   5    1.14    0.14 
   2  -1  -5    1.42    0.11 
   2  -1  -5    1.18    0.12 
   2   1   5    0.91    0.15 
   2  -1  -5    1.07    0.12 
  -2  -1   5    1.38    0.08 
  -2   1  -5    1.25    0.15 
  -2   1  -5    1.11    0.15 
   2   1   5    1.13    0.15 
   3   1  -5  307.67    7.42 
   3   1  -5  300.94    7.27 
   3  -1   5  306.07    7.55 
  -3  -1  -5  293.17    7.50 
   3  -1   5  307.50    7.40 
   3  -1  -5  292.88    7.31 
  -3   1  -5  301.84    7.38 
   3   1   5  291.29    7.24 
   3  -1  -5  301.29    7.16 
   3   1   5  285.40    7.40 
   3   1   5  299.59    7.39 
   3  -1  -5  305.24    7.30 
   4   1  -5    9.15    0.28 
   4   1  -5    9.61    0.28 
   4  -1   5    8.79    0.43 
  -4   1   5    8.90    0.30 
   4  -1   5    9.25    0.43 
   4   1  -5    9.20    0.29 
  -4   1  -5    9.66    0.39 
   4   1   5    9.88    0.43 
   4  -1  -5    9.80    0.35 
   4  -1  -5    8.93    0.34 
   4   1   5    9.92    0.44 
   4   1   5    9.92    0.46 
   4  -1  -5    9.52    0.33 
   5   1  -5  160.53    3.89 
   5  -1   5  163.24    4.16 
   5  -1   5  160.11    4.08 
   5  -1  -5  183.72    4.52 
  -5   1  -5  180.22    4.57 
   5   1   5  183.95    4.56 
   5  -1  -5  178.55    4.43 
   5  -1  -5  180.00    4.52 
   5   1   5  182.89    4.64 
   6  -1   5    0.04    0.20 
   6  -1   5    0.17    0.20 
   6  -1  -5    1.01    0.16 
   6   1   5    1.31    0.23 
   6  -1  -5    1.02    0.17 
  -6   1  -5    1.13    0.22 
   6   1   5    0.97    0.23 
   7  -1   5   29.42    1.03 
   7  -1   5   30.15    1.05 
   7   1  -5   28.27    0.79 
   7   1   5   28.02    0.97 
   7   1   5   28.08    0.97 
   7  -1  -5   25.89    0.82 
   8  -1   5    0.46    0.29 
   8   1  -5    0.72    0.15 
   8  -1   5    0.64    0.29 
   8   1   5    0.07    0.26 
   8   1   5    0.35    0.26 
   8  -1  -5    0.41    0.19 
   9  -1   5    3.77    0.46 
   9  -1  -5    3.80    0.31 
   9   1   5    3.73    0.45 
  10  -1   5    0.10    0.35 
  10  -1  -5    0.13    0.22 
  10   1   5    0.35    0.36 
   0   2   5    4.70    0.26 
   0   2  -5    5.18    0.25 
   0  -2  -5    5.05    0.25 
   0  -2   5    5.27    0.24 
   0   2  -5    5.20    0.24 
   0   2   5    4.88    0.25 
   0   2   5    5.64    0.25 
   0   2  -5    4.73    0.23 
   1  -2   5  228.58    5.50 
  -1  -2  -5  211.11    5.61 
  -1   2   5  224.95    5.48 
   1   2  -5  228.27    5.58 
   1  -2   5  227.77    5.62 
   1   2  -5  213.65    5.57 
  -1   2   5  233.54    5.60 
   1   2  -5  231.58    5.47 
  -1   2   5  227.94    5.60 
  -1  -2  -5  221.29    5.50 
  -1   2   5  230.36    5.58 
   1   2   5  208.11    5.20 
   1  -2  -5  209.10    5.18 
  -1  -2   5  212.62    5.14 
   1   2   5  213.35    5.20 
   1   2   5  206.68    5.09 
  -1   2  -5  202.70    5.09 
  -1   2  -5  203.65    5.21 
  -1   2  -5  203.47    5.19 
  -1  -2   5  211.71    5.04 
   2  -2   5   10.53    0.43 
   2   2  -5   11.56    0.34 
  -2   2   5   10.94    0.37 
   2  -2   5   10.60    0.43 
   2   2  -5   11.04    0.34 
  -2   2   5   10.69    0.36 
   2   2  -5   11.05    0.36 
  -2   2   5   11.78    0.40 
  -2   2   5   11.31    0.37 
  -2  -2  -5   10.02    0.41 
  -2   2   5   10.92    0.37 
  -2   2  -5   12.76    0.45 
  -2   2  -5   12.19    0.45 
   2   2   5   12.05    0.45 
   2   2   5   12.91    0.45 
   2  -2  -5   12.39    0.40 
   2  -2  -5   12.60    0.43 
   2   2   5   11.62    0.46 
   3   2  -5   69.51    1.74 
  -3   2   5   69.81    1.73 
  -3   2   5   68.85    1.74 
   3  -2   5   66.26    1.87 
  -3   2   5   70.32    1.74 
   3   2  -5   67.87    1.70 
   3  -2   5   70.32    1.84 
  -3   2   5   71.02    1.81 
   3   2   5   69.76    1.85 
   3  -2  -5   70.99    1.79 
   3   2   5   69.72    1.83 
   3   2   5   70.71    1.89 
  -3   2  -5   68.07    1.85 
   3  -2  -5   70.16    1.82 
   3  -2  -5   66.32    1.77 
   4  -2   5    4.14    0.33 
   4  -2   5    4.44    0.33 
   4   2   5    4.03    0.32 
   4  -2  -5    3.64    0.23 
   4   2   5    3.78    0.29 
   4  -2  -5    3.73    0.24 
  -4   2  -5    4.04    0.27 
   4   2   5    3.56    0.29 
   4  -2  -5    3.67    0.25 
   5  -2   5   54.49    1.54 
  -5   2   5   50.34    1.38 
   5  -2   5   54.17    1.53 
   5   2   5   47.98    1.34 
  -5   2  -5   46.42    1.35 
  -5   2  -5   45.43    1.29 
   5  -2  -5   44.99    1.26 
   5  -2  -5   47.54    1.26 
   5   2   5   45.44    1.37 
   5   2   5   45.31    1.33 
   5  -2  -5   44.88    1.24 
   6  -2   5   12.06    0.60 
   6  -2   5   11.30    0.58 
   6   2   5   16.26    0.64 
  -6   2  -5   14.59    0.63 
   6  -2  -5   14.60    0.55 
   6  -2  -5   14.91    0.53 
   6  -2  -5   15.53    0.54 
   6   2   5   15.08    0.64 
  -6   2  -5   15.34    0.54 
   7  -2   5   79.48    2.28 
   7  -2   5   81.31    2.26 
   7  -2  -5   85.07    2.24 
   7   2   5   86.55    2.38 
   7   2   5   86.18    2.35 
   7  -2  -5   86.39    2.27 
   8  -2   5    4.12    0.45 
   8  -2   5    5.12    0.47 
   8   2   5    6.95    0.54 
   8   2   5    7.04    0.55 
   8  -2  -5    7.16    0.44 
   9  -2   5   58.03    1.84 
   9  -2  -5   51.92    1.51 
   9   2   5   53.79    1.66 
  10  -2   5    4.09    0.52 
  10   2   5    6.66    0.57 
  10  -2  -5    5.95    0.49 
   0   3  -5    0.16    0.10 
   0   3  -5   -0.17    0.08 
   0   3   5    0.13    0.10 
   0  -3  -5   -0.01    0.09 
   0   3   5   -0.03    0.09 
   0  -3   5    0.09    0.10 
   0   3   5    0.10    0.11 
  -1   3   5   92.04    2.34 
   1   3  -5   87.97    2.32 
   1  -3   5   89.95    2.37 
  -1  -3  -5   88.81    2.37 
   1  -3   5   93.19    2.33 
  -1   3   5   90.73    2.34 
   1   3  -5   93.09    2.29 
  -1   3   5   90.82    2.31 
  -1   3   5   93.28    2.37 
  -1   3  -5   64.41    1.71 
   1  -3  -5   66.93    1.74 
  -1  -3   5   65.79    1.66 
  -1   3  -5   63.27    1.74 
   1   3   5   65.12    1.76 
   1   3   5   64.74    1.71 
  -1  -3   5   66.96    1.68 
  -2   3   5   44.37    1.19 
   2   3  -5   45.17    1.16 
   2   3  -5   43.89    1.14 
   2  -3   5   45.12    1.25 
  -2   3   5   44.14    1.20 
  -2   3   5   44.42    1.22 
  -2   3   5   43.64    1.19 
  -2   3   5   43.86    1.18 
  -2  -3  -5   42.56    1.23 
   2  -3   5   42.88    1.23 
   2  -3  -5   38.10    1.04 
  -2   3  -5   38.94    1.09 
   2   3   5   38.97    1.08 
  -2   3  -5   37.48    1.09 
   2  -3  -5   37.17    1.07 
   2   3   5   35.92    1.07 
   2  -3  -5   37.66    1.05 
   2   3   5   37.87    1.11 
  -2  -3   5   39.83    0.95 
  -3   3   5  315.27    8.00 
   3   3  -5  317.81    7.94 
   3   3  -5  316.98    7.78 
   3  -3   5  330.95    7.93 
  -3   3   5  337.50    7.99 
  -3   3   5  331.89    7.84 
   3  -3   5  312.95    8.08 
  -3   3   5  329.70    8.02 
   3   3   5  310.25    7.73 
  -3   3  -5  305.99    7.73 
   3  -3  -5  301.29    7.52 
   3   3   5  309.42    7.73 
   3  -3  -5  323.55    7.67 
   3   3   5  311.15    7.57 
   3  -3  -5  309.24    7.68 
  -4   3   5   43.63    1.14 
   4  -3   5   42.24    1.29 
  -4   3   5   44.77    1.21 
   4  -3   5   43.81    1.29 
   4  -3  -5   41.60    1.18 
  -4   3  -5   41.62    1.21 
   4   3   5   41.77    1.20 
   4   3   5   41.49    1.20 
   4   3   5   40.82    1.24 
  -4   3  -5   42.77    1.24 
   4  -3  -5   40.95    1.16 
   4  -3  -5   42.41    1.16 
   5  -3   5  280.86    7.05 
   5  -3   5  276.81    6.91 
   5  -3  -5  241.88    6.00 
   5   3   5  244.78    5.95 
  -5   3  -5  243.71    6.07 
   5   3   5  234.08    6.08 
   5   3   5  238.41    6.06 
  -5   3  -5  238.04    6.03 
   5  -3  -5  243.90    5.99 
   5  -3  -5  233.49    5.88 
   6  -3   5   21.86    0.83 
   6  -3   5   20.49    0.81 
  -6   3   5   20.41    0.64 
   6  -3  -5   22.32    0.75 
   6  -3  -5   23.38    0.75 
   6   3   5   23.32    0.81 
  -6   3  -5   22.08    0.83 
   6   3   5   23.34    0.82 
   6  -3  -5   22.94    0.75 
  -6   3  -5   21.40    0.73 
   6   3   5   22.31    0.85 
   7  -3   5   42.74    1.37 
   7  -3   5   39.97    1.35 
  -7   3  -5   51.46    1.56 
   7   3   5   46.54    1.45 
   7  -3  -5   46.79    1.37 
   7  -3  -5   47.41    1.38 
   7   3   5   47.49    1.45 
   8  -3   5    0.46    0.30 
   8  -3   5    0.03    0.29 
   8   3   5    0.81    0.29 
   8  -3  -5    0.61    0.24 
   9  -3   5    1.33    0.39 
   9   3   5    0.88    0.32 
   9  -3  -5    0.25    0.27 
  10  -3   5    3.48    0.52 
  10  -3  -5    3.75    0.40 
  10   3   5    3.75    0.48 
   0  -4  -5  277.80    7.09 
   0  -4   5  296.01    7.09 
   0   4  -5  288.48    6.95 
   0   4  -5  279.64    7.09 
   0   4   5  281.83    7.07 
   0   4   5  288.30    7.11 
  -1  -4  -5  408.17   10.20 
   1   4  -5  407.27   10.18 
   1   4  -5  410.73    9.97 
  -1   4   5  422.73   10.21 
  -1   4   5  404.80   10.19 
   1  -4   5  406.98   10.01 
  -1   4   5  411.79    9.99 
   1  -4   5  432.13   10.23 
  -1  -4   5  410.80    9.69 
  -1  -4   5  404.32    9.97 
  -1   4  -5  391.44    9.75 
  -1   4  -5  406.88    9.96 
   1   4   5  391.26    9.95 
   1  -4  -5  408.56    9.93 
   2  -4   5   59.03    1.57 
   2  -4   5   54.98    1.58 
  -2   4   5   57.09    1.55 
  -2   4   5   57.40    1.57 
   2   4  -5   55.74    1.48 
   2   4  -5   56.23    1.50 
   2   4  -5   60.43    1.50 
   2  -4  -5   73.33    1.99 
   2   4   5   75.46    1.98 
  -2   4  -5   75.06    1.98 
  -2   4  -5   76.11    2.06 
   2   4   5   76.21    2.02 
   2  -4  -5   72.61    1.94 
  -2  -4   5   77.95    1.86 
   2  -4  -5   72.16    1.95 
  -3   4   5   91.01    2.41 
   3   4  -5   93.58    2.30 
   3  -4   5   92.94    2.44 
   3   4  -5   91.48    2.34 
   3   4  -5   95.58    2.33 
   3  -4   5   92.04    2.47 
  -3   4   5   92.50    2.43 
  -3   4  -5   80.62    2.19 
   3   4   5   83.08    2.20 
   3   4   5   83.01    2.15 
   3  -4  -5   78.83    2.11 
   3   4   5   81.45    2.17 
   3  -4  -5   82.81    2.16 
   3  -4  -5   80.54    2.13 
   4   4  -5    7.15    0.25 
  -4   4   5    7.04    0.30 
   4  -4   5    6.68    0.44 
  -4   4   5    7.09    0.30 
   4  -4   5    6.76    0.43 
   4   4  -5    7.33    0.26 
  -4   4   5    7.50    0.37 
  -4   4  -5    8.38    0.45 
   4   4   5    8.68    0.45 
   4   4   5    9.02    0.44 
   4  -4  -5    8.30    0.41 
   4   4   5    9.28    0.43 
   4  -4  -5    8.68    0.40 
   4  -4  -5    9.09    0.40 
   5  -4   5    7.86    0.49 
  -5   4   5    7.55    0.39 
   5  -4   5    8.32    0.51 
   5   4   5    7.02    0.44 
   5  -4  -5    7.30    0.39 
   5  -4  -5    7.82    0.42 
  -5   4  -5    7.59    0.47 
   5   4   5    7.49    0.46 
   5   4   5    7.33    0.42 
   5  -4  -5    7.53    0.40 
   6  -4   5   31.06    1.07 
   6  -4   5   29.53    1.06 
   6   4   5   22.60    0.82 
   6  -4  -5   22.45    0.78 
   6  -4  -5   23.14    0.78 
   6   4   5   21.48    0.81 
  -6   4  -5   22.38    0.85 
   6   4   5   21.78    0.85 
   7  -4   5   89.90    2.47 
   7  -4   5   84.30    2.48 
   7   4   5   94.19    2.54 
   7  -4  -5   93.58    2.51 
  -7   4  -5   91.72    2.64 
   7   4   5   93.70    2.57 
   7  -4  -5   94.14    2.49 
   8  -4   5   38.40    1.35 
   8  -4   5   36.11    1.33 
   8   4   5   35.81    1.23 
   8  -4  -5   36.87    1.17 
   9  -4   5   59.90    1.92 
   9   4   5   60.52    1.84 
   9  -4  -5   60.61    1.77 
  10  -4   5   12.04    0.87 
  10  -4  -5    7.42    0.54 
  10   4   5    7.10    0.58 
   0   5   5    2.30    0.21 
   0  -5   5    2.49    0.21 
   0   5  -5    2.48    0.22 
   0   5   5    1.67    0.20 
   0   5  -5    2.52    0.22 
   0   5   5    2.52    0.21 
   0  -5   5    1.47    0.17 
   0   5  -5    2.08    0.20 
   1   5  -5   94.30    2.39 
  -1   5   5   92.89    2.41 
   1  -5   5   91.63    2.39 
   1  -5   5   88.61    2.42 
   1   5  -5   92.88    2.39 
  -1   5   5   92.98    2.39 
   1   5  -5   87.51    2.35 
  -1   5   5   95.46    2.45 
  -1  -5   5  111.76    2.77 
  -1   5  -5  105.66    2.83 
   1   5   5  102.80    2.84 
  -1   5  -5  109.16    2.80 
  -1  -5   5  113.57    2.73 
   2   5  -5  179.81    4.51 
  -2   5   5  183.23    4.59 
   2  -5   5  182.18    4.61 
  -2   5   5  177.95    4.57 
   2   5  -5  183.29    4.43 
   2   5  -5  176.25    4.51 
   2  -5   5  180.55    4.52 
   2  -5  -5  195.44    5.03 
  -2   5  -5  194.14    4.97 
   2   5   5  199.43    5.07 
   2  -5  -5  198.72    4.94 
  -2  -5   5  205.33    4.85 
   2  -5  -5  202.31    5.01 
  -2  -5   5  198.45    4.91 
  -2   5  -5  201.66    5.06 
   3  -5   5  116.30    3.14 
   3   5  -5  121.34    3.01 
   3  -5   5  120.81    3.10 
  -3   5   5  122.84    3.11 
  -3   5   5  116.28    3.09 
   3   5  -5  117.33    2.95 
   3   5  -5  119.69    3.00 
   3   5   5  135.47    3.40 
   3   5   5  131.98    3.48 
  -3   5  -5  134.40    3.48 
   3  -5  -5  134.20    3.41 
   3  -5  -5  131.23    3.44 
   3  -5  -5  132.34    3.37 
   4   5  -5  215.19    5.20 
   4  -5   5  203.93    5.39 
  -4   5   5  205.63    5.30 
  -4   5   5  211.91    5.33 
   4   5  -5  214.20    5.11 
   4   5  -5  216.23    5.21 
   4  -5   5  207.66    5.31 
   4   5   5  211.27    5.35 
   4  -5  -5  217.54    5.32 
  -4   5  -5  200.61    5.38 
   4  -5  -5  213.24    5.24 
   4  -5  -5  208.96    5.34 
   4   5   5  212.39    5.26 
   4   5   5  211.78    5.38 
   5   5  -5   88.29    2.21 
   5  -5   5   89.79    2.48 
  -5   5   5   89.45    2.39 
  -5   5   5   89.77    2.29 
   5  -5   5   89.18    2.46 
  -5   5   5   90.30    2.29 
   5  -5  -5  113.16    2.86 
   5  -5  -5  108.06    2.88 
   5  -5  -5  106.49    2.83 
   5   5   5  115.39    2.90 
  -5   5  -5  100.50    2.92 
   5   5   5  108.55    2.93 
   5   5   5  108.67    2.85 
   6  -5   5   79.66    2.32 
   6  -5   5   84.20    2.35 
  -6   5   5   81.76    2.21 
   6  -5  -5   88.04    2.40 
   6   5   5   87.97    2.48 
   6  -5  -5   90.64    2.39 
  -6   5  -5   89.91    2.49 
   6   5   5   88.58    2.43 
   6   5   5   90.25    2.42 
   7  -5   5   23.83    0.97 
   7  -5   5   22.28    0.98 
   7   5   5   23.22    0.90 
   7  -5  -5   24.05    0.86 
   7  -5  -5   22.38    0.86 
   7   5   5   23.94    0.90 
  -7   5  -5   22.42    0.96 
   7   5   5   24.31    0.93 
   8  -5   5    1.99    0.41 
   8  -5   5    1.45    0.40 
   8   5   5    2.79    0.39 
   8  -5  -5    2.45    0.36 
   9  -5   5    4.63    0.53 
   9  -5   5    3.22    0.51 
   9   5   5    4.91    0.49 
   9  -5  -5    5.29    0.48 
  10  -5   5   10.91    0.88 
  10   5   5   13.89    0.80 
  10  -5  -5   12.83    0.78 
   0   6   5  278.99    6.88 
   0  -6   5  284.89    6.99 
   0   6  -5  278.65    7.00 
   0   6  -5  279.48    6.88 
   0   6   5  292.57    7.05 
   0  -6   5  265.88    6.85 
  -1   6   5  101.80    2.66 
   1   6  -5  103.79    2.68 
   1  -6   5  101.97    2.70 
   1  -6   5   99.66    2.66 
  -1   6   5  105.24    2.73 
   1   6  -5  103.29    2.63 
  -1   6  -5  100.19    2.81 
  -1  -6   5  106.41    2.72 
  -1  -6   5  111.18    2.75 
   1   6   5  106.07    2.75 
  -1   6  -5  112.28    2.79 
   1   6   5  109.47    2.85 
   1  -6  -5  104.86    2.78 
  -2   6   5  254.59    6.35 
   2   6  -5  252.75    6.27 
   2  -6   5  245.74    6.23 
   2  -6   5  250.69    6.36 
   2   6  -5  250.68    6.15 
   2   6  -5  255.12    6.31 
  -2  -6   5  248.25    5.89 
  -2  -6   5  239.46    5.98 
  -2   6  -5  252.38    6.03 
   2  -6  -5  238.92    5.98 
   2  -6  -5  242.13    6.07 
   2  -6  -5  235.27    6.09 
  -2   6  -5  241.38    6.12 
   2   6   5  238.93    6.12 
  -3   6   5   23.76    0.81 
   3   6  -5   24.44    0.72 
   3   6  -5   22.52    0.70 
  -3   6   5   22.81    0.79 
   3  -6   5   23.42    0.84 
   3  -6   5   23.93    0.84 
   3   6  -5   23.88    0.71 
  -3   6  -5   30.45    0.99 
   3  -6  -5   29.43    0.95 
   3  -6  -5   29.41    0.94 
   3  -6  -5   28.18    0.92 
   3   6   5   30.46    0.99 
  -4   6   5    0.45    0.19 
   4  -6   5    0.85    0.25 
   4   6  -5    0.65    0.12 
   4   6  -5    0.91    0.15 
   4   6  -5    0.66    0.13 
   4  -6   5    0.13    0.21 
  -4   6   5    0.80    0.18 
   4   6   5    0.86    0.23 
   4   6   5    1.18    0.23 
   4  -6  -5    0.79    0.21 
  -4   6  -5    1.00    0.25 
   4  -6  -5    0.94    0.22 
   4  -6  -5    0.51    0.20 
   5  -6   5    5.26    0.44 
   5  -6   5    6.03    0.47 
  -5   6   5    6.14    0.41 
  -5   6   5    6.46    0.35 
   5   6  -5    5.97    0.29 
   5   6  -5    6.00    0.27 
   5   6  -5    6.34    0.26 
   5  -6  -5    4.23    0.36 
   5  -6  -5    4.73    0.38 
   5   6   5    4.88    0.39 
  -5   6  -5    4.38    0.40 
   5   6   5    4.66    0.40 
   5  -6  -5    5.00    0.41 
   5   6   5    5.31    0.40 
   6   6  -5   82.26    2.09 
  -6   6   5   84.14    2.30 
   6  -6   5   85.13    2.38 
   6  -6   5   82.93    2.41 
   6   6   5   81.22    2.35 
  -6   6  -5   81.45    2.36 
   6  -6  -5   86.11    2.29 
   6   6   5   82.07    2.30 
   6   6   5   82.32    2.28 
   6  -6  -5   83.74    2.28 
   7  -6   5   39.93    1.40 
   7  -6   5   39.40    1.38 
   7   6   5   35.68    1.21 
   7   6   5   36.35    1.26 
  -7   6  -5   36.15    1.33 
   7  -6  -5   36.26    1.22 
   7   6   5   36.23    1.22 
   7  -6  -5   37.27    1.20 
   8  -6   5   86.79    2.59 
   8  -6   5   91.59    2.65 
   8  -6  -5   88.37    2.44 
   8   6   5   84.87    2.44 
   9  -6   5   29.47    1.27 
   9  -6   5   27.89    1.23 
   9   6   5   27.39    1.11 
   9  -6  -5   29.02    1.11 
  10  -6   5   37.36    1.51 
  10  -6  -5   36.68    1.33 
  10   6   5   36.05    1.33 
   0  -7   5    8.08    0.41 
   0   7  -5    8.36    0.43 
   0   7  -5    7.91    0.43 
   0   7   5    8.08    0.42 
   0  -7   5    8.25    0.41 
   0   7   5    7.43    0.43 
   1   7  -5   10.63    0.45 
  -1   7   5   10.74    0.51 
  -1   7   5    9.87    0.48 
   1  -7   5    9.64    0.47 
   1   7  -5    9.78    0.46 
   1  -7   5    9.98    0.48 
  -1  -7   5    5.68    0.33 
  -1   7  -5    5.83    0.39 
   1   7   5    6.08    0.41 
   1  -7  -5    5.74    0.36 
  -1   7  -5    6.21    0.39 
   1   7   5    6.15    0.37 
  -1  -7   5    5.99    0.33 
  -2   7   5  198.00    5.16 
   2   7  -5  199.31    5.08 
   2  -7   5  203.06    5.16 
   2  -7   5  204.66    5.07 
   2   7  -5  202.09    4.99 
   2  -7  -5  166.33    4.20 
   2   7   5  167.06    4.31 
  -2  -7   5  171.77    4.11 
  -2   7  -5  167.14    4.30 
   2  -7  -5  161.71    4.24 
  -2  -7   5  163.14    4.15 
  -2   7  -5  164.96    4.24 
   3   7  -5   32.62    0.97 
   3   7  -5   33.68    0.96 
   3  -7   5   31.32    1.07 
   3  -7   5   32.18    1.08 
  -3   7   5   32.68    1.07 
   3  -7  -5   28.23    0.90 
   3   7   5   26.88    0.95 
   3  -7  -5   26.66    0.91 
  -3   7  -5   26.76    0.95 
  -4   7   5  322.42    8.05 
   4   7  -5  320.90    7.91 
   4  -7   5  321.29    7.94 
   4   7  -5  321.72    7.77 
   4  -7   5  312.51    8.09 
   4   7   5  288.64    7.07 
  -4   7  -5  288.98    7.23 
   4  -7  -5  287.01    7.16 
   4  -7  -5  275.84    7.05 
   4   7   5  281.91    7.22 
  -5   7   5   18.59    0.71 
   5   7  -5   20.10    0.63 
   5  -7   5   19.61    0.86 
  -5   7   5   21.22    0.79 
   5  -7   5   19.53    0.85 
   5   7  -5   19.82    0.63 
   5   7   5   18.34    0.73 
   5  -7  -5   17.81    0.76 
   5   7   5   19.09    0.77 
   5  -7  -5   18.44    0.74 
   5   7   5   18.02    0.78 
  -5   7  -5   19.24    0.80 
   6   7  -5   97.55    2.48 
   6  -7   5   98.01    2.76 
  -6   7   5   99.54    2.70 
  -6   7   5  100.08    2.56 
   6  -7   5   97.69    2.79 
   6   7   5   95.10    2.61 
  -6   7  -5   95.93    2.70 
   6  -7  -5   97.14    2.62 
   6   7   5   96.87    2.69 
   6  -7  -5   96.18    2.62 
   6   7   5   91.54    2.62 
   7   7  -5    1.95    0.19 
   7  -7   5    1.88    0.41 
   7  -7   5    1.78    0.40 
   7   7   5    2.34    0.34 
   7  -7  -5    2.16    0.36 
   7   7   5    2.62    0.36 
   7  -7  -5    1.83    0.35 
   7   7   5    2.67    0.39 
   8  -7   5    2.71    0.48 
   8  -7   5    3.22    0.49 
   8  -7  -5    2.13    0.39 
   8   7   5    2.41    0.38 
   8   7   5    2.22    0.39 
   9  -7   5   -0.13    0.42 
   9  -7   5    0.08    0.41 
   9  -7  -5    0.01    0.34 
   9   7   5   -0.22    0.32 
  10  -7   5   15.19    1.05 
  10   7   5   11.79    0.82 
  10  -7  -5   11.51    0.86 
   0   8  -5  468.78   11.91 
   0   8  -5  467.17   11.71 
   0  -8   5  495.93   11.91 
   0   8   5  473.20   11.70 
   0  -8   5  473.00   11.67 
   0   8   5  503.50   11.97 
   1   8  -5    7.07    0.42 
   1  -8   5    7.04    0.43 
   1  -8   5    7.24    0.45 
  -1   8   5    6.97    0.43 
   1   8  -5    7.02    0.40 
   1   8   5    4.18    0.34 
   1   8   5    4.49    0.39 
  -1  -8   5    4.57    0.32 
   1  -8  -5    3.13    0.29 
  -1   8  -5    4.11    0.36 
  -1   8  -5    4.55    0.37 
  -1  -8   5    4.00    0.31 
   2  -8   5  232.82    5.96 
   2   8  -5  233.35    5.90 
  -2   8   5  235.27    5.98 
   2   8  -5  235.11    5.79 
   2  -8   5  232.85    5.86 
  -2   8  -5  255.05    6.47 
  -2  -8   5  250.31    6.32 
   2   8   5  254.83    6.30 
   2   8   5  248.64    6.47 
   2  -8  -5  249.24    6.40 
   2  -8  -5  253.92    6.33 
  -2  -8   5  266.80    6.24 
   3  -8   5    2.49    0.31 
   3   8  -5    2.57    0.25 
  -3   8   5    3.04    0.33 
   3  -8   5    2.29    0.32 
   3   8  -5    3.11    0.27 
   3  -8  -5    1.63    0.27 
  -3   8  -5    1.40    0.26 
   3   8   5    1.16    0.26 
   3  -8  -5    1.69    0.26 
   4   8  -5   12.28    0.50 
   4  -8   5   12.91    0.68 
   4  -8   5   13.50    0.68 
   4   8  -5   12.37    0.51 
  -4   8   5   12.21    0.62 
   4  -8  -5   11.07    0.58 
   4   8   5   12.71    0.63 
   4  -8  -5   11.15    0.61 
  -4   8  -5   11.94    0.63 
   5   8  -5    2.83    0.25 
  -5   8   5    3.05    0.35 
   5  -8   5    3.07    0.41 
   5  -8   5    2.26    0.37 
   5   8  -5    2.78    0.25 
   5   8   5    3.24    0.38 
   5  -8  -5    3.04    0.35 
   5   8   5    3.04    0.36 
  -5   8  -5    3.28    0.40 
   5  -8  -5    3.09    0.38 
   6  -8   5   68.42    2.08 
  -6   8   5   68.62    2.01 
   6  -8   5   69.52    2.10 
   6   8  -5   67.30    1.80 
   6   8  -5   68.21    1.80 
   6   8   5   60.01    1.76 
   6  -8  -5   60.18    1.78 
  -6   8  -5   57.36    1.82 
   6  -8  -5   58.81    1.75 
   6   8   5   57.07    1.80 
   6   8   5   57.39    1.76 
   7  -8   5    1.48    0.41 
   7  -8   5    1.48    0.40 
   7   8  -5    1.90    0.21 
   7   8   5    3.28    0.43 
   7   8   5    2.46    0.37 
   7   8   5    2.26    0.37 
   7  -8  -5    2.83    0.41 
   7  -8  -5    2.55    0.39 
   8  -8   5  115.22    3.24 
   8  -8   5  111.88    3.28 
   8   8   5  106.01    3.02 
   8   8   5  106.19    2.98 
   8  -8  -5  108.26    2.99 
   8  -8  -5  107.69    3.00 
   9  -8   5    0.67    0.47 
   9  -8   5    0.64    0.45 
   9   8   5    0.92    0.38 
   9  -8  -5    1.46    0.42 
   0   9  -5    0.08    0.18 
   0   9   5   -0.02    0.18 
   0  -9   5    0.62    0.21 
   0   9  -5    0.23    0.21 
   0   9   5    0.09    0.22 
   0  -9   5    0.34    0.19 
   1  -9   5    1.43    0.25 
  -1   9   5    1.76    0.29 
   1   9  -5    2.03    0.27 
   1   9  -5    1.60    0.24 
   1  -9   5    1.71    0.26 
  -1   9  -5    1.63    0.29 
   1  -9  -5    1.64    0.26 
  -1  -9   5    1.78    0.23 
   1   9   5    1.52    0.29 
  -1  -9   5    2.01    0.23 
   1   9   5    1.79    0.26 
  -1   9  -5    2.44    0.30 
  -2   9   5  118.29    3.17 
   2   9  -5  111.96    3.02 
   2  -9   5  113.33    3.12 
   2  -9   5  118.06    3.11 
   2   9  -5  119.80    3.09 
  -2  -9   5  138.06    3.63 
  -2   9  -5  143.68    3.80 
   2   9   5  140.80    3.79 
   2  -9  -5  142.85    3.72 
   2  -9  -5  142.20    3.71 
  -2  -9   5  148.23    3.62 
   2   9   5  143.78    3.69 
   3  -9   5    6.23    0.51 
   3  -9   5    6.67    0.51 
  -3   9   5    5.62    0.46 
   3   9  -5    6.55    0.40 
   3   9  -5    6.96    0.41 
  -3   9  -5    6.24    0.49 
   3   9   5    5.29    0.40 
   3  -9  -5    5.45    0.42 
   3  -9  -5    6.28    0.49 
   3   9   5    6.06    0.49 
   4  -9   5  146.73    4.01 
  -4   9   5  145.09    3.99 
   4  -9   5  152.01    3.96 
   4   9  -5  153.12    3.80 
   4   9  -5  153.03    3.87 
  -4   9  -5  161.42    4.33 
   4   9   5  161.86    4.31 
   4  -9  -5  163.22    4.22 
   4  -9  -5  163.65    4.25 
   5  -9   5    0.77    0.34 
   5  -9   5    1.91    0.37 
   5   9  -5    1.49    0.23 
  -5   9   5    1.37    0.30 
   5   9  -5    2.07    0.25 
   5  -9  -5    1.33    0.33 
   5  -9  -5    1.56    0.32 
   5   9   5    1.23    0.33 
   5   9   5    1.42    0.31 
  -5   9  -5    1.53    0.35 
   6   9  -5  105.78    2.73 
   6  -9   5  106.29    2.99 
   6   9  -5  102.52    2.69 
  -6   9   5  106.24    3.00 
   6  -9   5  101.30    2.94 
   6  -9  -5  103.42    2.91 
   6  -9  -5  104.52    2.91 
   6   9   5  104.65    2.91 
   6   9   5  106.11    2.97 
  -6   9  -5  107.05    3.00 
   6   9   5  104.68    2.90 
   7   9  -5    0.88    0.20 
   7  -9   5    0.94    0.40 
   7  -9   5    0.36    0.39 
   7  -9  -5    0.43    0.35 
   7   9   5    0.76    0.33 
   7  -9  -5    0.84    0.37 
   7   9   5    0.45    0.31 
   7   9   5    1.01    0.35 
   8  -9   5    4.53    0.59 
   8  -9   5    3.13    0.53 
   8   9  -5    3.89    0.29 
   8  -9  -5    3.93    0.50 
   8  -9  -5    3.21    0.50 
   8   9   5    4.37    0.51 
   8   9   5    5.31    0.54 
   9  -9   5    0.68    0.46 
   9  -9   5    0.41    0.48 
   9  -9  -5   -0.38    0.38 
   9   9   5    0.17    0.36 
   0  10  -5  207.21    5.27 
   0 -10   5  208.02    5.24 
   0  10  -5  204.97    5.36 
   0 -10   5  213.68    5.32 
   0  10   5  206.51    5.27 
   0  10   5  204.69    5.40 
  -1  10   5   34.66    1.20 
   1 -10   5   34.21    1.13 
   1 -10   5   35.19    1.15 
   1  10  -5   33.27    1.12 
   1  10  -5   34.78    1.14 
  -1 -10   5   35.79    1.13 
  -1 -10   5   37.19    1.12 
  -1  10  -5   36.48    1.22 
   1  10   5   36.01    1.18 
   1  10   5   35.93    1.24 
  -1  10  -5   36.48    1.21 
   2  10  -5  103.69    2.86 
  -2  10   5  104.20    2.94 
   2 -10   5  105.53    2.88 
   2 -10   5  106.68    2.90 
   2  10  -5  109.29    2.82 
   2  10   5  105.19    2.84 
  -2  10  -5  111.46    2.96 
  -2 -10   5  113.88    2.80 
   2 -10  -5  103.42    2.88 
  -2 -10   5  100.49    2.76 
   2 -10  -5  104.38    2.86 
   2  10   5  106.90    2.95 
   3 -10   5   20.13    0.87 
   3  10  -5   19.81    0.78 
  -3  10   5   20.97    0.88 
   3 -10   5   21.71    0.90 
   3  10  -5   21.29    0.78 
   3 -10  -5   19.20    0.84 
   3  10   5   21.03    0.86 
   3  10   5   18.62    0.77 
   3 -10  -5   19.72    0.82 
  -3  10  -5   19.51    0.86 
   4 -10   5    1.35    0.34 
   4  10  -5    1.42    0.24 
  -4  10   5    1.04    0.31 
   4  10  -5    1.39    0.27 
   4 -10   5    1.27    0.34 
   4  10   5    2.31    0.37 
   4 -10  -5    1.69    0.35 
  -4  10  -5    1.78    0.35 
   4 -10  -5    2.17    0.35 
   5  10  -5    8.88    0.50 
  -5  10   5    9.55    0.64 
   5 -10   5    9.59    0.70 
   5 -10   5    9.74    0.70 
   5  10  -5   10.10    0.50 
   5 -10  -5   11.01    0.71 
  -5  10  -5   10.95    0.73 
   5  10   5   11.16    0.70 
   5 -10  -5   11.99    0.70 
   6  10  -5   30.53    1.00 
   6 -10   5   31.95    1.26 
   6 -10   5   33.30    1.29 
   6  10  -5   31.81    1.02 
   6 -10  -5   32.68    1.26 
   6 -10  -5   34.51    1.23 
   6  10   5   33.69    1.23 
  -6  10  -5   32.00    1.27 
   6  10   5   33.09    1.28 
   7 -10   5   10.38    0.85 
   7 -10   5   11.10    0.86 
   7  10   5   13.88    0.83 
   7 -10  -5   12.61    0.84 
   7  10   5   13.12    0.79 
   7 -10  -5   12.76    0.79 
   8 -10   5   58.53    2.05 
   8 -10   5   62.00    2.06 
   8 -10  -5   57.35    1.87 
   8  10   5   55.61    1.89 
   8  10   5   62.04    1.91 
   8 -10  -5   58.29    1.91 
   9 -10   5    5.02    0.66 
   9 -10   5    4.63    0.66 
   9  10   5    5.10    0.58 
   9 -10  -5    4.73    0.61 
   0  11  -5    7.93    0.55 
   0  11  -5    7.66    0.53 
   0  11   5    9.01    0.60 
   0 -11   5    8.26    0.53 
   0 -11   5    7.56    0.51 
   1  11  -5    4.57    0.41 
   1  11  -5    4.42    0.40 
   1 -11   5    4.10    0.39 
  -1  11   5    4.72    0.46 
   1 -11   5    3.50    0.39 
  -1 -11   5    7.14    0.46 
  -1  11  -5    6.75    0.52 
  -1  11  -5    7.04    0.55 
  -1 -11   5    8.39    0.49 
   1  11   5    8.18    0.58 
   1  11   5    7.92    0.51 
   2 -11   5   87.89    2.50 
   2  11  -5   89.46    2.44 
  -2  11   5   88.15    2.56 
   2  11  -5   86.65    2.47 
   2 -11   5   89.82    2.49 
   2 -11  -5   66.63    1.94 
   2 -11  -5   66.10    1.98 
  -2 -11   5   69.40    1.87 
   2  11   5   67.70    1.95 
   2  11   5   66.03    2.02 
  -2  11  -5   64.88    2.01 
  -2 -11   5   65.77    1.83 
   3  11  -5    8.32    0.52 
  -3  11   5    8.29    0.60 
   3  11  -5    8.42    0.51 
   3 -11   5    8.19    0.61 
   3 -11   5    7.34    0.61 
  -3  11  -5    7.73    0.61 
   3  11   5    8.82    0.61 
   3 -11  -5    7.97    0.63 
   3 -11  -5    7.58    0.58 
   4 -11   5  134.86    3.59 
  -4  11   5  129.87    3.59 
   4  11  -5  129.59    3.39 
   4 -11   5  133.61    3.55 
   4  11  -5  121.24    3.44 
  -4  11  -5  136.00    3.76 
   4  11   5  134.69    3.75 
   4 -11  -5  136.65    3.67 
   4 -11  -5  137.67    3.67 
  -5  11   5    9.36    0.66 
   5 -11   5    8.76    0.71 
   5  11  -5    8.33    0.52 
   5 -11   5    8.32    0.65 
   5  11   5    8.32    0.66 
   5 -11  -5    8.13    0.66 
   5 -11  -5    7.80    0.59 
  -5  11  -5    8.34    0.67 
   6 -11   5   49.89    1.72 
   6 -11   5   47.80    1.68 
   6  11  -5   46.63    1.46 
   6 -11  -5   48.47    1.65 
   6  11   5   49.72    1.69 
   6  11   5   48.88    1.63 
   6 -11  -5   46.51    1.60 
  -6  11  -5   48.88    1.70 
   7 -11   5    0.94    0.44 
   7 -11   5    1.31    0.46 
   7  11   5    0.72    0.35 
   7  11   5    0.56    0.38 
   7 -11  -5    0.35    0.41 
   7 -11  -5    0.01    0.40 
   8 -11   5    3.43    0.61 
   8 -11   5    4.38    0.62 
   8 -11  -5    3.31    0.57 
   8  11   5    4.91    0.57 
   8 -11  -5    4.17    0.56 
   8  11   5    4.21    0.54 
   9 -11   5    3.77    0.65 
   9 -11   5    3.56    0.63 
   9  11  -5    3.27    0.33 
   9 -11  -5    4.49    0.65 
   0  12  -5   97.88    2.74 
   0 -12   5   95.33    2.64 
   0 -12   5   94.21    2.64 
   0  12   5   97.41    2.78 
   1 -12   5   19.38    0.84 
   1  12  -5   20.32    0.86 
  -1  12   5   18.05    0.89 
   1 -12   5   19.56    0.84 
  -1  12  -5   19.44    0.88 
   1  12   5   19.19    0.88 
  -1 -12   5   18.08    0.76 
   2 -12   5   63.69    1.95 
   2 -12   5   64.08    1.95 
  -2  12   5   65.49    2.03 
   2  12  -5   65.07    1.93 
   2  12   5   66.65    2.03 
  -2  12  -5   63.64    2.01 
   2 -12  -5   64.15    1.93 
   2 -12  -5   66.27    1.98 
   3 -12   5    1.82    0.38 
  -3  12   5    2.38    0.41 
   3 -12   5    1.83    0.37 
   3  12  -5    2.38    0.34 
  -3  12  -5    2.42    0.42 
   3 -12  -5    2.75    0.42 
   3  12   5    1.63    0.38 
   3 -12  -5    2.04    0.38 
   4 -12   5    3.13    0.46 
   4 -12   5    3.38    0.47 
  -4  12   5    2.88    0.45 
   4  12  -5    3.38    0.39 
   4 -12  -5    3.19    0.47 
   4 -12  -5    2.74    0.44 
  -4  12  -5    3.51    0.47 
   4  12   5    3.24    0.46 
  -5  12   5    2.19    0.42 
   5 -12   5    2.56    0.48 
   5 -12   5    2.63    0.46 
   5  12  -5    3.07    0.37 
  -5  12  -5    2.52    0.46 
   5 -12  -5    2.84    0.47 
   5 -12  -5    2.76    0.45 
   5  12   5    2.56    0.45 
   6 -12   5   18.10    1.04 
   6 -12   5   18.52    1.03 
   6  12  -5   19.63    0.82 
   6 -12  -5   20.86    1.01 
   6  12   5   20.76    1.01 
   6  12   5   19.63    1.03 
  -6  12  -5   19.61    1.06 
   6 -12  -5   20.97    1.07 
   7 -12   5   22.67    1.15 
   7 -12   5   18.41    1.11 
   7  12   5   14.90    0.92 
   7 -12  -5   13.79    0.94 
   7  12   5   13.94    0.88 
   7 -12  -5   13.79    0.97 
   8 -12   5   22.32    1.25 
   8 -12   5   22.93    1.26 
   8 -12  -5   26.39    1.24 
   8  12   5   25.44    1.20 
   8 -12  -5   27.52    1.29 
   8  12   5   24.26    1.19 
   9 -12   5    8.22    0.81 
   9 -12   5    6.37    0.77 
   0  13   5    0.34    0.30 
   0  13  -5    0.60    0.31 
   0 -13   5    0.40    0.26 
  -1  13   5   14.18    0.82 
   1  13  -5   13.20    0.75 
   1 -13   5   14.85    0.74 
   1 -13   5   14.00    0.77 
  -1 -13   5   15.00    0.69 
  -1  13  -5   15.01    0.81 
   1  13   5   14.11    0.81 
   2 -13   5   45.41    1.52 
   2  13  -5   44.92    1.52 
   2 -13   5   46.72    1.55 
  -2  13   5   46.85    1.62 
  -2  13  -5   58.19    1.90 
   2 -13  -5   59.03    1.81 
   2  13   5   57.59    1.91 
   2 -13  -5   61.15    1.87 
   3  13  -5   36.86    1.29 
   3 -13   5   37.07    1.35 
  -3  13   5   36.36    1.39 
   3 -13   5   36.26    1.37 
   3 -13  -5   36.85    1.32 
  -3  13  -5   36.71    1.39 
   3 -13  -5   39.43    1.39 
   3  13   5   36.26    1.40 
   4  13  -5   58.67    1.80 
   4 -13   5   55.44    1.87 
   4 -13   5   57.71    1.90 
  -4  13   5   57.93    1.92 
   4 -13  -5   63.19    1.95 
   4  13   5   64.01    2.02 
   4 -13  -5   63.58    2.01 
  -4  13  -5   57.42    2.01 
   5  13  -5   26.77    1.08 
   5 -13   5   28.48    1.25 
  -5  13   5   28.88    1.22 
   5 -13   5   28.00    1.24 
  -5  13  -5   30.06    1.27 
   5  13   5   28.88    1.25 
   5 -13  -5   30.31    1.28 
   5 -13  -5   28.48    1.21 
   6 -13   5   26.23    1.27 
   6  13  -5   28.93    1.09 
   6 -13   5   28.75    1.32 
   6 -13  -5   26.51    1.17 
   6  13   5   24.00    1.20 
   6  13   5   26.55    1.18 
   6 -13  -5   24.16    1.21 
  -6  13  -5   25.49    1.20 
   7 -13   5    7.28    0.75 
   7 -13   5    7.61    0.77 
   7 -13  -5    6.52    0.70 
   7  13   5    9.19    0.74 
   7  13   5    7.55    0.73 
   7 -13  -5    7.43    0.69 
   8 -13   5    1.88    0.57 
   8 -13   5    1.14    0.56 
   8 -13  -5    3.62    0.64 
   8 -13  -5    3.49    0.60 
   8  13   5    3.36    0.55 
   8  13   5    3.38    0.54 
   0  14  -5   64.38    2.02 
   0 -14   5   63.10    1.89 
   0  14   5   62.80    2.06 
  -1  14   5   39.54    1.51 
   1 -14   5   43.00    1.41 
   1  14  -5   41.16    1.46 
  -1 -14   5   31.42    1.09 
  -1  14  -5   30.09    1.23 
   1  14   5   31.51    1.27 
  -2  14   5   18.63    0.98 
   2 -14   5   18.47    0.92 
   2  14  -5   19.99    0.92 
   2  14   5   19.15    1.00 
   2 -14  -5   19.95    0.93 
  -2  14  -5   19.30    0.98 
   3  14  -5    9.98    0.69 
   3 -14   5    8.41    0.67 
  -3  14   5    9.24    0.76 
   3 -14   5    8.44    0.67 
   3  14   5    5.36    0.59 
  -3  14  -5    5.28    0.58 
   3 -14  -5    5.96    0.59 
   3 -14  -5    6.38    0.57 
   4 -14   5    2.14    0.49 
   4  14  -5    1.72    0.39 
  -4  14   5    1.79    0.45 
   4 -14   5    2.34    0.49 
   4 -14  -5    3.34    0.53 
   4  14   5    3.13    0.50 
   4 -14  -5    2.75    0.48 
  -4  14  -5    2.89    0.51 
   5  14  -5    4.86    0.52 
  -5  14   5    5.06    0.62 
   5 -14   5    4.73    0.60 
   5 -14   5    5.26    0.64 
   5 -14  -5    7.93    0.72 
   5 -14  -5    8.06    0.68 
   5  14   5    7.79    0.71 
  -5  14  -5    7.20    0.70 
   6 -14   5   14.65    1.05 
   6 -14   5   13.28    0.98 
   6  14  -5   12.83    0.77 
  -6  14  -5    9.92    0.84 
   6 -14  -5   11.02    0.81 
   6 -14  -5   11.06    0.86 
   6  14   5   11.70    0.90 
   7 -14   5   18.60    1.15 
   7 -14   5   18.10    1.19 
   7 -14  -5   25.91    1.27 
   7  14   5   26.82    1.32 
   7 -14  -5   27.48    1.39 
   7  14   5   28.56    1.30 
   8 -14   5   21.75    1.31 
   8 -14   5   19.07    1.21 
   8  14   5   16.29    1.07 
   8 -14  -5   18.19    1.15 
   8 -14  -5   18.90    1.24 
   0  15  -5    3.86    0.52 
   0 -15   5    3.75    0.45 
   0  15   5    3.53    0.52 
   1 -15   5   10.06    0.71 
   1  15  -5    8.71    0.70 
  -1  15   5    8.47    0.72 
  -1  15  -5    6.37    0.61 
  -1 -15   5    8.00    0.62 
   1  15   5    8.41    0.74 
  -2  15   5   21.71    1.11 
   2 -15   5   21.83    1.02 
   2  15  -5   22.63    1.03 
   2  15   5   17.38    0.98 
  -2  15  -5   18.77    1.00 
   3  15  -5   56.30    1.84 
  -3  15   5   53.56    1.93 
   3 -15   5   55.29    1.85 
   3  15   5   49.06    1.82 
   3 -15  -5   53.47    1.84 
  -3  15  -5   54.65    1.87 
   3 -15  -5   53.08    1.76 
  -4  15   5   25.24    1.22 
   4 -15   5   24.17    1.17 
   4  15  -5   26.14    1.11 
  -4  15  -5   19.15    1.09 
   4 -15  -5   23.81    1.10 
   4 -15  -5   22.32    1.15 
   4  15   5   21.25    1.11 
  -5  15   5   40.63    1.65 
   5 -15   5   41.98    1.61 
   5  15  -5   42.50    1.51 
  -5  15  -5   41.08    1.64 
   5  15   5   40.70    1.63 
   5 -15  -5   41.37    1.65 
   5 -15  -5   41.39    1.56 
   6 -15   5   11.12    0.87 
   6  15  -5   12.14    0.79 
  -6  15  -5   12.18    1.00 
   6 -15  -5   11.77    0.90 
   6 -15  -5   13.26    1.02 
   6  15   5   13.25    0.98 
   7 -15   5    5.30    0.72 
   7  15   5    6.30    0.74 
   7 -15  -5    6.83    0.77 
   7  15   5    5.78    0.69 
   7 -15  -5    7.21    0.74 
   8  15   5    2.23    0.56 
   0 -16   5   17.91    0.90 
   0  16  -5   19.26    1.01 
   0  16   5   18.23    1.04 
   1  16  -5   98.65    2.94 
   1 -16   5   98.62    2.82 
  -1  16   5   97.96    3.02 
  -1  16  -5   92.70    2.88 
  -1 -16   5   94.84    2.68 
   1  16   5   98.21    2.95 
   2  16  -5   17.33    0.96 
  -2  16   5   13.85    1.01 
   2 -16   5   15.11    0.90 
   2  16   5   12.74    0.90 
  -2  16  -5   12.78    0.91 
   3 -16   5   22.70    1.12 
   3  16  -5   24.28    1.13 
  -3  16   5   22.75    1.22 
   3  16   5   29.53    1.32 
  -3  16  -5   27.66    1.33 
   3 -16  -5   27.92    1.26 
   4  16  -5    0.93    0.38 
  -4  16   5    0.64    0.44 
   4 -16   5    0.24    0.45 
   4 -16  -5    0.70    0.47 
   4 -16  -5    0.64    0.47 
   4  16   5    0.05    0.41 
  -4  16  -5    0.24    0.44 
   5  16  -5    8.01    0.70 
  -5  16   5    8.12    0.80 
   5 -16   5    8.28    0.77 
   5 -16  -5    6.47    0.68 
   5  16   5    5.67    0.71 
  -5  16  -5    6.62    0.73 
   5 -16  -5    6.18    0.73 
   6 -16   5    1.65    0.58 
   6  16  -5    1.98    0.45 
  -6  16  -5    2.77    0.62 
   6 -16  -5    2.81    0.63 
   6  16   5    2.58    0.59 
   6 -16  -5    1.55    0.56 
   7  16   5   23.61    1.36 
   7 -16  -5   27.85    1.46 
   7 -16  -5   29.23    1.51 
   0  17  -5    0.52    0.41 
   0 -17   5    0.55    0.37 
   0  17   5    0.41    0.43 
   1  17  -5   18.15    1.07 
   1 -17   5   19.98    1.02 
  -1  17   5   18.02    1.11 
  -1  17  -5   22.65    1.18 
   1  17   5   20.58    1.18 
  -2  17   5    0.39    0.43 
   2 -17   5    0.39    0.42 
   2  17  -5    0.68    0.41 
  -2  17  -5    1.98    0.50 
   2  17   5    1.62    0.51 
  -3  17   5   76.56    2.56 
   3 -17   5   76.16    2.41 
   3  17  -5   77.23    2.46 
  -3  17  -5   81.41    2.65 
   3  17   5   82.11    2.67 
   4  17  -5    1.29    0.44 
  -4  17   5    1.60    0.52 
   4 -17   5    0.95    0.50 
  -4  17  -5    1.24    0.54 
   4  17   5    1.51    0.52 
   4 -17  -5    1.50    0.53 
   5  17  -5   63.04    2.13 
   5 -17   5   64.95    2.21 
   5  17   5   68.26    2.43 
   5 -17  -5   71.85    2.35 
  -5  17  -5   70.88    2.44 
   6  17  -5    1.02    0.43 
   6  17   5    1.36    0.55 
   6 -17  -5    0.74    0.59 
   0 -18   5    1.23    0.43 
   0  18  -5    1.55    0.51 
   0  18   5    1.25    0.52 
   1 -18   5   80.84    2.46 
  -1  18   5   82.70    2.70 
   1  18  -5   78.20    2.61 
   1  18   5   85.04    2.78 
  -1  18  -5   84.51    2.74 
   2  18  -5    0.83    0.46 
   2 -18   5    1.20    0.46 
  -2  18   5    0.85    0.51 
  -2  18  -5    1.02    0.49 
   2  18   5    0.45    0.48 
  -3  18   5   16.59    1.19 
   3 -18   5   18.91    1.13 
   3  18  -5   18.47    1.08 
   3  18   5   14.14    1.06 
  -3  18  -5   12.62    1.03 
   4  18  -5    2.05    0.52 
   4 -18   5    1.22    0.53 
  -4  18   5    1.30    0.54 
   4  18   5    2.90    0.61 
  -4  18  -5    1.75    0.56 
   4 -18  -5    2.64    0.59 
   5  18  -5    5.00    0.64 
  -5  18  -5    5.66    0.79 
   6  18  -5    1.65    0.54 
   0  19   5    1.94    0.60 
   0 -19   5    1.14    0.44 
   0  19  -5    0.99    0.52 
   1  19  -5   13.67    1.04 
  -1  19   5   14.54    1.13 
   1 -19   5   13.58    0.96 
   1  19   5   11.93    1.01 
  -1  19  -5   12.21    1.01 
  -2  19   5    4.64    0.72 
   2 -19   5    4.94    0.64 
   2  19  -5    4.19    0.67 
   2  19   5    3.89    0.68 
  -2  19  -5    5.50    0.74 
   3 -19   5   62.43    2.10 
  -3  19   5   61.43    2.27 
   3  19  -5   55.62    2.11 
  -3  19  -5   51.90    2.07 
   3  19   5   54.34    2.11 
   4  19  -5    4.65    0.74 
  -4  19   5    7.30    0.86 
  -4  19  -5    5.81    0.81 
  -5  19  -5   35.97    1.70 
   0  20   5   16.18    1.22 
   0  20  -5   17.86    1.26 
   1 -20   5   43.96    1.66 
  -1  20   5   45.93    1.94 
   1  20   5   45.00    2.08 
  -1  20  -5   45.82    2.04 
  -2  20   5    9.34    0.96 
  -3  20   5   12.59    1.09 
  -4  20   5    0.38    0.57 
   0   0   6   37.21    1.01 
   0   0  -6   36.55    1.01 
   0   0  -6   37.35    1.03 
   0   0  -6   36.52    1.04 
   0   0   6   34.15    1.04 
   0   0   6   38.95    1.03 
   1   0   6   46.65    1.34 
   1   0  -6   49.14    1.27 
  -1   0   6   48.45    1.26 
   1   0  -6   50.73    1.29 
   1   0  -6   46.38    1.29 
  -1   0   6   48.57    1.30 
   1   0   6   48.19    1.30 
  -1   0   6   47.47    1.27 
  -1   0  -6   48.91    1.30 
  -1   0  -6   46.41    1.33 
   1   0   6   48.94    1.32 
   2   0   6    5.28    0.30 
   2   0  -6    4.50    0.22 
   2   0   6    4.92    0.29 
   2   0  -6    5.01    0.22 
  -2   0  -6    5.02    0.26 
  -2   0   6    4.80    0.21 
   2   0  -6    4.69    0.23 
  -2   0  -6    4.71    0.26 
  -2   0   6    4.67    0.18 
   2   0   6    3.94    0.29 
  -2   0   6    4.57    0.22 
  -2   0   6    4.78    0.20 
  -2   0   6    4.75    0.18 
  -3   0  -6  267.22    6.81 
   3   0   6  273.50    6.71 
   3   0   6  271.74    6.86 
   3   0  -6  271.56    6.74 
  -3   0   6  268.90    6.72 
   3   0   6  278.01    6.85 
   3   0  -6  277.86    6.74 
   3   0  -6  278.98    6.61 
   4   0  -6   17.16    0.53 
   4   0  -6   18.01    0.52 
   4   0   6   17.00    0.64 
   4   0  -6   18.23    0.51 
  -4   0  -6   17.47    0.59 
   4   0   6   17.85    0.66 
   5   0  -6  139.46    3.49 
   5   0  -6  143.46    3.49 
   5   0   6  141.21    3.66 
   5   0  -6  136.44    3.43 
   5   0   6  140.16    3.59 
   6   0   6    3.76    0.35 
   6   0  -6    3.87    0.23 
   6   0   6    4.45    0.37 
   6   0  -6    4.00    0.25 
   7   0   6   29.68    1.04 
   7   0   6   29.22    1.04 
   7   0  -6   28.64    0.82 
   8   0  -6    2.02    0.20 
   8   0   6    2.06    0.36 
   8   0   6    2.08    0.37 
   9   0  -6   10.95    0.46 
   9   0   6   12.30    0.77 
  10   0   6   -0.03    0.34 
   0  -1  -6   29.37    0.90 
   0  -1   6   30.42    0.88 
   0  -1  -6   30.70    0.88 
   0  -1  -6   31.48    0.88 
   0   1  -6   32.49    0.88 
   0   1   6   31.21    0.91 
   0  -1   6   28.88    0.86 
   0  -1   6   31.95    0.91 
   0   1   6   29.16    0.87 
   0   1  -6   30.86    0.90 
   0   1   6   32.40    0.89 
   1  -1   6  594.81   14.23 
  -1   1   6  566.68   14.58 
  -1   1   6  608.50   14.76 
   1  -1   6  581.21   14.71 
  -1   1   6  578.96   14.37 
  -1  -1  -6  587.21   14.52 
   1   1  -6  583.03   14.59 
  -1  -1  -6  575.42   14.23 
   1   1  -6  586.88   14.19 
   1  -1   6  609.92   14.81 
   1   1  -6  661.29   14.73 
  -1  -1  -6  563.24   14.53 
  -1  -1   6  640.67   15.09 
   1  -1  -6  626.22   15.10 
   1   1   6  657.10   15.53 
  -1   1  -6  641.75   15.46 
   1  -1  -6  654.94   15.48 
  -1  -1   6  610.99   15.56 
   1  -1  -6  609.17   15.49 
  -1   1  -6  601.22   15.02 
   1   1   6  616.86   15.16 
  -1  -1   6  599.54   15.46 
  -1   1  -6  611.72   15.33 
   2  -1   6   39.24    1.09 
  -2  -1  -6   36.20    1.07 
   2   1  -6   37.90    1.02 
  -2   1   6   38.32    1.00 
  -2   1   6   38.58    1.05 
   2   1  -6   38.73    1.03 
  -2   1   6   38.15    1.01 
  -2  -1  -6   38.10    1.07 
   2   1  -6   36.92    1.00 
  -2  -1  -6   37.52    1.10 
   2  -1   6   38.20    1.10 
  -2   1   6   38.87    1.01 
  -2   1   6   38.79    1.01 
   2  -1  -6   29.45    0.87 
  -2  -1   6   30.64    0.80 
   2   1   6   32.91    0.96 
  -2   1  -6   30.67    0.91 
   2   1   6   30.02    0.91 
   2  -1  -6   30.00    0.86 
   2  -1  -6   30.59    0.86 
   2   1   6   30.28    0.91 
  -2   1  -6   32.62    0.95 
  -2   1  -6   32.06    0.91 
   3  -1   6   82.66    2.26 
  -3  -1  -6   87.56    2.26 
   3   1  -6   88.52    2.18 
   3   1  -6   86.96    2.15 
  -3   1   6   84.82    2.12 
   3  -1   6   87.54    2.31 
   3   1  -6   87.76    2.19 
   3   1   6  104.20    2.62 
  -3   1  -6   99.42    2.65 
   3  -1  -6  104.49    2.60 
   3  -1  -6  102.04    2.56 
   3   1   6  102.32    2.67 
   3   1   6   98.31    2.69 
   4   1  -6    9.57    0.31 
   4   1  -6    9.30    0.30 
   4   1  -6    9.29    0.28 
   4   1  -6    9.15    0.31 
  -4   1   6    9.11    0.32 
   4  -1   6    9.30    0.45 
   4  -1   6    9.13    0.45 
   4  -1  -6   12.98    0.45 
   4   1   6   13.31    0.58 
   4  -1  -6   14.23    0.44 
   4   1   6   14.18    0.56 
  -4   1  -6   14.11    0.51 
   4   1   6   13.76    0.55 
   4  -1  -6   13.29    0.45 
   5  -1   6   40.78    1.25 
   5  -1   6   40.87    1.24 
   5  -1  -6   32.00    0.91 
   5  -1  -6   31.35    0.92 
  -5   1  -6   33.01    0.98 
   5  -1  -6   33.55    0.91 
   5   1   6   33.66    1.05 
   5   1   6   32.87    1.04 
   6  -1   6   12.51    0.61 
   6  -1   6   12.13    0.59 
   6   1  -6   11.43    0.37 
   6  -1  -6   15.96    0.53 
  -6   1  -6   16.19    0.66 
   6  -1  -6   15.94    0.54 
   6   1   6   16.40    0.68 
   6   1   6   16.20    0.69 
   6  -1  -6   15.60    0.52 
   7   1  -6   94.51    2.38 
   7  -1   6  101.02    2.67 
   7  -1   6   94.59    2.68 
   7  -1  -6   88.35    2.33 
   7   1   6   94.41    2.55 
   7   1   6   92.28    2.51 
   8   1  -6    2.43    0.18 
   8  -1   6    2.08    0.38 
   8  -1   6    2.55    0.39 
   8  -1  -6    2.52    0.25 
   8   1   6    2.59    0.37 
   8   1   6    2.12    0.35 
   9  -1   6   71.31    2.16 
   9   1   6   66.19    2.04 
   9  -1  -6   67.45    1.79 
  10  -1   6    3.29    0.49 
  10   1   6    3.43    0.48 
  10  -1  -6    2.98    0.29 
   0  -2  -6  221.20    5.52 
   0  -2   6  234.46    5.62 
   0   2   6  227.03    5.63 
   0   2   6  220.40    5.52 
   0   2  -6  225.81    5.52 
   0  -2  -6  203.21    5.62 
   0   2  -6  239.77    5.64 
   0   2  -6  224.54    5.62 
   0   2   6  233.00    5.65 
   1  -2   6  114.72    2.84 
  -1   2   6  116.28    2.86 
  -1  -2  -6  112.39    2.83 
  -1   2   6  113.88    2.84 
  -1   2   6  109.53    2.88 
   1   2  -6  115.08    2.85 
   1   2  -6  105.49    2.79 
  -1  -2  -6  105.73    2.88 
   1  -2   6  116.73    2.89 
   1   2  -6  112.13    2.86 
   1   2   6   92.54    2.37 
  -1  -2   6   90.99    2.27 
  -1  -2   6   94.59    2.31 
  -1   2  -6   91.62    2.33 
   1  -2  -6   86.16    2.35 
  -1   2  -6   86.46    2.36 
   1   2   6   92.75    2.33 
   1   2   6   91.15    2.39 
   2   2  -6   44.34    1.21 
  -2   2   6   46.44    1.23 
  -2  -2  -6   46.78    1.26 
   2   2  -6   45.42    1.22 
  -2   2   6   46.37    1.21 
   2   2  -6   44.37    1.19 
  -2   2   6   45.99    1.26 
   2  -2   6   46.80    1.28 
   2  -2   6   45.07    1.29 
  -2   2   6   47.25    1.23 
   2  -2  -6   47.81    1.29 
   2   2   6   44.46    1.34 
   2   2   6   47.18    1.30 
  -2   2  -6   46.58    1.30 
  -2   2  -6   46.58    1.31 
  -2  -2   6   48.89    1.18 
   2   2   6   47.80    1.32 
   3   2  -6  381.50    8.85 
   3   2  -6  354.58    8.66 
   3   2  -6  358.10    8.83 
   3  -2   6  360.30    8.98 
  -3   2   6  353.00    8.85 
   3  -2   6  355.39    8.79 
  -3   2   6  365.18    8.84 
  -3   2   6  351.70    8.67 
  -3   2   6  363.78    8.88 
   3   2   6  362.61    8.96 
   3   2   6  360.32    8.96 
   3   2   6  354.95    8.77 
   3  -2  -6  369.22    8.87 
  -3   2  -6  351.33    8.94 
   3  -2  -6  360.80    8.88 
   4  -2   6   24.30    0.81 
   4   2  -6   23.76    0.64 
   4  -2   6   22.66    0.81 
   4   2  -6   23.68    0.63 
   4   2   6   17.71    0.66 
   4  -2  -6   19.31    0.60 
  -4   2  -6   19.20    0.65 
   4   2   6   18.50    0.70 
   4   2   6   17.63    0.66 
   4  -2  -6   18.35    0.59 
   4  -2  -6   17.86    0.57 
   5  -2   6  212.79    5.51 
   5  -2   6  221.32    5.41 
  -5   2   6  212.72    5.33 
   5   2   6  227.17    5.85 
   5   2   6  236.33    5.83 
   5   2   6  231.96    5.72 
   5  -2  -6  222.15    5.72 
   5  -2  -6  238.61    5.72 
  -5   2  -6  224.23    5.77 
   5  -2  -6  226.20    5.61 
   6  -2   6   13.74    0.65 
   6  -2   6   14.32    0.67 
   6   2   6   10.60    0.54 
   6  -2  -6   10.69    0.43 
   6  -2  -6    9.40    0.44 
  -6   2  -6   10.55    0.45 
   6   2   6    9.83    0.55 
   6  -2  -6    9.83    0.42 
  -6   2  -6   10.61    0.54 
   7  -2   6   35.45    1.23 
   7  -2   6   34.91    1.21 
   7   2   6   42.90    1.35 
   7  -2  -6   42.35    1.21 
   7  -2  -6   42.39    1.24 
   7   2   6   41.27    1.34 
   8  -2   6    8.98    0.65 
   8  -2   6   10.60    0.69 
   8   2   6   10.08    0.64 
   8   2   6   10.69    0.64 
   8  -2  -6   10.30    0.51 
   9  -2   6    1.97    0.41 
   9  -2  -6    1.50    0.27 
   9   2   6    1.30    0.36 
  10  -2   6    5.19    0.59 
  10  -2  -6    4.41    0.37 
  10   2   6    4.96    0.54 
   0  -3   6  129.00    3.18 
   0   3   6  128.09    3.19 
   0   3   6  120.23    3.20 
   0   3   6  126.24    3.14 
   0   3  -6  123.81    3.19 
   0  -3  -6  126.15    3.20 
   0   3  -6  118.78    3.12 
  -1   3   6  316.02    8.18 
   1   3  -6  332.71    8.17 
  -1   3   6  335.62    8.02 
  -1  -3  -6  324.21    8.19 
  -1   3   6  334.31    8.20 
   1  -3   6  338.15    8.21 
   1   3  -6  335.95    8.00 
   1  -3   6  321.61    8.04 
  -1   3   6  333.73    8.17 
   1  -3  -6  320.45    8.43 
  -1  -3   6  355.05    8.24 
   1   3   6  350.40    8.47 
  -1   3  -6  344.41    8.47 
   1   3   6  338.34    8.47 
  -1   3  -6  337.80    8.29 
  -1  -3   6  333.10    8.40 
   1   3   6  347.31    8.30 
  -2   3   6  119.78    3.17 
   2  -3   6  122.79    3.23 
   2   3  -6  129.94    3.15 
  -2   3   6  124.74    3.12 
   2   3  -6  124.60    3.09 
   2  -3   6  125.29    3.18 
  -2   3   6  127.56    3.18 
   2   3  -6  122.85    3.16 
  -2   3   6  126.82    3.21 
  -2   3  -6  105.16    2.82 
  -2   3  -6  113.56    2.93 
   2   3   6  107.49    2.87 
  -2  -3   6  118.77    2.70 
   2  -3  -6  107.71    2.84 
   2   3   6  108.43    2.89 
   2   3   6  111.17    2.83 
  -3   3   6   34.48    0.92 
   3  -3   6   33.47    1.03 
  -3   3   6   33.03    0.92 
   3  -3   6   33.58    1.03 
  -3   3   6   33.30    0.93 
   3   3  -6   33.22    0.89 
  -3   3   6   33.62    0.97 
   3   3  -6   32.81    0.89 
   3   3  -6   32.47    0.91 
   3   3   6   38.05    1.16 
   3  -3  -6   36.74    1.08 
   3   3   6   37.04    1.12 
   3  -3  -6   37.70    1.07 
   3   3   6   40.55    1.13 
   3  -3  -6   37.94    1.06 
  -4   3   6   12.25    0.48 
  -4   3   6   13.44    0.43 
   4  -3   6   14.41    0.60 
   4  -3   6   13.10    0.57 
   4   3  -6   13.19    0.39 
   4   3  -6   13.51    0.40 
   4   3   6   13.47    0.56 
   4  -3  -6   14.72    0.53 
   4   3   6   14.82    0.62 
   4   3   6   14.63    0.58 
   4  -3  -6   14.01    0.52 
   4  -3  -6   14.78    0.50 
   5  -3   6   22.12    0.83 
   5  -3   6   22.75    0.85 
   5  -3  -6   25.25    0.77 
   5   3   6   22.78    0.89 
   5  -3  -6   24.09    0.79 
   5  -3  -6   25.29    0.79 
   5   3   6   24.91    0.86 
  -5   3  -6   24.78    0.88 
   5   3   6   25.47    0.86 
   6  -3   6   17.59    0.77 
  -6   3   6   17.57    0.57 
   6  -3   6   19.90    0.80 
   6   3   6   17.63    0.72 
   6   3   6   17.67    0.76 
   6   3   6   17.13    0.70 
   6  -3  -6   16.59    0.63 
  -6   3  -6   17.99    0.73 
   6  -3  -6   17.01    0.62 
   6  -3  -6   16.88    0.63 
   7  -3   6   94.08    2.60 
   7  -3   6   91.78    2.62 
   7  -3  -6  105.48    2.69 
   7   3   6   97.39    2.79 
   7  -3  -6  101.66    2.65 
  -7   3  -6  101.82    2.86 
   7   3   6  103.10    2.77 
   8  -3   6   20.03    0.94 
   8  -3   6   21.10    0.94 
   8   3   6   22.85    0.94 
   8  -3  -6   22.49    0.83 
   8   3   6   23.81    0.94 
   9  -3   6   57.81    1.89 
   9  -3  -6   63.44    1.78 
   9   3   6   63.49    1.94 
  10  -3   6    8.70    0.71 
  10   3   6    9.68    0.76 
  10  -3  -6   10.37    0.60 
   0   4   6   14.93    0.53 
   0  -4  -6   14.38    0.53 
   0  -4   6   14.16    0.51 
   0   4   6   13.77    0.55 
   0   4  -6   13.92    0.51 
   0   4  -6   15.05    0.52 
  -1   4   6   44.70    1.23 
   1   4  -6   43.63    1.22 
  -1   4   6   42.90    1.22 
   1   4  -6   42.85    1.20 
   1  -4   6   45.69    1.26 
   1  -4   6   45.17    1.25 
  -1   4   6   44.64    1.27 
   1  -4  -6   42.75    1.22 
  -1  -4   6   42.91    1.15 
  -1  -4   6   41.33    1.14 
   1   4   6   41.06    1.21 
   1   4   6   43.44    1.22 
   1   4   6   41.34    1.23 
  -1   4  -6   43.78    1.21 
  -2   4   6  112.05    2.84 
   2  -4   6  111.67    2.85 
   2   4  -6  108.77    2.75 
   2  -4   6  114.18    2.90 
  -2   4   6  109.89    2.84 
  -2   4   6  105.57    2.87 
   2   4  -6  109.67    2.80 
  -2   4  -6  111.85    2.91 
   2   4   6  112.42    2.91 
   2  -4  -6  114.30    2.90 
   2   4   6  111.94    2.94 
  -2  -4   6  113.31    2.80 
   2  -4  -6  112.41    2.94 
   2   4   6  110.11    2.97 
  -2  -4   6  118.67    2.79 
   3  -4   6  218.44    5.30 
  -3   4   6  218.71    5.30 
  -3   4   6  211.46    5.21 
   3   4  -6  210.30    5.15 
  -3   4   6  209.62    5.34 
  -3   4   6  208.33    5.31 
   3   4  -6  209.80    5.24 
   3  -4   6  209.87    5.39 
   3   4  -6  210.87    5.25 
   3  -4  -6  194.24    4.96 
   3  -4  -6  195.57    4.86 
   3   4   6  204.17    4.91 
   3   4   6  192.33    4.99 
   3  -4  -6  193.53    4.93 
   3   4   6  198.16    5.01 
   4  -4   6  149.38    3.91 
   4   4  -6  147.19    3.66 
   4   4  -6  144.96    3.72 
   4   4  -6  153.76    3.72 
  -4   4   6  149.56    3.83 
  -4   4   6  149.14    3.76 
  -4   4   6  150.94    3.72 
  -4   4   6  147.53    3.77 
   4   4  -6  153.15    3.71 
   4  -4   6  154.39    3.86 
  -4   4  -6  161.53    4.17 
   4  -4  -6  159.48    4.03 
   4  -4  -6  157.73    4.11 
   4   4   6  158.21    4.19 
   4   4   6  163.30    4.08 
   4   4   6  162.80    4.15 
   4  -4  -6  165.04    4.09 
   5  -4   6  169.04    4.40 
   5  -4   6  166.12    4.33 
   5   4  -6  168.95    4.08 
  -5   4   6  170.42    4.28 
   5   4   6  173.89    4.39 
   5  -4  -6  176.67    4.38 
   5  -4  -6  170.86    4.32 
   5  -4  -6  172.15    4.41 
   5   4   6  174.74    4.45 
   5   4   6  173.31    4.49 
  -5   4  -6  166.85    4.47 
   6  -4   6   36.28    1.21 
   6  -4   6   33.72    1.19 
   6   4   6   45.13    1.37 
   6   4   6   45.77    1.42 
   6  -4  -6   42.58    1.30 
  -6   4  -6   45.37    1.41 
   6  -4  -6   44.73    1.30 
   6   4   6   43.38    1.37 
   7  -4   6   23.06    0.97 
   7  -4   6   23.94    0.99 
  -7   4  -6   25.50    0.97 
   7   4   6   24.65    0.93 
   7  -4  -6   23.15    0.85 
   7  -4  -6   23.51    0.86 
   7   4   6   25.29    0.93 
   8  -4   6   11.34    0.78 
   8  -4   6   11.42    0.78 
   8  -4  -6   11.93    0.62 
   8   4   6   11.54    0.69 
   9  -4   6    2.59    0.49 
   9  -4   6    2.78    0.48 
   9  -4  -6    2.25    0.35 
   9   4   6    2.39    0.41 
  10  -4   6   11.82    0.91 
  10  -4  -6   10.27    0.65 
  10   4   6    9.38    0.69 
   0   5   6  339.23    8.41 
   0   5  -6  342.12    8.23 
   0  -5   6  341.92    8.38 
   0   5   6  325.51    8.22 
   1   5  -6  207.93    5.21 
   1   5  -6  212.40    5.30 
   1  -5   6  212.41    5.34 
  -1   5   6  209.38    5.23 
  -1   5   6  209.63    5.36 
  -1   5   6  209.61    5.35 
   1  -5   6  216.45    5.24 
   1   5  -6  211.96    5.32 
  -1   5  -6  229.78    5.65 
   1   5   6  218.27    5.76 
  -1  -5   6  232.88    5.58 
   1  -5  -6  223.97    5.73 
  -1  -5   6  233.36    5.68 
  -2   5   6  194.61    4.73 
  -2   5   6  179.92    4.69 
   2  -5   6  191.81    4.74 
   2   5  -6  174.12    4.64 
   2  -5   6  178.84    4.64 
   2   5  -6  187.19    4.56 
   2   5  -6  188.77    4.64 
  -2   5  -6  209.65    5.14 
   2  -5  -6  193.97    5.11 
  -2  -5   6  213.28    4.92 
   2   5   6  201.94    5.04 
   2   5   6  200.19    5.14 
  -2   5  -6  198.12    5.04 
  -2  -5   6  200.59    4.98 
   2  -5  -6  196.33    5.07 
   3  -5   6   58.80    1.69 
  -3   5   6   58.23    1.63 
   3  -5   6   61.84    1.68 
   3   5  -6   57.43    1.54 
  -3   5   6   57.62    1.66 
   3   5  -6   59.87    1.56 
   3   5  -6   59.89    1.56 
   3   5   6   62.24    1.71 
  -3   5  -6   62.58    1.74 
   3   5   6   58.42    1.74 
   3   5   6   60.40    1.70 
   3  -5  -6   60.45    1.69 
   3  -5  -6   60.20    1.66 
   3  -5  -6   62.12    1.67 
  -4   5   6   58.42    1.65 
   4  -5   6   59.10    1.76 
   4   5  -6   60.98    1.57 
   4   5  -6   62.11    1.57 
   4   5  -6   61.46    1.56 
  -4   5   6   62.55    1.64 
   4  -5   6   59.24    1.74 
  -4   5   6   60.79    1.70 
   4  -5  -6   62.16    1.71 
   4   5   6   65.25    1.78 
  -4   5  -6   60.76    1.79 
   4  -5  -6   63.34    1.71 
   4   5   6   61.34    1.79 
   4  -5  -6   60.23    1.75 
   4   5   6   64.38    1.76 
  -5   5   6    9.97    0.48 
  -5   5   6    9.88    0.37 
   5   5  -6   10.18    0.36 
   5  -5   6   10.20    0.59 
   5  -5   6   10.51    0.59 
  -5   5   6    9.94    0.37 
   5   5   6   10.88    0.58 
   5   5   6    9.71    0.54 
   5  -5  -6   10.59    0.50 
  -5   5  -6    9.76    0.56 
   5  -5  -6    8.85    0.47 
   5   5   6    9.49    0.52 
   5  -5  -6   10.52    0.51 
   6  -5   6   64.94    1.96 
  -6   5   6   64.79    1.84 
   6  -5   6   68.73    1.98 
   6  -5  -6   57.46    1.60 
  -6   5  -6   54.35    1.70 
   6  -5  -6   55.75    1.61 
   6   5   6   55.99    1.71 
   6   5   6   56.74    1.66 
   6   5   6   55.63    1.66 
   7  -5   6   39.08    1.36 
   7  -5   6   37.70    1.35 
   7   5   6   29.99    1.09 
   7  -5  -6   30.74    1.06 
   7   5   6   31.34    1.14 
   7   5   6   32.49    1.12 
   7  -5  -6   32.61    1.05 
  -7   5  -6   30.46    1.14 
   8  -5   6   68.82    2.19 
   8  -5   6   72.14    2.16 
   8  -5  -6   61.52    1.83 
   8   5   6   64.72    1.91 
   9  -5   6   34.37    1.40 
   9  -5   6   34.91    1.39 
   9   5   6   30.60    1.20 
   9  -5  -6   32.33    1.13 
  10  -5   6   22.99    1.18 
  10   5   6   20.95    1.01 
  10  -5  -6   20.27    0.92 
   0   6  -6   98.17    2.56 
   0  -6   6  102.49    2.55 
   0   6   6  103.25    2.62 
   0   6   6   97.36    2.53 
   0  -6   6   85.16    2.48 
   0   6  -6   94.77    2.53 
  -1   6   6  122.11    3.16 
   1   6  -6  122.21    3.15 
  -1   6   6  118.91    3.20 
   1  -6   6  122.14    3.13 
   1   6  -6  122.29    3.10 
   1  -6   6  122.48    3.18 
   1   6   6  135.41    3.54 
  -1  -6   6  140.41    3.40 
  -1   6  -6  133.71    3.46 
  -1  -6   6  131.40    3.44 
  -1   6  -6  134.45    3.51 
   2  -6   6  153.84    3.95 
   2   6  -6  151.16    3.87 
  -2   6   6  151.57    3.94 
   2   6  -6  147.81    3.80 
   2  -6   6  156.45    3.89 
   2  -6  -6  126.17    3.49 
   2  -6  -6  134.80    3.46 
   2   6   6  126.68    3.52 
  -2  -6   6  138.10    3.37 
  -2   6  -6  133.53    3.47 
   2  -6  -6  135.35    3.43 
  -2   6  -6  138.44    3.53 
  -2  -6   6  142.12    3.34 
  -3   6   6   82.08    2.23 
  -3   6   6   80.60    2.21 
   3   6  -6   82.31    2.10 
   3  -6   6   80.28    2.26 
   3   6  -6   80.06    2.12 
   3  -6   6   82.74    2.23 
   3  -6  -6   93.06    2.57 
   3  -6  -6   96.79    2.53 
   3  -6  -6   96.53    2.54 
  -3   6  -6   94.72    2.61 
   3   6   6   95.68    2.62 
   3   6   6   99.21    2.57 
  -4   6   6  246.07    6.13 
   4  -6   6  241.02    6.07 
   4  -6   6  243.95    6.20 
  -4   6   6  230.25    6.09 
   4   6  -6  238.13    5.99 
   4   6  -6  244.32    5.89 
   4   6  -6  246.65    5.99 
   4   6   6  232.56    5.72 
  -4   6  -6  220.47    5.83 
   4  -6  -6  231.27    5.68 
   4  -6  -6  222.35    5.79 
   4   6   6  221.03    5.80 
   4   6   6  232.65    5.85 
   4  -6  -6  234.62    5.76 

  -5   6   6   88.40    2.27 
   5  -6   6   90.72    2.43 
  -5   6   6   89.38    2.37 
   5   6  -6   84.25    2.20 
   5   6  -6   86.88    2.18 
   5   6  -6   86.74    2.20 
  -5   6   6   83.77    2.27 
   5  -6   6   81.63    2.44 
   5   6   6   90.11    2.46 
   5  -6  -6   89.15    2.40 
  -5   6  -6   89.09    2.50 
   5   6   6   89.98    2.50 
   5   6   6   90.94    2.43 
   5  -6  -6   84.42    2.43 
   5  -6  -6   88.45    2.39 
   6   6  -6  116.78    2.80 
  -6   6   6  114.63    3.07 
   6  -6   6  111.26    3.09 
   6  -6   6  109.53    3.14 
   6   6   6  112.42    3.04 
   6   6   6  119.26    3.14 
   6   6   6  109.85    3.07 
   6  -6  -6  113.19    3.02 
  -6   6  -6  114.33    3.13 
   6  -6  -6  112.84    3.01 
   7  -6   6   24.76    1.05 
   7  -6   6   24.07    1.06 
  -7   6  -6   28.15    1.09 
   7   6   6   26.62    1.03 
   7   6   6   29.39    1.06 
   7   6   6   28.13    1.09 
   7  -6  -6   27.61    0.99 
   7  -6  -6   28.53    1.02 
   8  -6   6    6.20    0.60 
   8  -6   6    6.19    0.61 
   8   6   6    7.27    0.56 
   8  -6  -6    6.77    0.52 
   9  -6   6    6.43    0.66 
   9  -6   6    7.49    0.68 
   9   6   6    8.09    0.63 
   9  -6  -6    8.54    0.67 
  10  -6   6   12.25    0.97 
  10  -6  -6    8.96    0.74 
  10   6   6    9.64    0.78 
   0   7   6  363.88    9.04 
   0  -7   6  358.00    9.02 
   0   7  -6  381.22    9.22 
   0  -7   6  382.68    9.21 
   0   7  -6  373.99    9.06 
   0   7   6  358.03    9.25 
   1   7  -6   52.13    1.47 
   1  -7   6   50.96    1.49 
  -1   7   6   51.66    1.53 
   1   7  -6   51.00    1.45 
   1  -7   6   51.52    1.48 
  -1  -7   6   48.18    1.30 
  -1   7  -6   44.57    1.36 
  -1  -7   6   46.14    1.29 
   1   7   6   44.97    1.33 
   1   7   6   45.34    1.41 
  -1   7  -6   46.60    1.38 
   2   7  -6  143.97    3.56 
  -2   7   6  142.99    3.71 
   2   7  -6  139.23    3.62 
   2  -7   6  142.37    3.64 
   2  -7   6  135.71    3.69 
  -2  -7   6  134.77    3.55 
   2  -7  -6  142.68    3.62 
  -2   7  -6  145.37    3.72 
   2   7   6  139.93    3.72 
  -2   7  -6  142.85    3.66 
  -2  -7   6  146.07    3.52 
   2  -7  -6  135.61    3.63 
  -3   7   6   57.70    1.66 
   3  -7   6   57.25    1.68 
   3   7  -6   54.99    1.53 
   3  -7   6   56.80    1.66 
   3   7  -6   56.76    1.56 
   3   7   6   52.51    1.57 
   3  -7  -6   52.20    1.51 
  -3   7  -6   51.58    1.57 
   3  -7  -6   51.28    1.49 
  -4   7   6    3.78    0.35 
   4  -7   6    2.24    0.34 
   4   7  -6    3.48    0.28 
   4   7  -6    3.22    0.25 
   4  -7   6    3.67    0.39 
   4  -7  -6    3.37    0.32 
  -4   7  -6    2.63    0.33 
   4   7   6    2.31    0.30 
   4   7   6    2.96    0.35 
   4  -7  -6    2.47    0.30 
   5   7  -6   44.63    1.22 
  -5   7   6   42.83    1.37 
   5  -7   6   44.11    1.45 
  -5   7   6   43.72    1.28 
   5  -7   6   45.63    1.45 
   5   7  -6   44.39    1.21 
  -5   7  -6   50.52    1.58 
   5   7   6   49.30    1.51 
   5  -7  -6   50.14    1.50 
   5   7   6   50.77    1.57 
   5   7   6   47.62    1.50 
   5  -7  -6   49.06    1.47 
   6  -7   6   50.47    1.62 
   6   7  -6   48.75    1.31 
  -6   7   6   48.54    1.35 
   6  -7   6   49.87    1.62 
   6   7   6   52.79    1.68 
   6   7   6   50.14    1.59 
  -6   7  -6   52.78    1.66 
   6  -7  -6   56.08    1.60 
   6  -7  -6   52.04    1.57 
   6   7   6   49.34    1.60 
   7  -7   6   19.50    0.97 
   7  -7   6   19.81    0.98 
   7  -7  -6   18.08    0.81 
   7   7   6   17.86    0.82 
   7  -7  -6   19.69    0.85 
   7   7   6   19.32    0.89 
  -7   7  -6   18.77    0.94 
   7   7   6   19.08    0.87 
   8  -7   6   69.27    2.23 
   8  -7   6   73.80    2.27 
   8   7   6   84.28    2.44 
   8  -7  -6   81.59    2.35 
   8   7   6   80.90    2.39 
   9  -7   6    9.25    0.79 
   9  -7   6    7.90    0.72 
   9  -7  -6    9.54    0.73 
   9   7   6    9.54    0.75 
  10  -7   6   27.84    1.35 
   0  -8   6    5.96    0.38 
   0   8   6    5.14    0.40 
   0   8  -6    5.39    0.39 
   0   8  -6    4.97    0.38 
   0  -8   6    5.20    0.38 
   0   8   6    5.25    0.39 
   1   8  -6    9.38    0.48 
   1  -8   6    9.88    0.50 
   1  -8   6    9.17    0.49 
  -1   8   6   10.15    0.54 
   1   8  -6    9.78    0.49 
   1   8   6    5.68    0.39 
  -1   8  -6    7.19    0.45 
  -1  -8   6    6.74    0.39 
   1   8   6    6.84    0.46 
  -1  -8   6    6.82    0.38 
  -1   8  -6    6.07    0.42 
   2  -8   6  113.22    3.05 
   2  -8   6  116.56    3.10 
  -2   8   6  118.56    3.13 
   2   8  -6  115.59    3.04 
   2   8  -6  114.19    2.98 
  -2   8  -6  117.59    3.16 
   2   8   6  115.46    3.06 
  -2  -8   6  117.24    2.99 
   2  -8  -6  117.09    3.08 
   2  -8  -6  115.27    3.08 
  -2  -8   6  123.01    2.99 
   2   8   6  114.94    3.16 
  -3   8   6    6.62    0.46 
   3  -8   6    5.87    0.50 
   3   8  -6    6.68    0.39 
   3  -8   6    6.36    0.49 
   3   8  -6    7.03    0.39 
  -3   8  -6    2.94    0.36 
   3  -8  -6    2.52    0.30 
   3  -8  -6    3.43    0.36 
   3   8   6    2.52    0.33 
  -4   8   6  254.78    6.58 
   4  -8   6  255.93    6.62 
   4  -8   6  259.79    6.51 
   4   8  -6  256.65    6.33 
   4   8  -6  260.83    6.45 
   4  -8  -6  255.35    6.60 
   4  -8  -6  258.80    6.52 
   4   8   6  259.89    6.69 
  -4   8  -6  262.61    6.69 
   4   8   6  266.55    6.56 
   5  -8   6    7.87    0.62 
   5   8  -6    8.28    0.40 
  -5   8   6    7.31    0.52 
   5  -8   6    8.20    0.64 
   5   8  -6    7.25    0.39 
   5   8   6    5.14    0.47 
   5  -8  -6    5.48    0.45 
   5   8   6    5.26    0.45 
   5  -8  -6    5.91    0.45 
  -5   8  -6    6.34    0.52 
   5   8   6    6.24    0.48 
   6  -8   6   90.89    2.64 
   6   8  -6   92.11    2.33 
   6   8  -6   88.92    2.33 
   6  -8   6   93.45    2.63 
  -6   8   6   87.87    2.40 
   6   8   6   88.06    2.51 
   6  -8  -6   86.41    2.47 
   6   8   6   89.66    2.58 
   6  -8  -6   88.04    2.47 
  -6   8  -6   89.44    2.59 
   6   8   6   90.82    2.51 
   7   8  -6   12.33    0.47 
   7  -8   6   11.02    0.80 
   7  -8   6   11.52    0.84 
   7   8   6   10.01    0.68 
   7  -8  -6   11.33    0.70 
   7   8   6    9.59    0.65 
   7   8   6   11.96    0.74 
   7  -8  -6   11.01    0.67 
   8  -8   6    5.93    0.64 
   8  -8   6    4.91    0.60 
   8   8   6    3.88    0.49 
   8  -8  -6    3.41    0.46 
   8   8   6    3.69    0.49 
   9  -8   6    3.81    0.59 
   9  -8   6    3.34    0.60 
   9   8   6    3.61    0.50 
   9  -8  -6    3.74    0.50 
   0   9   6  248.36    6.35 
   0   9   6  243.43    6.20 
   0  -9   6  247.23    6.27 
   0  -9   6  247.19    6.16 
   0   9  -6  245.01    6.30 
   0   9  -6  253.08    6.21 
   1   9  -6    0.24    0.17 
   1  -9   6    0.17    0.20 
  -1   9   6    0.03    0.21 
   1   9  -6    0.33    0.20 
   1  -9   6    0.38    0.21 
  -1   9  -6    0.87    0.25 
   1   9   6    0.10    0.18 
  -1  -9   6    0.66    0.19 
  -1   9  -6    0.44    0.21 
  -1  -9   6    0.50    0.18 
   1   9   6    0.26    0.21 
   2   9  -6  145.54    3.80 
  -2   9   6  147.07    3.96 
   2  -9   6  151.62    3.93 
   2   9  -6  147.19    3.87 
   2  -9   6  152.36    3.88 
  -2  -9   6  147.16    3.56 
   2   9   6  143.35    3.77 
   2   9   6  137.31    3.63 
   2  -9  -6  139.52    3.66 
   2  -9  -6  137.98    3.67 
  -2  -9   6  137.49    3.57 
  -2   9  -6  139.22    3.75 
   3  -9   6   11.22    0.64 
  -3   9   6   12.16    0.64 
   3   9  -6   11.41    0.54 
   3  -9   6   12.17    0.64 
   3   9  -6   11.77    0.53 
   3   9   6   19.27    0.83 
   3  -9  -6   17.96    0.78 
   3   9   6   17.54    0.72 
  -3   9  -6   17.37    0.79 
   3  -9  -6   18.63    0.75 
   4  -9   6    4.69    0.46 
   4   9  -6    5.18    0.38 
   4   9  -6    5.44    0.38 
   4  -9   6    6.73    0.54 
  -4   9   6    6.28    0.50 
   4  -9  -6    4.19    0.40 
  -4   9  -6    3.82    0.41 
   4  -9  -6    4.40    0.43 
   4   9   6    6.14    0.50 
   5   9  -6   10.08    0.48 
  -5   9   6   10.12    0.62 
   5  -9   6   10.28    0.68 
   5   9  -6    9.81    0.48 
   5  -9   6    9.85    0.71 
   5   9   6    7.57    0.60 
  -5   9  -6    7.99    0.61 
   5  -9  -6    7.82    0.57 
   5  -9  -6    8.37    0.60 
   5   9   6    8.44    0.60 
   6  -9   6   49.98    1.72 
   6   9  -6   52.65    1.44 
  -6   9   6   53.38    1.51 
   6   9  -6   49.71    1.43 
   6  -9   6   49.87    1.70 
   6   9   6   47.55    1.57 
   6  -9  -6   48.67    1.56 
   6   9   6   49.15    1.60 
   6  -9  -6   51.81    1.61 
   6   9   6   49.65    1.65 
  -6   9  -6   48.72    1.64 
   7  -9   6    0.79    0.42 
   7  -9   6    0.78    0.40 
   7   9  -6    0.60    0.20 
   7  -9  -6    1.77    0.39 
   7   9   6    1.39    0.40 
   7  -9  -6    2.13    0.40 
   7   9   6    1.42    0.35 
   7   9   6    1.05    0.36 
   8  -9   6   79.50    2.50 
   8  -9   6   79.75    2.48 
   8   9   6   75.75    2.23 
   8  -9  -6   71.58    2.19 
   8   9   6   66.70    2.21 
   8  -9  -6   73.04    2.19 
   9  -9   6    0.18    0.48 
   9  -9   6    0.09    0.45 
   9   9   6    1.33    0.39 
   9  -9  -6    0.71    0.43 
   9   9   6    0.47    0.38 
   0  10  -6    7.25    0.49 
   0 -10   6    7.02    0.48 
   0 -10   6    7.47    0.48 
   0  10   6    6.83    0.53 
   0  10  -6    6.73    0.49 
   1 -10   6   17.33    0.75 
   1 -10   6   16.83    0.73 
  -1  10   6   18.39    0.80 
   1  10  -6   17.52    0.72 
   1  10  -6   17.01    0.74 
   1  10   6   18.49    0.81 
  -1 -10   6   17.98    0.69 
   1  10   6   17.44    0.75 
  -1  10  -6   18.33    0.79 
  -1  10  -6   18.63    0.79 
  -1 -10   6   17.99    0.70 
   2 -10   6  110.23    3.05 
   2 -10   6  112.97    3.04 
  -2  10   6  112.66    3.10 
   2  10  -6  113.90    3.02 
   2  10  -6  109.44    2.96 
   2 -10  -6  107.39    2.93 
   2  10   6  110.50    3.05 
  -2 -10   6  109.32    2.84 
  -2 -10   6  105.62    2.83 
   2 -10  -6  109.50    2.95 
   2  10   6  109.71    2.92 
  -2  10  -6  112.12    3.03 
   3  10  -6    9.07    0.51 
  -3  10   6    8.56    0.59 
   3 -10   6    9.02    0.63 
   3  10  -6    8.33    0.49 
   3 -10   6    9.08    0.61 
   3  10   6    4.79    0.47 
   3 -10  -6    5.78    0.44 
  -3  10  -6    6.05    0.51 
   3 -10  -6    5.99    0.49 
   3  10   6    5.96    0.44 
   4 -10   6  133.95    3.57 
   4 -10   6  131.87    3.60 
   4  10  -6  125.95    3.39 
   4  10  -6  134.96    3.46 
  -4  10   6  131.54    3.60 
  -4  10  -6  124.50    3.42 
   4 -10  -6  122.23    3.33 
   4 -10  -6  117.91    3.31 
   4  10   6  127.56    3.43 
   5 -10   6    2.18    0.42 
   5  10  -6    2.63    0.30 
  -5  10   6    3.20    0.42 
   5 -10   6    3.06    0.43 
   5  10  -6    3.06    0.32 
   5 -10  -6    2.82    0.42 
   5 -10  -6    3.49    0.42 
  -5  10  -6    3.70    0.48 
   5  10   6    3.60    0.46 
   5  10   6    3.75    0.44 
   6  10  -6   80.62    2.20 
   6 -10   6   83.43    2.49 
   6 -10   6   81.72    2.47 
   6  10  -6   82.49    2.23 
   6 -10  -6   82.99    2.42 
   6 -10  -6   80.63    2.39 
  -6  10  -6   81.49    2.50 
   6  10   6   82.78    2.49 
   6  10   6   82.39    2.41 
   6  10   6   84.22    2.42 
   7 -10   6    0.84    0.44 
   7 -10   6    0.73    0.42 
   7 -10  -6    0.68    0.40 
   7  10   6    2.32    0.46 
   7  10   6    1.70    0.40 
   7 -10  -6    2.23    0.44 
   8 -10   6    1.71    0.51 
   8 -10   6    2.56    0.54 
   8  10   6    2.40    0.48 
   8 -10  -6    1.76    0.46 
   8 -10  -6    1.83    0.49 
   8  10   6    1.70    0.44 
   9 -10   6    4.33    0.67 
   9 -10   6    3.23    0.61 
   9  10   6    3.33    0.52 
   9 -10  -6    3.73    0.58 
   9  10   6    3.53    0.52 
   0  11  -6  169.27    4.56 
   0 -11   6  175.18    4.56 
   0  11  -6  178.60    4.64 
   0 -11   6  178.40    4.52 
   0  11   6  176.94    4.69 
   1 -11   6   11.50    0.64 
   1  11  -6   10.92    0.61 
   1  11  -6   11.99    0.63 
   1 -11   6   11.76    0.63 
  -1  11   6   10.11    0.65 
  -1 -11   6   12.50    0.60 
   1  11   6   11.73    0.69 
  -1 -11   6   12.71    0.58 
  -1  11  -6   14.34    0.71 
   1  11   6   12.02    0.64 
  -1  11  -6   11.91    0.67 
  -2  11   6   86.80    2.54 
   2 -11   6   85.57    2.48 
   2  11  -6   88.60    2.46 
   2  11  -6   85.16    2.41 
   2 -11   6   91.01    2.49 
   2  11   6   76.06    2.24 
  -2  11  -6   76.21    2.22 
   2 -11  -6   74.32    2.13 
  -2 -11   6   71.59    2.01 
   3  11  -6   11.93    0.61 
   3 -11   6   11.67    0.71 
   3 -11   6   10.69    0.70 
   3  11  -6   11.63    0.60 
  -3  11   6   11.66    0.70 
   3  11   6    6.90    0.57 
   3 -11  -6    7.46    0.58 
   3 -11  -6    6.36    0.52 
  -3  11  -6    5.90    0.52 
   4 -11   6   12.43    0.77 
  -4  11   6   12.89    0.74 
   4 -11   6   11.72    0.79 
   4  11  -6   12.06    0.61 
  -4  11  -6   11.52    0.73 
   4 -11  -6   11.11    0.69 
   4 -11  -6    9.46    0.72 
   4  11   6    9.84    0.69 
   5 -11   6    1.90    0.41 
   5 -11   6    0.95    0.39 
   5  11  -6    1.44    0.28 
  -5  11   6    1.40    0.36 
   5  11   6    2.56    0.40 
  -5  11  -6    2.13    0.43 
   5  11   6    2.12    0.42 
   5 -11  -6    3.11    0.47 
   5 -11  -6    2.61    0.43 
   6 -11   6   27.25    1.23 
   6 -11   6   26.95    1.21 
   6  11  -6   26.76    0.95 
   6 -11  -6   34.22    1.34 
   6 -11  -6   32.36    1.25 
  -6  11  -6   32.81    1.35 
   6  11   6   34.43    1.35 
   6  11   6   33.75    1.29 
   7 -11   6    4.73    0.61 
   7 -11   6    5.05    0.64 
   7  11   6    7.30    0.69 
   7  11   6    7.32    0.64 
   7 -11  -6    6.46    0.61 
   7 -11  -6    6.64    0.64 
   8 -11   6   34.80    1.55 
   8 -11   6   38.13    1.55 
   8 -11  -6   43.93    1.67 
   8  11   6   44.61    1.66 
   8 -11  -6   45.80    1.63 
   8  11   6   45.85    1.65 
   9 -11   6    4.76    0.70 
   9 -11   6    5.28    0.74 
   0  12  -6    4.32    0.44 
   0 -12   6    4.26    0.41 
   0  12   6    4.18    0.49 
   0 -12   6    4.14    0.38 
  -1  12   6    3.81    0.45 
   1 -12   6    4.39    0.42 
   1 -12   6    4.48    0.45 
   1  12  -6    3.82    0.41 
   1  12   6   10.79    0.68 
  -1 -12   6   10.67    0.57 
  -1  12  -6   10.16    0.67 
   2 -12   6   45.46    1.49 
  -2  12   6   44.79    1.55 
   2 -12   6   45.55    1.50 
   2  12  -6   44.84    1.47 
   2 -12  -6   42.15    1.35 
   2  12   6   39.68    1.42 
  -2  12  -6   40.12    1.43 
  -2 -12   6   38.94    1.21 
   3 -12   6   21.76    0.99 
  -3  12   6   22.28    1.00 
   3  12  -6   21.72    0.89 
   3 -12   6   22.12    0.98 
  -3  12  -6   33.60    1.30 
   3 -12  -6   35.88    1.31 
   3  12   6   33.08    1.29 
   3 -12  -6   36.04    1.24 
  -4  12   6   87.09    2.60 
   4 -12   6   88.61    2.57 
   4 -12   6   84.39    2.55 
   4  12  -6   86.05    2.45 
   4 -12  -6   87.51    2.49 
  -4  12  -6   83.92    2.54 
   4 -12  -6   84.98    2.44 
   4  12   6   80.49    2.54 
   5 -12   6   23.51    1.12 
  -5  12   6   25.40    1.10 
   5 -12   6   23.68    1.12 
   5  12  -6   24.52    0.95 
   5 -12  -6   27.16    1.17 
   5  12   6   23.48    1.12 
  -5  12  -6   25.28    1.14 
   5 -12  -6   26.40    1.10 
   6 -12   6   34.67    1.44 
   6 -12   6   35.70    1.43 
   6  12  -6   34.72    1.19 
   6 -12  -6   35.92    1.36 
   6 -12  -6   34.99    1.44 
   6  12   6   36.38    1.40 
   6  12   6   35.76    1.45 
  -6  12  -6   38.43    1.48 
   7 -12   6    6.51    0.70 
   7 -12   6    6.94    0.72 
   7 -12  -6    4.77    0.62 
   7 -12  -6    4.06    0.57 
   7  12   6    5.02    0.61 
   7  12   6    5.49    0.59 
   8 -12   6    0.88    0.53 
   8 -12   6    0.54    0.51 
   8 -12  -6    1.68    0.52 
   8  12   6    1.70    0.49 
   8  12   6    1.72    0.48 
   8 -12  -6    1.57    0.54 
   9 -12   6    1.08    0.58 
   9 -12   6    1.79    0.60 
   0 -13   6  104.53    2.87 
   0  13   6  107.51    3.04 
   0  13  -6  101.12    2.97 
   1 -13   6   31.45    1.17 
  -1  13   6   33.69    1.29 
   1  13  -6   32.91    1.23 
   1  13   6   31.57    1.22 
  -1  13  -6   28.49    1.15 
  -1 -13   6   28.07    1.02 
   2  13  -6   56.64    1.77 
   2 -13   6   54.06    1.76 
  -2  13   6   58.22    1.88 
   2 -13   6   55.53    1.80 
  -2  13  -6   69.92    2.18 
   2  13   6   69.35    2.19 
  -3  13   6    2.66    0.45 
   3 -13   6    3.30    0.46 
   3  13  -6    3.40    0.42 
   3 -13   6    3.71    0.49 
   3  13   6    5.98    0.58 
  -3  13  -6    4.95    0.55 
   3 -13  -6    5.92    0.54 
   3 -13  -6    7.35    0.63 
  -4  13   6    0.31    0.35 
   4  13  -6    0.72    0.31 
   4 -13   6    0.25    0.38 
   4 -13   6    0.46    0.39 
   4 -13  -6    1.64    0.42 
  -4  13  -6    2.79    0.50 
   4  13   6    1.90    0.46 
   4 -13  -6    2.83    0.48 
   5 -13   6    7.55    0.67 
   5  13  -6    7.73    0.60 
   5 -13   6    8.11    0.71 
  -5  13   6    7.49    0.67 
   5 -13  -6    9.77    0.72 
   5 -13  -6   10.97    0.79 
  -5  13  -6   10.21    0.81 
   5  13   6   11.24    0.83 
   6 -13   6   15.81    1.03 
   6  13  -6   13.11    0.73 
   6 -13   6   15.42    1.02 
   6  13   6   11.39    0.89 
  -6  13  -6    9.87    0.83 
   6  13   6   10.81    0.83 
   6 -13  -6   11.32    0.89 
   6 -13  -6   10.53    0.76 
   7 -13   6   22.15    1.22 
   7 -13   6   19.58    1.19 
   7 -13  -6   21.98    1.14 
   7  13   6   20.24    1.15 
   7  13   6   22.03    1.14 
   7 -13  -6   25.35    1.24 
   8 -13   6   29.94    1.48 
   8 -13   6   28.90    1.45 
   8  13   6   20.12    1.19 
   8 -13  -6   23.88    1.23 
   8  13   6   24.80    1.23 
   8 -13  -6   23.24    1.27 
   0  14  -6    5.01    0.52 
   0  14   6    3.88    0.51 
   0 -14   6    5.19    0.46 
   1 -14   6   29.84    1.13 
   1  14  -6   29.12    1.18 
  -1  14   6   28.78    1.23 
  -1 -14   6   23.87    0.93 
  -1  14  -6   22.98    1.07 
   1  14   6   24.85    1.12 
  -2  14   6   24.78    1.14 
   2 -14   6   25.25    1.07 
   2  14  -6   25.10    1.07 
   2  14   6   24.47    1.10 
  -2  14  -6   22.64    1.08 
  -3  14   6   47.95    1.75 
   3 -14   6   48.12    1.67 
   3  14  -6   50.73    1.64 
  -3  14  -6   40.12    1.53 
   3  14   6   41.35    1.55 
   3 -14  -6   40.66    1.45 
  -4  14   6   37.56    1.47 
   4  14  -6   37.56    1.35 
   4 -14   6   36.68    1.44 
   4 -14   6   37.30    1.47 
   4 -14  -6   43.66    1.62 
  -4  14  -6   43.80    1.63 
   4 -14  -6   41.91    1.53 
   4  14   6   44.11    1.64 
   5  14  -6   35.53    1.33 
   5 -14   6   37.44    1.53 
   5 -14   6   39.40    1.51 
  -5  14   6   38.39    1.52 
   5 -14  -6   34.44    1.39 
  -5  14  -6   35.37    1.48 
   5 -14  -6   37.22    1.48 
   5  14   6   36.52    1.48 
   6  14  -6    9.13    0.67 
   6 -14   6   10.96    0.86 
   6 -14   6    8.28    0.77 
   6  14   6   14.67    0.97 
   6 -14  -6   14.05    0.96 
  -6  14  -6   13.76    0.96 
   6  14   6   15.46    1.01 
   6 -14  -6   13.13    0.99 
   7 -14   6    6.69    0.75 
   7 -14   6    7.49    0.80 
   7 -14  -6    6.42    0.74 
   7  14   6    6.32    0.69 
   7 -14  -6    5.53    0.67 
   7  14   6    6.61    0.73 
   8 -14   6    0.61    0.54 
   8  14   6    2.04    0.56 
   8 -14  -6    3.23    0.65 
   8 -14  -6    2.35    0.60 
   0  15  -6   26.09    1.15 
   0 -15   6   26.67    1.05 
   0  15   6   24.49    1.18 
   1  15  -6   90.86    2.77 
  -1  15   6   92.67    2.85 
   1 -15   6   96.39    2.70 
   1  15   6   95.34    2.90 
  -1  15  -6   96.96    2.86 
  -1 -15   6   93.53    2.65 
   2  15  -6   11.16    0.75 
   2 -15   6   11.50    0.79 
  -2  15   6   10.21    0.83 
  -2  15  -6    9.65    0.79 
   2  15   6   10.84    0.81 
  -3  15   6   18.88    1.05 
   3  15  -6   18.55    0.95 
   3 -15   6   19.20    1.01 
  -3  15  -6   17.65    1.03 
   3 -15  -6   19.15    0.99 
   3  15   6   19.09    1.04 
   4  15  -6    9.61    0.75 
   4 -15   6   10.34    0.85 
  -4  15   6   10.30    0.85 
   4  15   6    8.27    0.77 
   4 -15  -6    8.92    0.71 
   4 -15  -6    8.59    0.75 
  -4  15  -6    8.24    0.76 
   5 -15   6    6.51    0.69 
   5  15  -6    7.12    0.62 
  -5  15   6    6.21    0.69 
   5  15   6    4.99    0.65 
   5 -15  -6    5.59    0.63 
  -5  15  -6    4.82    0.65 
   5 -15  -6    6.57    0.72 
   6 -15   6    8.38    0.79 
   6  15  -6    8.68    0.71 
   6 -15  -6   10.19    0.87 
   6  15   6    9.87    0.83 
   6  15   6   10.51    0.88 
  -6  15  -6    9.63    0.86 
   6 -15  -6    9.31    0.78 
   7 -15   6   30.97    1.48 
   7  15   6   27.53    1.38 
   7 -15  -6   29.98    1.47 
   7 -15  -6   28.75    1.35 
   7  15   6   28.29    1.43 
   0  16   6    2.44    0.50 
   0 -16   6    4.10    0.49 
   0  16  -6    3.97    0.56 
   1  16  -6   11.05    0.82 
   1 -16   6   10.99    0.81 
  -1  16   6   11.35    0.90 
   1  16   6    9.40    0.80 
  -1 -16   6   10.56    0.70 
  -1  16  -6   10.23    0.83 
  -2  16   6    7.61    0.73 
   2  16  -6    6.02    0.62 
   2 -16   6    6.59    0.62 
   2  16   6    3.55    0.56 
  -2  16  -6    3.49    0.55 
  -3  16   6   70.74    2.33 
   3 -16   6   67.04    2.19 
   3  16  -6   67.05    2.19 
   3  16   6   74.02    2.45 
  -3  16  -6   73.19    2.42 
   4  16  -6    8.78    0.72 
  -4  16   6    8.74    0.83 
   4 -16   6    8.58    0.76 
   4 -16  -6    6.27    0.65 
  -4  16  -6    5.57    0.69 
   4  16   6    5.93    0.72 
   5  16  -6   43.02    1.61 
   5 -16   6   46.16    1.74 
  -5  16  -6   41.51    1.77 
   5 -16  -6   44.35    1.75 
   5  16   6   46.08    1.80 
   5 -16  -6   45.71    1.69 
   6 -16   6    5.85    0.74 
   6  16  -6    7.49    0.64 
   6  16   6    6.52    0.73 
   6 -16  -6    7.87    0.81 
  -6  16  -6    6.30    0.75 
   6  16   6    6.36    0.77 
   6 -16  -6    6.61    0.73 
   7 -16  -6    8.19    0.85 
   0 -17   6    3.70    0.48 
   0  17   6    3.83    0.60 
   0  17  -6    3.21    0.54 
  -1  17   6   78.49    2.62 
   1 -17   6   78.77    2.40 
   1  17  -6   81.65    2.54 
   1  17   6   87.80    2.81 
  -1 -17   6   87.55    2.51 
  -1  17  -6   87.55    2.76 
   2 -17   6    3.87    0.55 
   2  17  -6    3.67    0.56 
  -2  17   6    3.35    0.60 
  -2  17  -6    3.83    0.59 
   2  17   6    5.15    0.67 
  -3  17   6   16.97    1.10 
   3 -17   6   16.36    1.02 
   3  17  -6   15.39    0.99 
  -3  17  -6   16.17    1.09 
   3  17   6   18.99    1.12 
   4  17  -6    8.69    0.74 
  -4  17   6    8.18    0.85 
   4 -17   6    7.98    0.75 
   4  17   6    8.22    0.84 
  -4  17  -6    7.66    0.81 
   4 -17  -6    8.32    0.74 
   5 -17   6    8.61    0.81 
   5  17  -6    8.72    0.76 
   5  17   6    5.63    0.75 
  -5  17  -6    6.95    0.80 
   5 -17  -6    5.77    0.70 
   6  17  -6    2.48    0.50 
   0  18   6   20.04    1.25 
   0 -18   6   19.70    1.01 
   0  18  -6   23.39    1.23 
  -1  18   6    9.66    0.91 
   1  18  -6    8.99    0.82 
   1 -18   6    7.85    0.68 
   1  18   6    5.93    0.75 
  -1  18  -6    5.67    0.71 
   2 -18   6   12.70    0.95 
  -2  18   6   11.21    0.94 
   2  18  -6   12.40    0.97 
   2  18   6   13.18    1.04 
  -2  18  -6   11.01    0.91 
   3 -18   6   59.19    2.05 
   3  18  -6   61.02    2.13 
  -3  18   6   61.92    2.24 
  -3  18  -6   52.80    2.03 
   3  18   6   55.81    2.06 
   4  18  -6    1.03    0.47 
   4 -18   6    1.71    0.56 
  -4  18   6    2.42    0.60 
  -4  18  -6    1.56    0.56 
   4  18   6    0.54    0.51 
   5  18  -6   49.80    1.85 
  -5  18  -6   49.56    1.98 
   0  19   6   15.71    1.16 
   0 -19   6   18.24    0.99 
   0  19  -6   15.85    1.11 
   1  19  -6   50.57    1.98 
  -1  19   6   53.78    2.08 
   1 -19   6   51.85    1.80 
  -1  19  -6   50.07    1.96 
   1  19   6   50.57    2.01 
  -2  19   6    6.83    0.83 
   2 -19   6    7.55    0.73 
   2  19  -6    7.56    0.80 
  -2  19  -6    6.15    0.77 
   2  19   6    5.48    0.75 
  -3  19   6   10.03    0.95 
   3  19  -6   12.34    0.99 
   3 -19   6    9.90    0.84 
  -3  19  -6    7.03    0.82 
   3  19   6    7.32    0.93 
  -4  19   6   10.46    0.97 
  -4  19  -6   10.04    0.95 
   0  20   6    0.97    0.58 
  -1  20   6   10.78    1.02 
   1 -20   6    9.18    0.75 
  -2  20   6    2.53    0.68 
  -3  20   6   34.37    1.69 
   0   0   7    0.32    0.10 
   0   0   7    0.85    0.13 
   0   0  -7    0.46    0.11 
   0   0  -7    0.38    0.10 
  -1   0  -7  291.23    7.33 
  -1   0  -7  290.52    7.32 
   1   0   7  307.92    7.18 
   1   0  -7  293.09    7.29 
  -1   0   7  303.17    7.30 
  -1   0   7  290.56    7.28 
   1   0   7  297.57    7.33 
  -1   0  -7  301.11    7.18 
   1   0   7  279.00    7.33 
   1   0  -7  294.10    7.14 
   1   0  -7  297.09    7.29 
  -1   0   7  285.72    7.13 
   2   0   7   89.85    2.37 
  -2   0  -7   89.80    2.39 
  -2   0  -7   94.11    2.36 
   2   0  -7   92.55    2.34 
   2   0  -7   95.98    2.35 
   2   0   7   93.32    2.41 
  -2   0   7   92.88    2.30 
   2   0   7   86.86    2.43 
  -2   0   7   90.55    2.27 
  -2   0   7   88.82    2.34 
  -2   0   7   89.15    2.29 
   2   0  -7   90.77    2.30 
   3   0   7   54.04    1.53 
   3   0  -7   53.90    1.45 
  -3   0  -7   54.93    1.50 
   3   0   7   54.94    1.52 
   3   0   7   54.60    1.57 
   3   0  -7   53.68    1.42 
   3   0  -7   53.85    1.41 
   4   0   7   67.51    1.90 
   4   0  -7   71.02    1.78 
   4   0   7   68.12    1.88 
  -4   0  -7   66.41    1.85 
   4   0  -7   68.84    1.77 
   5   0   7    9.77    0.53 
   5   0  -7    9.69    0.36 
   5   0  -7   10.39    0.35 
   5   0   7   10.00    0.53 
  -5   0  -7    9.78    0.44 
   6   0  -7   84.26    2.18 
   6   0   7   90.70    2.41 
   6   0  -7   82.22    2.17 
   6   0   7   87.59    2.37 
   7   0   7   90.92    2.55 
   7   0   7   92.99    2.58 
   8   0   7    6.90    0.54 
   8   0   7    7.62    0.62 
   9   0   7   56.26    1.82 
  10   0   7    2.24    0.48 
   0   1   7   63.65    1.73 
   0  -1  -7   65.21    1.69 
   0   1   7   60.80    1.69 
   0   1   7   67.17    1.68 
   0   1  -7   63.35    1.69 
   0  -1   7   59.78    1.65 
   0  -1   7   68.97    1.73 
   0   1  -7   67.58    1.67 
   0  -1  -7   60.85    1.67 
   0   1  -7   61.03    1.71 
   0  -1  -7   60.39    1.71 
   0  -1   7   62.02    1.68 
   1   1  -7   48.75    1.43 
  -1   1   7   54.69    1.47 
  -1  -1  -7   51.47    1.45 
   1   1  -7   55.15    1.47 
   1  -1   7   54.84    1.46 
  -1   1   7   54.72    1.42 
   1   1  -7   54.18    1.42 
  -1  -1  -7   53.25    1.49 
   1  -1   7   54.77    1.48 
  -1   1   7   56.02    1.44 
  -1  -1   7   53.04    1.41 
   1   1   7   52.72    1.51 
   1  -1  -7   54.44    1.47 
   1   1   7   55.35    1.47 
  -1   1  -7   53.51    1.51 
  -1  -1   7   55.12    1.44 
  -1  -1   7   53.56    1.46 
   1  -1  -7   55.05    1.46 
   1  -1  -7   53.16    1.44 
  -1   1  -7   54.65    1.47 
   1   1   7   55.96    1.49 
  -2  -1  -7   30.69    0.93 
  -2  -1  -7   31.78    0.94 
   2  -1   7   32.35    0.96 
  -2   1   7   31.07    0.86 
   2   1  -7   32.20    0.88 
   2  -1   7   33.02    0.96 
   2   1  -7   31.89    0.90 
  -2   1   7   31.85    0.91 
   2   1  -7   29.17    0.87 
  -2   1   7   31.07    0.86 
  -2   1   7   32.09    0.87 
   2  -1  -7   50.51    1.34 
   2   1   7   50.80    1.45 
   2  -1  -7   49.23    1.36 
  -2  -1   7   50.11    1.28 
   2   1   7   47.98    1.39 
   2  -1  -7   50.05    1.35 
   2   1   7   49.63    1.41 
  -2  -1   7   49.18    1.28 
  -2   1  -7   50.16    1.39 
  -2  -1   7   55.20    1.30 
  -2  -1   7   49.56    1.34 
   3   1  -7  281.37    6.89 
   3   1  -7  288.40    6.76 
   3  -1   7  275.00    6.87 
   3  -1   7  279.98    7.01 
   3   1  -7  283.42    6.89 
  -3  -1  -7  277.15    6.97 
  -3   1   7  273.89    6.90 
  -3   1   7  273.95    6.72 
   3   1   7  293.06    7.29 
   3   1   7  281.82    7.31 
   3   1   7  291.45    7.15 
   3  -1  -7  296.94    7.20 
   3  -1  -7  291.64    7.21 
   4  -1   7   25.26    0.85 
   4   1  -7   24.44    0.69 
   4  -1   7   24.66    0.85 
   4   1  -7   24.43    0.70 
   4   1  -7   25.34    0.71 
  -4   1   7   24.96    0.71 
   4   1   7   23.64    0.80 
   4  -1  -7   23.15    0.71 
   4   1   7   23.31    0.84 
   4  -1  -7   23.71    0.68 
   4   1   7   23.48    0.81 
   5   1  -7  177.76    4.41 
   5  -1   7  175.89    4.54 
   5   1  -7  178.36    4.41 
   5  -1   7  180.46    4.62 
   5   1  -7  180.45    4.43 
   5   1   7  190.92    4.84 
  -5   1  -7  186.69    4.86 
   5  -1  -7  192.15    4.76 
   5   1   7  193.08    4.92 
   5  -1  -7  193.30    4.78 
   6  -1   7   21.33    0.84 
   6  -1   7   20.29    0.82 
   6  -1  -7   18.75    0.60 
   6  -1  -7   18.66    0.60 
   6   1   7   18.77    0.78 
   6   1   7   18.80    0.77 
   6  -1  -7   19.18    0.62 
   7  -1   7   24.40    0.97 
   7  -1   7   24.65    0.97 
   7  -1  -7   26.65    0.82 
   7   1   7   27.75    1.02 
   7   1   7   27.26    1.02 
   8  -1   7   28.09    1.13 
   8  -1   7   30.16    1.14 
   8   1   7   26.42    1.03 
   8  -1  -7   25.06    0.80 
   8   1   7   24.94    1.02 
   9  -1   7    7.33    0.61 
   9   1   7    4.47    0.51 
  10  -1   7    8.51    0.71 
  10   1   7    8.66    0.68 
   0  -2  -7   67.19    1.83 
   0   2  -7   69.83    1.84 
   0  -2   7   59.87    1.75 
   0   2   7   72.66    1.83 
   0   2   7   67.72    1.79 
   0  -2  -7   65.40    1.80 
   0  -2  -7   67.46    1.80 
   0  -2   7   72.36    1.81 
   0   2   7   70.81    1.85 
   0   2  -7   68.87    1.79 
   1   2  -7  209.16    5.42 
   1  -2   7  223.12    5.35 
  -1  -2  -7  220.73    5.46 
  -1   2   7  207.24    5.42 
  -1  -2  -7  218.85    5.44 
   1   2  -7  210.23    5.41 
  -1  -2  -7  219.74    5.35 
  -1   2   7  227.07    5.45 
   1   2  -7  216.24    5.31 
   1   2   7  226.42    5.64 
   1  -2  -7  222.31    5.60 
  -1   2  -7  218.95    5.51 
  -1  -2   7  225.38    5.45 
  -1  -2   7  234.39    5.57 
   1  -2  -7  225.86    5.50 
   1  -2  -7  217.21    5.59 
   1   2   7  216.09    5.51 
   1   2   7  226.70    5.62 
  -2   2   7   71.44    1.84 
   2   2  -7   69.00    1.83 
  -2   2   7   71.39    1.84 
   2  -2   7   70.93    1.89 
   2   2  -7   70.00    1.85 
  -2   2   7   70.11    1.88 
   2   2  -7   70.53    1.81 
  -2   2   7   71.38    1.82 
   2  -2   7   71.85    1.92 
  -2  -2  -7   67.99    1.86 
  -2   2  -7   50.28    1.42 
   2   2   7   50.52    1.44 
   2   2   7   51.61    1.43 
  -2  -2   7   51.94    1.31 
   2   2   7   49.62    1.47 
   2  -2  -7   50.76    1.41 
  -2  -2   7   53.56    1.31 
   3  -2   7   37.50    1.13 
  -3   2   7   38.28    1.00 
   3   2  -7   37.99    1.03 
   3  -2   7   37.97    1.15 
   3   2  -7   36.07    1.00 
  -3   2   7   38.09    1.01 
   3   2  -7   37.66    1.01 
  -3   2   7   38.05    1.01 
  -3   2   7   37.72    1.07 
   3   2   7   43.31    1.26 
   3   2   7   44.08    1.30 
   3  -2  -7   41.08    1.20 
   3   2   7   43.10    1.25 
   4  -2   7   73.32    1.99 
   4   2  -7   74.07    1.84 
   4   2  -7   71.37    1.84 
   4  -2   7   71.03    2.01 
   4   2  -7   71.46    1.81 
   4  -2  -7   72.27    1.91 
   4   2   7   71.86    2.03 
   4   2   7   72.35    1.99 
   4   2   7   69.76    1.96 
   4  -2  -7   73.56    1.87 
  -5   2   7   47.67    1.29 
   5  -2   7   49.70    1.46 
   5   2  -7   48.14    1.24 
   5  -2   7   48.55    1.48 
   5  -2  -7   43.14    1.16 
   5  -2  -7   40.13    1.18 
   5   2   7   44.03    1.29 
   5  -2  -7   41.93    1.17 
   5   2   7   40.24    1.33 
   5   2   7   42.35    1.29 
   6  -2   7   10.44    0.62 
   6  -2   7   11.61    0.62 
   6   2   7   17.11    0.73 
   6  -2  -7   16.32    0.60 
   6  -2  -7   16.42    0.59 
   6  -2  -7   17.22    0.58 
  -6   2  -7   16.59    0.72 
   6   2   7   17.94    0.75 
   7  -2   7   75.08    2.22 
   7  -2   7   77.52    2.21 
   7   2   7   65.60    1.95 
   7   2   7   68.49    1.95 
   7  -2  -7   64.20    1.77 
   8  -2   7   11.86    0.74 
   8  -2   7   12.34    0.75 
   8  -2  -7   14.73    0.61 
   8   2   7   15.62    0.79 
   8   2   7   16.25    0.80 
   9  -2   7   45.97    1.61 
   9  -2  -7   46.44    1.36 
   9   2   7   48.65    1.59 
  10  -2   7    9.37    0.75 
  10   2   7   10.91    0.82 
   0  -3  -7  165.03    4.37 
   0   3   7  174.97    4.39 
   0   3   7  173.81    4.29 
   0   3   7  168.38    4.36 
   0  -3   7  177.72    4.35 
   0   3  -7  168.29    4.27 
   0   3  -7  176.94    4.36 
  -1   3   7   21.58    0.71 
   1   3  -7   21.20    0.68 
  -1   3   7   20.93    0.68 
   1  -3   7   20.97    0.70 
   1   3  -7   20.18    0.65 
   1   3  -7   21.18    0.66 
  -1   3   7   21.00    0.65 
   1  -3   7   21.42    0.70 
   1   3   7   11.55    0.48 
  -1   3  -7   11.06    0.49 
  -1  -3   7   12.45    0.43 
  -1  -3   7   12.31    0.43 
   1   3   7   11.42    0.50 
  -1   3  -7   11.42    0.47 
   1   3   7   11.96    0.48 
  -2   3   7  305.72    7.26 
   2  -3   7  302.02    7.47 
  -2   3   7  305.10    7.40 
   2  -3   7  284.95    7.31 
   2   3  -7  286.24    7.38 
   2   3  -7  292.53    7.23 
  -2   3   7  312.00    7.40 
  -2   3   7  297.03    7.42 
   2   3  -7  296.05    7.38 
   2   3   7  306.33    7.57 
  -2  -3   7  305.56    7.30 
   2   3   7  309.34    7.43 
   2  -3  -7  287.56    7.52 
  -2  -3   7  306.90    7.43 
   2   3   7  301.75    7.58 
  -2   3  -7  300.76    7.43 
  -3   3   7  141.16    3.58 
   3   3  -7  145.17    3.57 
  -3   3   7  142.99    3.58 
   3  -3   7  139.31    3.69 
   3  -3   7  140.51    3.63 
   3   3  -7  138.85    3.49 
  -3   3   7  141.29    3.52 
  -3   3   7  144.58    3.63 
   3   3  -7  143.09    3.56 
   3  -3  -7  124.38    3.06 
   3   3   7  120.72    3.10 
   3   3   7  122.17    3.15 
   3  -3  -7  113.94    3.10 
   3   3   7  119.61    3.19 
   4   3  -7   95.97    2.41 
  -4   3   7   91.99    2.38 
  -4   3   7   98.64    2.50 
   4   3  -7   95.44    2.37 
   4   3  -7   98.56    2.41 
   4  -3   7   94.82    2.57 
   4  -3   7   94.41    2.59 
   4  -3  -7   87.00    2.27 
   4   3   7   88.78    2.35 
   4  -3  -7   87.21    2.31 
   4  -3  -7   84.39    2.26 
   4   3   7   88.96    2.42 
   4   3   7   88.87    2.38 
   5  -3   7  115.84    3.05 
   5  -3   7  113.85    3.09 
   5   3  -7  114.25    2.80 
   5  -3  -7  110.95    2.90 
   5  -3  -7  113.48    2.97 
   5   3   7  115.97    3.05 
   5   3   7  113.01    3.09 
   5   3   7  116.99    3.01 
   5  -3  -7  113.93    2.93 
   6  -3   7   81.45    2.26 
   6  -3   7   77.05    2.26 
   6  -3  -7   76.84    2.03 
  -6   3  -7   77.14    2.18 
   6   3   7   76.04    2.14 
   6   3   7   73.14    2.20 
   6   3   7   77.05    2.16 
   6  -3  -7   78.49    2.04 
   7  -3   7   24.61    1.00 
   7  -3   7   24.72    1.00 
   7   3   7   23.42    0.93 
  -7   3  -7   25.75    0.97 
   7  -3  -7   22.30    0.80 
   7  -3  -7   23.41    0.81 
   7   3   7   23.64    0.95 
   8  -3   7   25.52    1.10 
   8  -3   7   26.72    1.11 
   8  -3  -7   22.96    0.83 
   8   3   7   23.23    0.97 
   8   3   7   24.21    0.98 
   9  -3   7    6.89    0.65 
   9  -3   7    7.59    0.65 
   9   3   7    6.10    0.55 
   9  -3  -7    4.99    0.41 
  10  -3   7   15.22    0.99 
  10   3   7   15.55    0.90 
  10  -3  -7   15.29    0.70 
   0   4   7  255.11    6.39 
   0   4  -7  250.94    6.25 
   0  -4   7  252.58    6.37 
   0  -4  -7  247.23    6.38 
   0   4   7  258.83    6.41 
   0   4   7  264.00    6.28 
  -1   4   7  233.97    5.82 
   1  -4   7  227.29    5.94 
   1  -4   7  237.88    5.83 
  -1   4   7  250.24    5.94 
  -1   4   7  234.23    5.81 
   1   4  -7  241.92    5.79 
  -1   4   7  235.06    5.95 
  -1   4   7  236.55    5.91 
   1   4  -7  227.46    5.90 
  -1   4  -7  231.67    5.65 
   1   4   7  239.22    5.77 
  -1  -4   7  232.13    5.69 
  -1  -4   7  227.12    5.58 
   1   4   7  233.37    5.66 
   1   4   7  221.39    5.78 
   1  -4  -7  212.55    5.73 
   2   4  -7  217.78    5.37 
  -2   4   7  223.11    5.52 
  -2   4   7  210.81    5.51 
   2  -4   7  224.89    5.57 
   2   4  -7  219.51    5.48 
  -2   4   7  214.74    5.54 
   2  -4   7  224.63    5.46 
  -2   4   7  218.60    5.41 
   2  -4  -7  230.12    5.98 
  -2  -4   7  241.51    5.78 
   2   4   7  232.71    6.01 
  -2   4  -7  233.89    5.90 
   2   4   7  243.83    5.91 
  -2  -4   7  245.17    5.87 
   2   4   7  238.19    6.04 
  -3   4   7   54.86    1.47 
   3   4  -7   52.70    1.45 
   3   4  -7   51.81    1.41 
   3  -4   7   56.12    1.56 
   3   4  -7   55.19    1.43 
   3  -4   7   54.27    1.57 
  -3   4   7   54.97    1.52 
  -3   4   7   53.33    1.46 
  -3   4   7   52.47    1.48 
   3   4   7   54.82    1.57 
   3   4   7   57.56    1.57 
   3   4   7   55.38    1.60 
   3  -4  -7   52.41    1.53 
   3  -4  -7   54.48    1.49 
   4  -4   7   82.63    2.28 
  -4   4   7   79.99    2.20 
  -4   4   7   81.56    2.13 
   4  -4   7   85.97    2.27 
  -4   4   7   81.44    2.11 
  -4   4   7   78.60    2.11 
   4   4  -7   82.53    2.06 
   4   4  -7   82.09    2.10 
   4   4  -7   83.58    2.10 
   4   4  -7   83.65    2.09 
   4  -4  -7   83.31    2.21 
   4  -4  -7   82.84    2.16 
   4  -4  -7   82.80    2.16 
   4   4   7   82.26    2.24 
   4   4   7   83.84    2.23 
   4   4   7   75.63    2.28 
   5  -4   7   19.96    0.81 
   5  -4   7   19.13    0.80 
  -5   4   7   20.01    0.69 
   5   4  -7   20.01    0.57 
  -5   4  -7   24.33    0.92 
   5   4   7   25.47    0.91 
   5  -4  -7   26.09    0.85 
   5   4   7   25.85    0.90 
   5  -4  -7   23.99    0.83 
   5   4   7   24.31    0.94 
   5  -4  -7   25.58    0.81 
   6  -4   7   68.09    2.00 
   6  -4   7   66.80    2.00 
   6   4   7   58.73    1.71 
   6  -4  -7   54.93    1.59 
  -6   4  -7   58.03    1.73 
   6   4   7   54.77    1.74 
   6   4   7   57.68    1.70 
   6  -4  -7   57.61    1.59 
   7  -4   7   43.93    1.48 
   7  -4   7   43.30    1.47 
   7  -4  -7   48.87    1.44 
   7   4   7   50.08    1.55 
  -7   4  -7   49.70    1.58 
   7   4   7   48.94    1.55 
   7  -4  -7   48.98    1.43 
   7   4   7   48.92    1.61 
   8  -4   7   28.01    1.15 
   8  -4   7   26.56    1.15 
   8  -4  -7   23.43    0.88 
   8   4   7   24.14    0.99 
   8   4   7   24.14    1.00 
   9  -4   7   27.17    1.23 
   9  -4   7   26.13    1.20 
   9   4   7   29.67    1.18 
   9  -4  -7   28.78    1.04 
  10  -4   7   12.22    0.95 
  10  -4  -7   11.65    0.68 
  10   4   7   12.79    0.85 
   0  -5   7   86.48    2.29 
   0   5  -7   84.39    2.27 
   0   5   7   85.30    2.35 
   0   5   7   90.05    2.30 
   1   5  -7  125.40    3.21 
   1  -5   7  126.57    3.25 
  -1   5   7  125.99    3.31 
   1  -5   7  129.27    3.31 
   1  -5  -7  132.66    3.50 
  -1  -5   7  134.53    3.38 
   1   5   7  132.86    3.51 
  -1  -5   7  144.16    3.44 
  -1   5  -7  135.34    3.45 
   1   5   7  131.99    3.53 
   1   5   7  134.36    3.46 
  -2   5   7   91.33    2.41 
   2  -5   7   90.91    2.46 
  -2   5   7   89.81    2.44 
   2   5  -7   90.12    2.34 
  -2   5   7   92.90    2.41 
   2  -5   7   90.00    2.42 
  -2   5  -7   81.18    2.20 
   2   5   7   83.92    2.20 
   2   5   7   79.62    2.25 
   2  -5  -7   78.06    2.20 
  -2  -5   7   85.70    2.07 
   2   5   7   78.46    2.21 
  -2  -5   7   82.41    2.06 
  -3   5   7   77.84    2.04 
  -3   5   7   73.65    2.05 
   3   5  -7   77.98    2.00 
   3  -5   7   72.59    2.12 
  -3   5   7   76.25    2.03 
   3   5  -7   77.94    1.99 
  -3   5   7   74.16    2.09 
   3   5  -7   76.54    1.97 
   3  -5   7   79.08    2.11 
   3   5   7   89.85    2.33 
   3  -5  -7   88.00    2.27 
   3   5   7   83.37    2.33 
   3   5   7   85.96    2.38 
   3  -5  -7   84.29    2.31 
  -3   5  -7   84.45    2.36 
   4   5  -7  106.07    2.63 
  -4   5   7  108.25    2.69 
   4  -5   7  102.53    2.79 
  -4   5   7  102.84    2.71 
   4   5  -7  104.91    2.60 
   4   5  -7  104.16    2.65 
   4   5  -7  100.34    2.64 
  -4   5   7  101.09    2.76 
  -4   5   7  102.99    2.66 
   4  -5   7  105.30    2.84 
   4  -5  -7  118.14    3.00 
   4   5   7  115.48    3.09 
   4  -5  -7  113.53    3.05 
   4   5   7  116.93    3.04 
   4   5   7  114.20    3.12 
   4  -5  -7  115.39    3.01 
  -4   5  -7  116.42    3.11 
   5   5  -7   47.68    1.23 
   5   5  -7   49.33    1.23 
   5  -5   7   46.74    1.49 
   5   5  -7   47.51    1.26 
  -5   5   7   47.37    1.26 
   5  -5   7   47.45    1.51 
  -5   5   7   46.70    1.26 
   5   5  -7   46.85    1.25 
  -5   5   7   48.74    1.40 
   5   5   7   55.14    1.67 
   5  -5  -7   55.98    1.62 
   5  -5  -7   57.85    1.60 
   5   5   7   57.35    1.67 
  -5   5  -7   57.63    1.72 
   5  -5  -7   58.08    1.65 
   5   5   7   56.77    1.73 
   6  -5   7   58.35    1.75 
   6  -5   7   54.16    1.75 
   6   5   7   60.60    1.84 
   6  -5  -7   63.00    1.77 
   6  -5  -7   62.71    1.76 
   6   5   7   64.96    1.91 
   6   5   7   64.64    1.85 
  -6   5  -7   59.40    1.88 
   7  -5   7   33.01    1.23 
   7  -5   7   31.10    1.22 
   7  -5  -7   26.19    0.92 
   7  -5  -7   25.97    0.94 
  -7   5  -7   27.67    1.05 
   7   5   7   26.39    1.02 
   7   5   7   26.87    1.02 
   7   5   7   25.47    1.05 
   8  -5   7   23.20    1.07 
   8  -5   7   22.66    1.09 
   8   5   7   21.00    0.95 
   8  -5  -7   20.64    0.85 
   9  -5   7   15.88    0.99 
   9  -5   7   15.01    0.95 
   9  -5  -7   17.11    0.82 
   9   5   7   16.89    0.91 
  10  -5   7    9.39    0.80 
  10   5   7    7.20    0.64 
  10  -5  -7    6.91    0.54 
   0   6  -7  208.15    5.28 
   0   6   7  217.08    5.42 
   0   6   7  208.66    5.27 
   0  -6   7  214.40    5.36 
   0   6  -7  210.54    5.36 
  -1   6   7   84.77    2.37 
   1  -6   7   88.69    2.34 
   1   6  -7   84.75    2.30 
   1  -6   7   85.62    2.30 
   1   6  -7   87.72    2.27 
  -1  -6   7   79.65    2.09 
  -1  -6   7   80.40    2.07 
  -1   6  -7   79.46    2.16 
   1   6   7   79.42    2.21 
  -1   6  -7   75.40    2.13 
   2   6  -7   89.35    2.29 
   2   6  -7   86.26    2.26 
   2  -6   7   85.19    2.37 
   2  -6   7   84.64    2.33 
  -2   6   7   87.41    2.37 
   2   6   7   91.59    2.54 
  -2  -6   7   95.27    2.36 
  -2   6  -7   92.51    2.49 
  -2  -6   7   91.51    2.36 
  -2   6  -7   90.61    2.52 
   2   6   7   95.04    2.49 
   3  -6   7   68.50    2.02 
   3   6  -7   70.41    1.89 
  -3   6   7   71.91    1.99 
   3  -6   7   70.14    2.00 
   3   6  -7   72.79    1.87 
   3  -6  -7   73.93    2.04 
   3   6   7   77.33    2.11 
  -3   6  -7   76.55    2.14 
   3  -6  -7   75.20    2.10 
   3  -6  -7   77.13    2.06 
   3   6   7   75.04    2.16 
   3   6   7   75.85    2.10 
   4  -6   7   17.00    0.76 
  -4   6   7   17.61    0.69 
  -4   6   7   17.18    0.65 
  -4   6   7   17.65    0.63 
  -4   6   7   19.09    0.66 
   4   6  -7   17.34    0.57 
   4   6  -7   17.49    0.58 
   4  -6   7   15.82    0.76 
   4  -6  -7   16.76    0.65 
   4   6   7   17.27    0.71 
   4   6   7   17.75    0.73 
   4   6   7   19.15    0.77 
   4  -6  -7   17.70    0.70 
   4  -6  -7   15.99    0.67 
  -4   6  -7   17.13    0.75 
   5  -6   7   45.02    1.46 
   5   6  -7   44.12    1.20 
   5   6  -7   44.20    1.21 
  -5   6   7   43.64    1.27 
   5   6  -7   46.92    1.20 
  -5   6   7   45.25    1.36 
  -5   6   7   45.38    1.26 
   5  -6   7   43.70    1.46 
   5  -6  -7   45.13    1.34 
   5  -6  -7   44.14    1.47 
   5   6   7   45.52    1.41 
   5   6   7   45.28    1.41 
   5  -6  -7   43.71    1.37 
  -5   6  -7   45.97    1.47 
   5   6   7   45.76    1.47 
   6  -6   7   24.80    1.03 
   6   6  -7   24.75    0.71 
   6  -6   7   23.62    1.02 
   6   6   7   25.68    0.98 
  -6   6  -7   26.10    1.03 
   6  -6  -7   25.55    0.92 
   6  -6  -7   28.39    0.97 
   6   6   7   26.63    1.05 
   6   6   7   27.98    1.02 
   7  -6   7   20.23    0.98 
   7  -6   7   21.35    1.01 
  -7   6  -7   19.68    0.92 
   7  -6  -7   21.68    0.87 
   7   6   7   21.71    0.96 
   7   6   7   20.48    0.90 
   7   6   7   22.14    0.93 
   7  -6  -7   20.49    0.82 
   8  -6   7   60.23    1.99 
   8  -6   7   60.46    1.97 
   8  -6  -7   59.38    1.77 
   8   6   7   58.88    1.85 
   8   6   7   58.85    1.90 
   9  -6   7   17.69    1.06 
   9  -6   7   18.24    1.06 
   9   6   7   15.60    0.89 
   9  -6  -7   15.18    0.82 
  10  -6   7   22.78    1.23 
  10  -6  -7   26.53    1.18 
   0   7   7   16.15    0.62 
   0   7  -7   14.29    0.61 
   0  -7   7   15.46    0.59 
   0  -7   7   13.28    0.57 
   0   7   7   16.90    0.68 
   0   7  -7   15.07    0.62 
  -1   7   7  114.27    3.05 
   1   7  -7  113.84    2.95 
   1  -7   7  114.81    2.96 
   1   7  -7  110.76    2.98 
   1  -7   7  112.42    3.01 
  -1   7  -7  110.90    2.90 
   1   7   7  105.80    2.92 
  -1  -7   7  105.42    2.77 
  -1  -7   7  110.99    2.81 
  -1   7  -7  106.57    2.86 
   1   7   7  107.71    2.82 
   2   7  -7  108.09    2.87 
   2  -7   7  110.22    2.95 
  -2   7   7  112.40    2.96 
   2   7  -7  107.26    2.83 
   2  -7   7  109.48    2.90 
  -2   7  -7   99.44    2.70 
  -2  -7   7  100.24    2.52 
  -2   7  -7   98.67    2.67 
  -2  -7   7   98.17    2.53 
   2   7   7   97.66    2.72 
   3   7  -7   59.55    1.62 
   3  -7   7   58.80    1.73 
  -3   7   7   58.28    1.73 
   3  -7   7   57.89    1.74 
   3   7  -7   59.40    1.61 
   3  -7  -7   61.59    1.75 
   3  -7  -7   60.78    1.73 
   3   7   7   64.42    1.85 
   3   7   7   63.13    1.80 
  -3   7  -7   59.66    1.82 
   4   7  -7  119.40    3.16 
   4  -7   7  125.92    3.34 
   4  -7   7  127.24    3.40 
  -4   7   7  125.52    3.35 
   4   7  -7  127.94    3.21 
   4  -7  -7  114.42    3.06 
  -4   7  -7  113.52    3.16 
   4   7   7  111.47    3.11 
   4   7   7  119.96    3.19 
   4   7   7  116.48    3.10 
   4  -7  -7  119.83    3.06 
   5   7  -7   47.12    1.28 
   5   7  -7   46.00    1.27 
  -5   7   7   46.41    1.35 
   5  -7   7   46.92    1.53 
   5  -7   7   46.38    1.51 
  -5   7   7   46.18    1.44 
   5   7   7   39.52    1.33 
   5  -7  -7   40.96    1.27 
   5   7   7   43.00    1.40 
   5  -7  -7   41.43    1.32 
   5   7   7   41.27    1.34 
  -5   7  -7   41.46    1.39 
   6  -7   7   50.84    1.67 
   6  -7   7   50.15    1.65 
  -6   7   7   49.88    1.36 
   6   7  -7   50.13    1.35 
   6   7   7   45.44    1.49 
   6   7   7   43.84    1.42 
   6  -7  -7   43.12    1.38 
   6   7   7   42.49    1.42 
   6  -7  -7   43.53    1.35 
  -6   7  -7   41.81    1.45 
   7  -7   7   36.76    1.42 
   7  -7   7   40.91    1.45 
   7   7   7   43.54    1.45 
  -7   7  -7   42.60    1.50 
   7  -7  -7   43.02    1.37 
   7  -7  -7   41.65    1.39 
   7   7   7   42.80    1.49 
   7   7   7   41.33    1.43 
   8  -7   7    3.83    0.57 
   8  -7   7    5.26    0.60 
   8   7   7    3.15    0.45 
   8   7   7    3.03    0.47 
   8  -7  -7    3.11    0.42 
   9  -7   7   17.51    1.07 
   9  -7   7   14.68    1.01 
   9   7   7   17.75    0.98 
   9  -7  -7   18.29    0.92 
  10  -7   7    6.95    0.80 
   0   8  -7  221.21    5.62 
   0   8   7  227.09    5.67 
   0   8  -7  218.26    5.53 
   0  -8   7  215.60    5.58 
   0   8   7  220.91    5.52 
   0  -8   7  214.91    5.49 
   1  -8   7   48.46    1.43 
  -1   8   7   48.21    1.49 
   1   8  -7   48.41    1.41 
   1  -8   7   46.77    1.43 
   1   8  -7   48.11    1.43 
   1   8   7   53.12    1.64 
  -1   8  -7   52.79    1.59 
  -1  -8   7   54.67    1.52 
  -1  -8   7   57.84    1.52 
  -1   8  -7   53.16    1.61 
   1   8   7   51.67    1.55 
   2   8  -7   96.46    2.51 
   2  -8   7   92.94    2.57 
  -2   8   7   99.38    2.64 
   2   8  -7   94.06    2.54 
   2  -8   7   90.12    2.59 
  -2  -8   7   84.44    2.27 
   2   8   7   89.78    2.49 
  -2  -8   7   87.49    2.27 
  -2   8  -7   88.32    2.45 
  -3   8   7  143.12    3.80 
   3   8  -7  143.28    3.64 
   3  -8   7  144.57    3.81 
   3  -8   7  139.53    3.75 
   3   8  -7  143.67    3.69 
  -3   8  -7  150.43    3.91 
   3  -8  -7  141.03    3.80 
   3  -8  -7  147.64    3.80 
   3   8   7  147.01    3.92 
  -4   8   7    7.55    0.51 
   4   8  -7    7.41    0.41 
   4  -8   7    7.78    0.57 
   4  -8   7    7.47    0.59 
   4   8  -7    7.37    0.40 
  -4   8  -7    6.46    0.54 
   4   8   7    6.35    0.53 
   4  -8  -7    5.50    0.45 
   4   8   7    8.20    0.54 
   4  -8  -7    7.17    0.49 
   5  -8   7   67.16    2.01 
  -5   8   7   67.89    1.96 
   5   8  -7   65.84    1.77 
   5  -8   7   62.85    2.01 
   5   8  -7   65.73    1.77 
  -5   8   7   65.69    1.85 
   5  -8  -7   65.26    1.90 
   5   8   7   66.28    1.93 
  -5   8  -7   64.57    1.98 
   5  -8  -7   60.69    1.85 
   5   8   7   62.94    1.91 
   5   8   7   66.31    1.99 
  -6   8   7   27.54    0.87 
   6   8  -7   27.53    0.84 
   6  -8   7   27.55    1.15 
   6  -8   7   26.39    1.12 
   6   8  -7   25.49    0.78 
   6  -8  -7   27.58    1.00 
   6   8   7   26.10    1.05 
  -6   8  -7   25.13    1.07 
   6  -8  -7   28.89    1.07 
   6   8   7   26.37    1.11 
   6   8   7   25.94    1.03 
   7   8  -7   14.94    0.54 
   7  -8   7   13.49    0.89 
   7  -8   7   15.94    0.92 
   7  -8  -7   14.76    0.77 
   7   8   7   16.88    0.89 
   7   8   7   15.51    0.81 
   7   8   7   14.79    0.82 
   7  -8  -7   15.27    0.83 
   8  -8   7   46.73    1.70 
   8  -8   7   46.44    1.71 
   8   8   7   41.94    1.54 
   8   8   7   43.35    1.51 
   8  -8  -7   42.06    1.47 
   9  -8   7    3.06    0.57 
   9  -8   7    3.49    0.61 
   9   8   7    4.06    0.52 
   9  -8  -7    3.76    0.50 
   0   9   7   11.57    0.62 
   0   9  -7   10.91    0.56 
   0   9  -7   10.11    0.57 
   0  -9   7   11.09    0.54 
   0  -9   7    9.88    0.53 
  -1   9   7  103.14    2.84 
   1   9  -7  103.80    2.77 
   1  -9   7  101.09    2.77 
   1  -9   7  104.46    2.75 
   1   9  -7   98.07    2.72 
  -1   9  -7   89.96    2.44 
  -1   9  -7   86.92    2.46 
   1   9   7   83.97    2.50 
   1   9   7   91.19    2.41 
  -1  -9   7   87.50    2.35 
  -1  -9   7   88.32    2.36 
   2   9  -7   65.05    1.84 
   2   9  -7   63.70    1.85 
   2  -9   7   65.76    1.90 
   2  -9   7   66.30    1.91 
  -2   9   7   65.65    1.95 
   2   9   7   80.26    2.25 
  -2   9  -7   82.86    2.35 
  -2  -9   7   78.83    2.16 
  -2  -9   7   85.04    2.18 
   2   9   7   83.77    2.37 
  -3   9   7   12.21    0.66 
   3   9  -7   12.99    0.58 
   3   9  -7   12.20    0.56 
   3  -9   7   12.98    0.68 
   3  -9   7   12.73    0.69 
   3  -9  -7    7.85    0.56 
   3   9   7    7.76    0.57 
  -3   9  -7    8.19    0.56 
   3  -9  -7    7.05    0.50 
   4   9  -7  106.60    2.82 
  -4   9   7  106.43    2.97 
   4  -9   7  106.82    2.95 
   4  -9   7  108.37    3.00 
   4   9  -7  104.37    2.78 
   4  -9  -7  111.70    3.02 
   4   9   7  117.18    3.06 
  -4   9  -7  104.57    3.09 
   4  -9  -7  111.42    3.00 
   4   9   7  110.44    3.12 
   5  -9   7    5.34    0.53 
  -5   9   7    5.76    0.49 
   5   9  -7    5.52    0.39 
   5  -9   7    6.67    0.57 
   5   9  -7    5.96    0.39 
   5  -9  -7    7.13    0.59 
  -5   9  -7    8.92    0.64 
   5   9   7    8.42    0.59 
   5   9   7    8.30    0.65 
   5  -9  -7    8.68    0.64 
   5   9   7    8.33    0.61 
   6  -9   7   62.79    2.00 
   6   9  -7   63.53    1.72 
  -6   9   7   61.53    1.77 
   6   9  -7   60.97    1.69 
   6  -9   7   63.21    2.01 
  -6   9  -7   61.29    1.95 
   6   9   7   62.22    1.90 
   6  -9  -7   61.77    1.83 
   6   9   7   61.03    1.95 
   6  -9  -7   57.88    1.87 
   6   9   7   59.22    1.88 
   7  -9   7   26.15    1.21 
   7  -9   7   28.07    1.24 
   7   9  -7   27.62    0.87 
   7   9   7   30.60    1.22 
   7  -9  -7   32.00    1.24 
   7   9   7   31.33    1.29 
   7   9   7   31.49    1.21 
   7  -9  -7   30.55    1.17 
   8  -9   7    3.33    0.58 
   8  -9   7    2.93    0.54 
   8   9   7    1.13    0.40 
   8   9   7    1.85    0.45 
   8  -9  -7    1.59    0.43 
   9  -9   7   15.61    1.11 
   9  -9   7   16.45    1.08 
   9   9   7   13.88    0.91 
   9  -9  -7   15.10    0.92 
   9   9   7   12.39    0.86 
   0  10  -7  163.82    4.39 
   0  10   7  172.21    4.52 
   0 -10   7  174.20    4.41 
   0  10  -7  169.62    4.46 
   0 -10   7  167.90    4.34 
   1 -10   7   14.33    0.67 
   1  10  -7   13.26    0.65 
   1  10  -7   14.10    0.66 
  -1  10   7   13.08    0.71 
   1 -10   7   15.14    0.70 
   1  10   7   18.23    0.78 
  -1  10  -7   19.74    0.83 
  -1 -10   7   18.69    0.73 
  -1 -10   7   20.51    0.73 
  -1  10  -7   18.47    0.82 
   1  10   7   19.48    0.86 
   2  10  -7   87.40    2.45 
   2 -10   7   90.54    2.52 
  -2  10   7   91.24    2.58 
   2 -10   7   90.02    2.52 
   2  10  -7   88.90    2.48 
   2  10   7   81.12    2.35 
  -2  10  -7   81.78    2.33 
  -2 -10   7   80.06    2.15 
   2  10   7   81.24    2.25 
  -2 -10   7   76.43    2.13 
   3  10  -7   27.18    0.96 
   3  10  -7   28.43    0.98 
   3 -10   7   27.95    1.06 
  -3  10   7   26.59    1.07 
   3 -10   7   29.28    1.08 
   3  10   7   27.95    1.11 
  -3  10  -7   28.76    1.10 
   3 -10  -7   27.60    1.06 
   3 -10  -7   29.62    1.04 
   4  10  -7   16.06    0.67 
   4  10  -7   15.64    0.66 
  -4  10   7   15.52    0.78 
   4 -10   7   14.41    0.80 
   4 -10   7   15.26    0.83 
   4 -10  -7   10.43    0.66 
   4 -10  -7   12.51    0.73 
   4  10   7   12.94    0.75 
  -4  10  -7   12.01    0.72 
   5  10  -7   13.94    0.62 
   5 -10   7   15.01    0.82 
  -5  10   7   13.59    0.75 
   5 -10   7   14.23    0.84 
   5  10  -7   14.43    0.62 
   5  10   7   15.06    0.79 
   5 -10  -7   13.26    0.80 
  -5  10  -7   13.12    0.79 
   5  10   7   13.36    0.81 
   5 -10  -7   13.68    0.76 
   6  10  -7   37.10    1.17 
   6 -10   7   40.75    1.48 
  -6  10   7   39.34    1.25 
   6  10  -7   37.14    1.18 
   6 -10   7   40.38    1.46 
   6  10   7   45.64    1.52 
   6 -10  -7   44.53    1.49 
  -6  10  -7   42.37    1.58 
   6  10   7   44.99    1.55 
   6  10   7   42.57    1.58 
   6 -10  -7   45.95    1.55 
   7 -10   7    2.82    0.51 
   7 -10   7    3.45    0.55 
   7  10   7    2.26    0.42 
   7  10   7    2.56    0.49 
   7  10   7    1.58    0.42 
   7 -10  -7    1.87    0.44 
   7 -10  -7    1.70    0.42 
   8 -10   7   46.28    1.75 
   8 -10   7   46.22    1.74 
   8 -10  -7   49.30    1.72 
   8  10   7   48.84    1.76 
   8  10   7   47.33    1.72 
   9 -10   7    4.35    0.66 
   9 -10   7    3.82    0.65 
   9  10   7    4.44    0.60 
   9  10   7    4.13    0.56 
   9 -10  -7    4.45    0.59 
   0 -11   7    0.23    0.23 
   0 -11   7    0.38    0.24 
   0  11  -7    0.04    0.23 
   0  11   7    0.12    0.28 
   0  11  -7    0.62    0.27 
   1  11  -7   31.15    1.14 
   1  11  -7   34.02    1.15 
   1 -11   7   30.75    1.13 
   1 -11   7   31.63    1.12 
  -1  11   7   33.27    1.22 
  -1  11  -7   28.24    1.16 
   1  11   7   26.85    1.09 
  -1  11  -7   27.31    1.08 
   1  11   7   29.66    1.12 
  -1 -11   7   29.50    0.96 
  -1 -11   7   27.99    0.98 
   2 -11   7   69.62    2.02 
  -2  11   7   65.77    2.07 
   2  11  -7   66.54    1.97 
   2  11  -7   66.82    1.98 
   2 -11   7   68.39    2.02 
   2  11   7   63.95    1.94 
  -2 -11   7   57.81    1.69 
  -2  11  -7   62.72    1.91 
   3 -11   7   16.32    0.82 
   3 -11   7   15.20    0.80 
  -3  11   7   15.50    0.80 
   3  11  -7   13.79    0.69 
   3 -11  -7   11.01    0.66 
   3  11   7    9.87    0.69 
  -3  11  -7    9.47    0.67 
   4 -11   7  117.77    3.36 
   4 -11   7  124.01    3.36 
   4  11  -7  118.69    3.23 
  -4  11   7  122.64    3.39 
   4 -11  -7  112.39    3.10 
  -4  11  -7  108.27    3.17 
   4 -11  -7  111.62    3.06 
   4  11   7  112.99    3.19 
   5 -11   7    9.42    0.77 
   5 -11   7    9.15    0.72 
  -5  11   7    9.07    0.67 
   5  11  -7    9.71    0.55 
   5  11   7   10.32    0.77 
   5 -11  -7   10.24    0.71 
   5 -11  -7   10.43    0.78 
   5  11   7   10.24    0.74 
  -5  11  -7   10.20    0.74 
   6 -11   7   52.17    1.81 
   6  11  -7   51.96    1.55 
   6 -11   7   53.73    1.82 
   6  11   7   44.77    1.59 
   6  11   7   46.26    1.57 
   6 -11  -7   45.79    1.56 
  -6  11  -7   44.49    1.64 
   6  11   7   45.52    1.65 
   6 -11  -7   45.29    1.61 
   7 -11   7   13.59    0.97 
   7 -11   7   11.98    0.94 
   7  11   7   13.53    0.88 
   7 -11  -7   14.50    0.94 
   7  11   7   13.55    0.94 
   7 -11  -7   13.77    0.86 
   8 -11   7    4.08    0.62 
   8 -11   7    2.94    0.60 
   8  11   7    3.32    0.53 
   8  11   7    2.85    0.55 
   8 -11  -7    2.78    0.54 
   8 -11  -7    3.07    0.53 
   9 -11   7   12.04    0.98 
   9 -11   7   11.22    0.92 
   9  11   7   10.70    0.86 
   0  12  -7   85.02    2.52 
   0  12   7   88.52    2.59 
   0 -12   7   87.63    2.44 
   1 -12   7   34.36    1.20 
   1 -12   7   35.03    1.22 
  -1  12   7   33.84    1.29 
   1  12  -7   33.59    1.23 
  -1 -12   7   28.18    0.98 
   1  12   7   27.86    1.14 
  -1  12  -7   28.42    1.12 
   2 -12   7   58.77    1.83 
  -2  12   7   59.14    1.91 
   2  12  -7   58.93    1.81 
   2 -12   7   59.92    1.84 
  -2  12  -7   64.91    1.98 
   2  12   7   64.17    2.00 
  -2 -12   7   58.16    1.73 
   3  12  -7   32.90    1.17 
   3 -12   7   34.11    1.26 
   3 -12   7   32.60    1.27 
  -3  12   7   33.37    1.29 
   3 -12  -7   30.97    1.16 
  -3  12  -7   32.06    1.25 
   3  12   7   31.85    1.26 
  -4  12   7   10.80    0.77 
   4 -12   7   10.26    0.75 
   4 -12   7    9.55    0.76 
   4  12  -7   10.39    0.61 
  -4  12  -7   13.13    0.82 
   4 -12  -7   11.98    0.82 
   4  12   7   10.89    0.77 
   4 -12  -7   11.95    0.78 
   5 -12   7   30.69    1.30 
   5 -12   7   30.47    1.29 
  -5  12   7   31.02    1.28 
   5  12  -7   32.73    1.13 
  -5  12  -7   28.77    1.26 
   5  12   7   29.00    1.27 
   5 -12  -7   30.39    1.24 
   5 -12  -7   29.19    1.19 
   5  12   7   30.85    1.25 
   6  12  -7   17.37    0.77 
   6 -12   7   18.65    1.06 
   6 -12   7   16.75    1.05 
   6 -12  -7   13.73    0.95 
   6  12   7   15.21    0.91 
   6  12   7   15.14    0.95 
  -6  12  -7   13.26    0.91 
   6  12   7   14.50    0.87 
   6 -12  -7   14.59    0.91 
   7 -12   7   15.86    1.05 
   7 -12   7   16.13    1.06 
   7 -12  -7   14.40    0.95 
   7  12   7   15.22    0.98 
   7  12   7   16.50    1.00 
   7 -12  -7   16.10    1.04 
   8 -12   7   27.59    1.41 
   8 -12   7   27.38    1.39 
   8  12   7   27.02    1.29 
   8  12   7   26.03    1.30 
   8 -12  -7   26.41    1.25 
   8 -12  -7   26.73    1.31 
   9 -12   7    5.51    0.75 
   9  12   7    2.55    0.58 
   0  13   7   44.93    1.61 
   0 -13   7   46.26    1.46 
   0  13  -7   45.10    1.55 
   1 -13   7   20.40    0.89 
   1  13  -7   20.79    0.92 
  -1  13   7   18.27    0.96 
   1  13   7   23.36    1.09 
  -1 -13   7   26.91    0.95 
  -1  13  -7   26.13    1.10 
   2 -13   7   47.99    1.55 
  -2  13   7   44.68    1.62 
   2  13  -7   44.54    1.52 
  -2  13  -7   54.28    1.77 
  -2 -13   7   49.27    1.50 
   2  13   7   52.21    1.79 
   3 -13   7   48.97    1.67 
  -3  13   7   49.59    1.70 
   3 -13   7   47.24    1.64 
   3  13  -7   47.87    1.57 
   3 -13  -7   46.26    1.55 
   3  13   7   45.43    1.64 
  -3  13  -7   47.04    1.65 
   4  13  -7   39.80    1.36 
   4 -13   7   39.13    1.47 
  -4  13   7   38.54    1.50 
   4 -13   7   41.01    1.49 
   4 -13  -7   42.71    1.48 
   4 -13  -7   42.44    1.53 
   4  13   7   41.61    1.56 
  -4  13  -7   40.53    1.56 
   5 -13   7   30.87    1.33 
   5  13  -7   30.86    1.15 
  -5  13   7   31.77    1.33 
   5 -13   7   31.13    1.33 
   5 -13  -7   30.70    1.27 
   5  13   7   28.83    1.27 
  -5  13  -7   31.00    1.34 
   5 -13  -7   30.30    1.32 
   5  13   7   32.01    1.35 
   6 -13   7   20.28    1.15 
   6 -13   7   19.25    1.10 
   6  13  -7   17.87    0.84 
   6 -13  -7   22.10    1.18 
  -6  13  -7   24.66    1.19 
   6  13   7   22.79    1.21 
   6  13   7   22.54    1.15 
   6 -13  -7   23.85    1.14 
   6  13   7   22.77    1.10 
   7 -13   7   14.33    1.07 
   7 -13   7   13.62    1.07 
   7 -13  -7   14.05    1.03 
   7 -13  -7   15.48    0.98 
   7  13   7   12.85    1.00 
   7  13   7   14.50    1.00 
   8 -13   7    9.28    0.89 
   8 -13   7    9.36    0.87 
   8 -13  -7    6.81    0.71 
   8  13   7    7.35    0.78 
   8 -13  -7    7.63    0.79 
   0 -14   7   26.54    1.04 
   0  14   7   27.97    1.22 
   0  14  -7   27.10    1.16 
   1  14  -7   57.88    1.86 
  -1  14   7   56.54    1.94 
   1 -14   7   56.79    1.80 
  -1 -14   7   65.63    1.94 
   1  14   7   65.25    2.14 
  -1  14  -7   66.87    2.12 
   2  14  -7   24.01    1.05 
   2 -14   7   24.56    1.06 
  -2  14   7   24.69    1.15 
  -2  14  -7   19.67    1.01 
   2  14   7   20.06    1.06 
  -3  14   7   22.82    1.12 
   3 -14   7   22.90    1.09 
   3  14  -7   22.48    0.99 
  -3  14  -7   19.60    1.02 
   3  14   7   19.03    1.02 
   4 -14   7   14.76    0.93 
   4  14  -7   13.70    0.78 
  -4  14   7   12.87    0.89 
   4  14   7    7.69    0.73 
  -4  14  -7   11.12    0.84 
   4 -14  -7   10.48    0.82 
   5 -14   7   15.91    1.04 
  -5  14   7   14.89    0.96 
   5  14  -7   17.44    0.86 
   5  14   7   18.40    1.04 
   5  14   7   17.62    1.07 
  -5  14  -7   17.83    1.05 
   5 -14  -7   16.54    1.03 
   5 -14  -7   19.60    1.12 
   6 -14   7   10.94    0.86 
   6  14  -7   11.37    0.71 
   6 -14  -7   10.12    0.82 
   6  14   7    9.93    0.82 
   6 -14  -7    8.66    0.73 
   6  14   7   10.21    0.86 
  -6  14  -7    9.43    0.82 
   7 -14   7   25.85    1.34 
   7 -14  -7   23.05    1.26 
   7  14   7   17.43    1.17 
   7 -14  -7   22.16    1.16 
   7  14   7   21.97    1.19 
   8 -14  -7    9.58    0.81 
   8  14   7    9.15    0.89 
   0 -15   7    9.81    0.69 
   0  15   7    8.04    0.73 
   0  15  -7    7.90    0.68 
   1  15  -7   31.68    1.29 
   1 -15   7   32.13    1.23 
  -1  15   7   33.00    1.39 
   1  15   7   28.91    1.27 
  -1 -15   7   26.85    1.03 
  -1  15  -7   26.78    1.21 
   2  15  -7    5.29    0.55 
  -2  15   7    5.41    0.65 
   2 -15   7    4.65    0.54 
  -2  15  -7    6.41    0.66 
   2  15   7    6.90    0.69 
  -3  15   7   70.46    2.31 
   3 -15   7   68.02    2.19 
   3  15  -7   69.21    2.17 
   3  15   7   60.35    2.07 
  -3  15  -7   58.85    2.05 
   4  15  -7   17.17    0.91 
  -4  15   7   16.04    1.02 
   4 -15   7   17.90    1.03 
  -4  15  -7   14.92    0.99 
   4 -15  -7   14.89    0.96 
   4  15   7   14.74    1.03 
   5  15  -7   43.10    1.53 
   5 -15   7   42.59    1.67 
   5  15   7   39.83    1.64 
   5 -15  -7   39.23    1.54 
  -5  15  -7   38.64    1.61 
   6 -15   7   18.94    1.18 
   6  15  -7   16.64    0.90 
  -6  15  -7   14.65    1.08 
   6 -15  -7   15.23    1.07 
   6  15   7   14.08    1.02 
   6  15   7   14.87    1.07 
   6 -15  -7   14.20    1.11 
   7 -15   7    7.70    0.87 
   7 -15  -7   10.43    0.89 
   7 -15  -7    9.13    0.81 
   7  15   7    9.58    0.89 
   0  16   7    0.62    0.45 
   0  16  -7    1.41    0.44 
   0 -16   7    1.28    0.39 
   1 -16   7   63.40    2.03 
  -1  16   7   66.26    2.24 
   1  16  -7   65.71    2.16 
  -1  16  -7   68.99    2.29 
  -1 -16   7   68.98    2.06 
   1  16   7   71.90    2.35 
   2  16  -7   23.10    1.08 
   2 -16   7   22.88    1.10 
  -2  16   7   22.10    1.19 
  -2  16  -7   19.96    1.08 
   2  16   7   16.37    1.05 
   3 -16   7   13.15    0.97 
  -3  16   7   13.39    0.98 
   3  16  -7   13.45    0.87 
   3  16   7   21.31    1.17 
  -3  16  -7   18.05    1.10 
  -4  16   7   31.49    1.42 
   4  16  -7   29.61    1.27 
   4 -16   7   28.74    1.33 
  -4  16  -7   31.14    1.41 
   4  16   7   29.83    1.42 
   5  16  -7   14.30    0.89 
   5 -16   7   14.15    1.08 
   5  16   7    9.67    0.88 
   5 -16  -7   10.50    0.82 
  -5  16  -7    9.79    0.88 
   6 -16   7   13.60    1.11 
   6  16  -7   12.78    0.85 
   6  16   7   18.15    1.19 
   6  16   7   18.22    1.14 
   6 -16  -7   16.47    1.12 
  -6  16  -7   14.82    1.10 
   0  17  -7   28.85    1.32 
   0 -17   7   29.59    1.17 
   0  17   7   27.17    1.36 
   1  17  -7    5.90    0.66 
   1 -17   7    7.80    0.65 
  -1  17   7    6.94    0.74 
   1  17   7    6.51    0.75 
  -1 -17   7    6.21    0.54 
  -1  17  -7    6.94    0.74 
  -2  17   7   21.55    1.24 
   2  17  -7   24.27    1.20 
   2 -17   7   26.67    1.18 
  -2  17  -7   25.70    1.28 
   2  17   7   25.01    1.30 
   3 -17   7   36.91    1.49 
   3  17  -7   35.39    1.48 
  -3  17   7   39.38    1.64 
   3  17   7   39.02    1.64 
  -3  17  -7   37.81    1.61 
  -4  17   7    0.65    0.51 
   4 -17   7    0.70    0.51 
   4  17  -7    1.44    0.44 
   4  17   7    1.61    0.56 
  -4  17  -7    2.48    0.59 
   5  17  -7   29.91    1.31 
   5 -17   7   29.78    1.43 
  -5  17  -7   35.65    1.64 
   5  17   7   34.80    1.62 
   6  17  -7    9.35    0.75 
   0  18   7   -0.07    0.46 
   0 -18   7    0.37    0.39 
   0  18  -7    0.14    0.45 
   1  18  -7   32.50    1.45 
  -1  18   7   33.46    1.55 
   1 -18   7   31.52    1.34 
   1  18   7   31.80    1.48 
  -1  18  -7   28.91    1.43 
   2  18  -7   14.59    1.02 
  -2  18   7   13.93    1.08 
   2 -18   7   13.58    0.98 
  -2  18  -7   15.46    1.09 
   2  18   7   14.94    1.09 
   3  18  -7    5.33    0.67 
   3 -18   7    5.72    0.67 
  -3  18   7    6.19    0.78 
  -3  18  -7    6.58    0.79 
   3  18   7    6.03    0.77 
   4  18  -7   15.66    1.03 
   4 -18   7   15.68    1.08 
  -4  18   7   16.26    1.14 
  -4  18  -7   20.02    1.23 
   4  18   7   17.76    1.25 
   5  18  -7    2.62    0.54 
  -5  18  -7    2.60    0.66 
   0  19  -7   29.68    1.47 
   0 -19   7   28.19    1.22 
   0  19   7   29.21    1.50 
  -1  19   7    6.33    0.82 
   1 -19   7    6.13    0.65 
   1  19  -7    8.41    0.84 
   1  19   7    2.44    0.63 
  -1  19  -7    3.06    0.62 
   2 -19   7   10.34    0.81 
   2  19  -7   11.34    0.94 
  -2  19   7   10.31    0.95 
  -2  19  -7   11.77    1.00 
   2  19   7   10.75    0.97 
  -3  19   7   25.99    1.42 
   3  19  -7   22.53    1.33 
  -3  19  -7   25.66    1.39 
  -4  19   7    2.43    0.69 
  -4  19  -7    2.81    0.75 
   0 -20   7    6.96    0.65 
  -1  20   7   26.53    1.58 
   1 -20   7   29.32    1.30 
  -2  20   7    8.32    0.96 
   0   0   8  255.46    6.33 
   0   0   8  263.61    6.47 
   0   0   8  254.29    6.45 
   0   0  -8  260.18    6.46 
   0   0  -8  260.05    6.33 
   0   0  -8  256.36    6.46 
   1   0   8   34.37    0.99 
   1   0   8   32.32    0.98 
  -1   0  -8   31.23    1.00 
  -1   0  -8   34.04    0.98 
   1   0  -8   32.69    0.97 
   1   0   8   33.45    1.03 
  -1   0   8   34.62    0.99 
  -1   0   8   33.67    0.95 
   1   0  -8   33.01    0.95 
  -1   0   8   32.44    0.93 
   1   0  -8   31.18    0.95 
   2   0   8   60.13    1.70 
   2   0  -8   63.44    1.65 
  -2   0   8   61.61    1.60 
  -2   0  -8   62.81    1.69 
   2   0  -8   62.43    1.63 
  -2   0   8   61.59    1.66 
   2   0  -8   61.31    1.67 
  -2   0   8   61.23    1.60 
   2   0   8   63.01    1.76 
  -2   0   8   62.43    1.62 
   2   0   8   63.38    1.72 
   3   0  -8  167.15    4.16 
   3   0   8  157.31    4.35 
  -3   0   8  170.59    4.08 
   3   0   8  170.84    4.34 
   3   0  -8  176.32    4.23 
   3   0  -8  169.06    4.24 
   3   0   8  168.46    4.26 
   4   0  -8    0.17    0.10 
   4   0   8   -0.01    0.18 
   4   0  -8    0.11    0.11 
   4   0   8    0.32    0.18 
   5   0  -8  118.85    3.07 
   5   0   8  119.63    3.24 
   5   0   8  125.36    3.20 
   6   0   8   46.98    1.43 
   6   0  -8   44.61    1.20 
   6   0  -8   42.81    1.19 
   6   0   8   45.52    1.43 
   7   0   8   14.03    0.74 
   7   0   8   14.77    0.76 
   8   0   8   66.18    2.05 
   8   0   8   69.79    2.10 
   9   0   8    0.88    0.38 
  10   0   8   19.81    1.06 
   0   1  -8   48.44    1.38 
   0   1   8   49.63    1.35 
   0   1   8   48.47    1.38 
   0   1  -8   48.15    1.33 
   0  -1   8   48.24    1.37 
   0  -1  -8   49.97    1.34 
   0   1  -8   50.86    1.38 
   0   1   8   47.28    1.32 
   0  -1   8   47.53    1.33 
   0  -1   8   46.79    1.31 
   0  -1  -8   45.39    1.35 
  -1   1   8  198.51    5.20 
  -1  -1  -8  205.82    5.26 
   1  -1   8  213.56    5.14 
  -1  -1  -8  207.92    5.14 
   1   1  -8  209.52    5.22 
   1  -1   8  208.05    5.27 
   1   1  -8  210.14    5.11 
   1  -1   8  206.13    5.24 
  -1   1   8  204.42    5.10 
  -1   1   8  208.72    5.24 
   1   1  -8  212.12    5.21 
  -1   1  -8  232.96    5.82 
   1  -1  -8  235.49    5.80 
  -1   1  -8  234.70    5.95 
  -1  -1   8  235.00    5.76 
  -1  -1   8  237.48    5.91 
   1  -1  -8  230.79    5.91 
   1   1   8  254.56    5.98 
   1  -1  -8  240.42    5.91 
   1   1   8  237.30    5.82 
  -1  -1   8  223.97    5.88 
   2   1  -8   72.71    1.91 
  -2   1   8   72.27    1.92 
  -2   1   8   75.57    1.90 
   2  -1   8   78.70    2.00 
  -2   1   8   72.79    1.97 
   2  -1   8   76.79    2.07 
  -2   1   8   71.28    1.92 
   2  -1   8   75.37    2.02 
   2   1  -8   72.59    1.94 
  -2  -1  -8   74.88    1.98 
   2   1  -8   74.31    1.96 
   2   1   8   72.68    2.03 
   2   1   8   74.44    1.97 
  -2   1  -8   71.79    1.96 
   2   1   8   74.10    2.00 
  -2  -1   8   73.11    1.93 
   2  -1  -8   72.42    1.93 
  -2  -1   8   77.48    1.88 
   2  -1  -8   73.55    1.95 
  -2  -1   8   71.29    1.86 
   2  -1  -8   73.07    1.91 
   3   1  -8   28.24    0.77 
   3  -1   8   24.94    0.87 
   3  -1   8   27.33    0.89 
   3   1  -8   26.82    0.78 
  -3   1   8   24.66    0.79 
  -3   1   8   26.30    0.73 
   3   1  -8   26.62    0.77 
   3   1   8   24.92    0.88 
   3   1   8   23.51    0.83 
   3  -1  -8   25.28    0.75 
   3  -1  -8   25.01    0.77 
   3   1   8   25.60    0.84 
  -4   1   8  185.27    4.89 
   4  -1   8  198.54    5.05 
   4   1  -8  199.64    4.90 
   4  -1   8  196.73    4.96 
   4   1  -8  199.36    4.90 
   4   1  -8  200.78    4.81 
   4  -1  -8  193.60    4.84 
   4   1   8  203.26    4.88 
   4   1   8  183.58    4.98 
   4   1   8  191.51    4.96 
   5   1  -8   14.16    0.47 
   5   1  -8   14.26    0.47 
   5  -1   8   15.32    0.68 
  -5   1   8   15.10    0.43 
   5  -1   8   14.37    0.66 
   5  -1  -8   12.73    0.44 
   5  -1  -8   12.62    0.47 
   5   1   8   12.47    0.60 
   5   1   8   11.48    0.60 
   6  -1   8   71.27    2.05 
   6  -1   8   68.72    2.01 
   6   1   8   71.27    2.10 
   6   1   8   74.55    2.09 
   6  -1  -8   74.37    1.90 
   6  -1  -8   71.37    1.92 
   7  -1   8   56.86    1.75 
   7  -1   8   56.24    1.77 
   7   1   8   51.96    1.62 
   7   1   8   49.67    1.59 
   8  -1   8    6.69    0.57 
   8  -1   8    5.60    0.54 
   8   1   8    6.23    0.55 
   8   1   8    6.36    0.54 
   9  -1   8   34.94    1.35 
   9   1   8   34.37    1.33 
  10  -1   8    7.05    0.68 
  10   1   8    7.38    0.68 
   0   2   8  389.20    9.42 
   0  -2  -8  350.30    9.39 
   0   2  -8  386.92    9.41 
   0  -2   8  384.21    9.39 
   0   2   8  373.11    9.21 
   0   2   8  391.64    9.41 
   0  -2  -8  381.90    9.22 
   0  -2   8  369.69    9.19 
   0   2  -8  383.58    9.21 
   1   2  -8   81.69    2.31 
  -1   2   8   88.36    2.36 
  -1   2   8   92.00    2.33 
   1  -2   8   93.01    2.32 
   1  -2   8   88.73    2.36 
   1   2  -8   87.92    2.29 
   1   2  -8   90.59    2.34 
  -1  -2   8   80.92    2.03 
   1  -2  -8   78.39    2.10 
   1   2   8   79.72    2.15 
   1   2   8   77.56    2.08 
  -1   2  -8   77.52    2.14 
  -1   2  -8   76.68    2.08 
  -1  -2   8   79.51    2.05 
   1  -2  -8   80.51    2.07 
   1   2   8   78.00    2.12 
  -2  -2  -8  177.98    4.38 
  -2   2   8  163.94    4.38 
  -2   2   8  177.36    4.43 
   2   2  -8  168.58    4.40 
  -2   2   8  174.46    4.31 
  -2   2   8  181.04    4.39 
   2  -2   8  171.05    4.38 
   2  -2   8  169.20    4.46 
   2   2  -8  183.46    4.40 
   2   2  -8  178.07    4.31 
   2   2   8  174.55    4.39 
  -2  -2   8  176.45    4.27 
   2  -2  -8  170.90    4.42 
   2   2   8  170.50    4.47 
  -2  -2   8  178.91    4.34 
  -2   2  -8  176.08    4.39 
   2   2   8  175.97    4.51 
   3  -2   8   89.77    2.45 
   3   2  -8   92.06    2.38 
   3   2  -8   94.07    2.33 
  -3   2   8   95.34    2.33 
  -3   2   8   90.38    2.41 
  -3   2   8   96.17    2.35 
  -3   2   8   91.87    2.35 
   3   2  -8   89.58    2.36 
   3  -2   8   91.02    2.49 
   3  -2  -8   90.18    2.36 
   3   2   8   89.63    2.46 
   3   2   8   90.30    2.39 
   3   2   8   88.82    2.42 
   4  -2   8   61.12    1.75 
   4   2  -8   58.87    1.55 
  -4   2   8   60.28    1.61 
   4  -2   8   59.13    1.72 
   4   2  -8   61.78    1.58 
   4   2  -8   60.10    1.57 
   4   2   8   56.24    1.58 
   4   2   8   55.55    1.60 
   4  -2  -8   53.77    1.52 
   4   2   8   53.78    1.64 
   5  -2   8   59.93    1.77 
   5   2  -8   60.16    1.53 
   5  -2   8   59.77    1.74 
  -5   2   8   58.49    1.57 
   5   2  -8   58.95    1.54 
   5   2  -8   59.55    1.53 
   5  -2  -8   62.36    1.76 
   5   2   8   65.23    1.87 
   5   2   8   68.00    1.87 
   5  -2  -8   66.19    1.72 
   5   2   8   63.29    1.92 
   6  -2   8   61.20    1.85 
   6  -2   8   61.79    1.83 
   6  -2  -8   45.90    1.29 
   6   2   8   47.95    1.47 
   6   2   8   45.49    1.46 
   7  -2   8   24.83    1.01 
   7  -2   8   24.97    1.02 
   7   2   8   26.11    1.02 
   7   2   8   25.40    1.01 
   8  -2   8   50.88    1.69 
   8  -2   8   50.78    1.68 
   8   2   8   45.51    1.51 
   8   2   8   44.31    1.52 
   9  -2   8    9.87    0.81 
   9  -2   8    9.84    0.78 
   9   2   8   10.28    0.77 
  10  -2   8   26.39    1.25 
  10   2   8   25.84    1.19 
   0  -3  -8  124.52    3.17 
   0   3  -8  120.04    3.09 
   0  -3   8  102.09    3.05 
   0   3   8  124.82    3.19 
   0  -3   8  126.56    3.14 
   0   3   8  127.22    3.11 
   0   3   8  127.00    3.16 
   1  -3   8   84.04    2.23 
  -1   3   8   87.43    2.24 
  -1   3   8   83.96    2.21 
   1   3  -8   84.09    2.19 
   1  -3   8   83.89    2.26 
   1   3  -8   84.26    2.25 
  -1   3   8   85.48    2.28 
   1   3   8   75.61    2.07 
  -1   3  -8   75.41    2.01 
   1   3   8   75.96    2.03 
  -1  -3   8   74.27    1.94 
  -1  -3   8   76.24    1.98 
   1   3   8   76.02    2.01 
   1  -3  -8   71.91    2.02 
   2  -3   8  168.96    4.32 
  -2   3   8  166.24    4.29 
   2   3  -8  170.50    4.25 
  -2   3   8  167.79    4.17 
  -2   3   8  162.76    4.25 
   2   3  -8  166.80    4.23 
   2  -3   8  175.35    4.25 
   2   3  -8  168.72    4.16 
  -2   3   8  165.54    4.25 
   2   3   8  145.79    3.67 
   2  -3  -8  136.81    3.63 
  -2  -3   8  142.22    3.48 
   2   3   8  140.69    3.70 
   2   3   8  141.52    3.61 
  -2   3  -8  137.96    3.61 
  -2  -3   8  145.42    3.53 
  -3   3   8   28.09    0.85 
   3   3  -8   29.87    0.86 
  -3   3   8   29.60    0.85 
   3  -3   8   29.15    0.96 
   3  -3   8   29.58    0.97 
   3   3  -8   29.11    0.84 
  -3   3   8   28.38    0.90 
   3   3  -8   30.03    0.84 
  -3   3   8   27.28    0.84 
   3   3   8   40.12    1.21 
   3   3   8   40.36    1.21 
   3  -3  -8   39.98    1.16 
   3   3   8   37.27    1.24 
   4  -3   8  107.31    2.90 
  -4   3   8  108.86    2.83 
   4   3  -8  110.32    2.75 
   4   3  -8  108.42    2.71 
   4   3  -8  110.95    2.76 
   4  -3   8  106.43    2.93 
  -4   3   8  108.82    2.73 
   4   3   8   84.52    2.41 
   4  -3  -8   80.83    2.30 
   4  -3  -8   89.93    2.26 
   4   3   8   88.67    2.35 
   4   3   8   88.75    2.38 
   5  -3   8   38.35    1.24 
   5  -3   8   36.54    1.22 
   5   3  -8   37.22    0.99 
   5   3  -8   36.67    1.00 
   5   3  -8   37.07    0.98 
   5   3   8   43.57    1.33 
   5  -3  -8   43.01    1.19 
   5   3   8   42.36    1.33 
   5   3   8   40.26    1.37 
   5  -3  -8   41.43    1.24 
   6  -3   8   48.11    1.56 
   6  -3   8   50.90    1.58 
  -6   3  -8   51.84    1.61 
   6   3   8   53.50    1.61 
   6  -3  -8   54.90    1.46 
   6   3   8   52.04    1.59 
   6  -3  -8   50.30    1.46 
   6   3   8   50.22    1.64 
   7  -3   8   33.72    1.23 
   7  -3   8   31.77    1.21 
   7   3   8   31.38    1.17 
  -7   3  -8   31.01    1.17 
   7   3   8   33.34    1.17 
   7  -3  -8   33.04    1.03 
   8  -3   8   15.47    0.89 
   8  -3   8   15.89    0.88 
   8  -3  -8   17.37    0.70 
   8   3   8   18.28    0.87 
   8   3   8   15.68    0.85 
   9  -3   8   21.52    1.06 
   9  -3   8   19.97    1.06 
   9   3   8   21.92    1.03 
  10  -3   8   17.28    1.06 
  10   3   8   16.61    0.96 
   0   4   8   44.92    1.27 
   0   4  -8   43.01    1.28 
   0   4   8   42.84    1.29 
   0   4   8   42.10    1.25 
   0  -4   8   41.43    1.23 
   0   4  -8   43.84    1.24 
   1  -4   8   52.76    1.50 
  -1   4   8   50.87    1.48 
   1   4  -8   53.42    1.51 
   1   4  -8   55.33    1.47 
  -1   4   8   55.44    1.54 
  -1   4   8   52.12    1.50 
   1  -4   8   54.34    1.52 
   1   4   8   54.06    1.56 
  -1   4  -8   55.29    1.55 
   1   4   8   54.67    1.60 
  -1  -4   8   55.34    1.47 
  -1  -4   8   56.79    1.50 
   1   4   8   53.68    1.55 
   2  -4   8   64.48    1.82 
   2   4  -8   65.51    1.73 
   2   4  -8   67.05    1.79 
   2  -4   8   66.38    1.84 
  -2   4   8   65.04    1.78 
  -2   4   8   63.98    1.76 
  -2   4   8   65.33    1.82 
  -2   4   8   67.41    1.79 
  -2  -4   8   83.91    2.05 
   2   4   8   82.42    2.20 
   2   4   8   80.49    2.17 
  -2   4  -8   80.41    2.17 
   2   4   8   74.88    2.21 
   2  -4  -8   74.91    2.16 
  -2  -4   8   82.61    2.03 
   3  -4   8   34.72    1.12 
   3   4  -8   35.61    0.99 
   3   4  -8   34.11    1.01 
  -3   4   8   33.56    1.03 
   3   4  -8   34.03    0.98 
  -3   4   8   34.50    1.07 
  -3   4   8   36.32    1.02 
   3  -4   8   35.85    1.13 
  -3   4   8   35.52    1.02 
   3  -4  -8   30.50    1.00 
   3   4   8   32.68    1.04 
   3   4   8   31.38    1.07 
   3   4   8   33.07    1.04 
   4  -4   8   61.91    1.83 
   4   4  -8   59.52    1.65 
  -4   4   8   62.90    1.67 
  -4   4   8   62.37    1.65 
  -4   4   8   63.41    1.74 
   4  -4   8   65.80    1.83 
   4   4  -8   63.11    1.63 
  -4   4   8   65.17    1.66 
   4   4  -8   61.23    1.64 
   4   4   8   72.23    2.11 
   4   4   8   74.29    2.04 
   4   4   8   73.35    2.06 
   4  -4  -8   75.24    1.96 
   4  -4  -8   70.52    2.00 
   5  -4   8   31.59    1.09 
   5   4  -8   29.45    0.82 
   5   4  -8   30.50    0.84 
   5   4  -8   30.01    0.84 
   5  -4   8   31.76    1.10 
  -5   4   8   29.62    0.94 
   5   4   8   21.79    0.92 
  -5   4  -8   24.72    0.91 
   5   4   8   23.70    0.90 
   5  -4  -8   24.33    0.78 
   5   4   8   23.75    0.89 
   5  -4  -8   22.82    0.81 
   5  -4  -8   23.09    0.80 
   6  -4   8   37.94    1.32 
   6  -4   8   38.69    1.33 
   6  -4  -8   37.23    1.12 
   6  -4  -8   37.65    1.15 
   6   4   8   37.00    1.25 
  -6   4  -8   36.97    1.27 
   6   4   8   37.61    1.25 
   6   4   8   35.73    1.29 
   7  -4   8   43.62    1.48 
   7  -4   8   40.71    1.45 
  -7   4  -8   40.64    1.35 
   7   4   8   39.01    1.31 
   7  -4  -8   36.92    1.19 
   7  -4  -8   36.39    1.17 
   7   4   8   37.58    1.31 
   7   4   8   39.00    1.37 
   8  -4   8   25.93    1.14 
   8  -4   8   28.00    1.18 
   8  -4  -8   27.76    0.97 
   8   4   8   26.36    1.09 
   8   4   8   27.78    1.12 
   9  -4   8   16.94    1.02 
   9  -4   8   17.34    1.02 
   9   4   8   17.14    0.92 
  10  -4   8   12.36    0.98 
  10   4   8   10.56    0.83 
   0   5  -8   71.23    1.96 
   0   5   8   73.35    2.00 
   0  -5   8   73.56    1.97 
   0   5   8   74.16    2.04 
   0   5   8   71.32    1.97 
   1  -5   8   41.57    1.22 
   1   5  -8   39.67    1.18 
   1  -5   8   40.25    1.23 
  -1   5   8   41.09    1.21 
  -1   5   8   40.26    1.21 
  -1   5   8   42.34    1.26 
  -1  -5   8   43.10    1.22 
  -1   5  -8   43.85    1.29 
   1   5   8   42.99    1.29 
   1   5   8   43.66    1.30 
  -1  -5   8   42.70    1.21 
   1   5   8   45.28    1.35 
   2   5  -8   90.33    2.34 
   2  -5   8   88.67    2.45 
   2  -5   8   90.90    2.42 
  -2   5   8   89.94    2.40 
  -2   5   8   90.81    2.45 
   2   5   8   87.03    2.34 
  -2   5  -8   82.32    2.30 
   2   5   8   88.39    2.32 
  -2  -5   8   86.67    2.19 
  -2  -5   8   87.75    2.18 
   2  -5  -8   80.50    2.31 
   2   5   8   85.28    2.38 
   3   5  -8  100.99    2.62 
   3  -5   8  104.84    2.77 
   3  -5   8  104.15    2.80 
  -3   5   8  101.93    2.72 
   3   5  -8  104.64    2.69 
  -3   5   8  100.02    2.70 
  -3   5   8  105.47    2.68 
  -3   5   8  102.94    2.76 
   3   5   8  105.61    2.87 
   3  -5  -8  106.45    2.80 
   3   5   8  105.81    2.79 
   3   5   8  101.79    2.82 
   4   5  -8   71.40    1.85 
   4   5  -8   70.44    1.88 
  -4   5   8   70.72    1.90 
   4   5  -8   74.27    1.92 
  -4   5   8   70.63    1.90 
   4  -5   8   70.94    2.04 
   4  -5   8   72.00    2.06 
   4   5  -8   74.77    1.87 
  -4   5   8   69.13    1.98 
  -4   5   8   68.39    1.92 
   4   5   8   66.66    1.96 
  -4   5  -8   68.49    1.99 
   4  -5  -8   66.81    1.92 
   4  -5  -8   69.44    1.87 
   4   5   8   69.25    2.02 
   4   5   8   72.55    1.96 
   5  -5   8   58.96    1.76 
  -5   5   8   59.08    1.66 
   5   5  -8   57.57    1.49 
   5  -5   8   58.43    1.77 
   5   5  -8   58.60    1.50 
  -5   5   8   54.65    1.50 
   5   5  -8   55.47    1.52 
   5   5  -8   58.66    1.50 
   5   5   8   55.49    1.68 
  -5   5  -8   54.86    1.71 
   5  -5  -8   54.81    1.60 
   5  -5  -8   57.08    1.59 
   5  -5  -8   56.70    1.66 
   5   5   8   57.36    1.75 
   5   5   8   56.40    1.68 
   6  -5   8   45.85    1.53 
   6   5  -8   46.56    1.21 
   6  -5   8   46.43    1.54 
  -6   5  -8   51.97    1.65 
   6  -5  -8   52.52    1.50 
   6   5   8   50.47    1.60 
   6  -5  -8   50.03    1.51 
   6   5   8   51.68    1.60 
   6   5   8   52.62    1.67 
   7  -5   8    6.37    0.59 
   7  -5   8    6.12    0.57 
   7   5   8    7.82    0.62 
  -7   5  -8    7.93    0.62 
   7   5   8    7.69    0.61 
   7  -5  -8    7.66    0.53 
   7  -5  -8    8.01    0.51 
   7   5   8    7.50    0.59 
   8  -5   8   25.44    1.17 
   8  -5   8   25.57    1.16 
   8   5   8   23.45    1.06 
   8  -5  -8   25.20    0.94 
   8   5   8   23.59    1.04 
   9  -5   8    9.01    0.75 
   9  -5   8    9.18    0.78 
   9  -5  -8    5.82    0.49 
   9   5   8    6.20    0.62 
  10  -5   8   13.30    1.03 
  10   5   8    9.80    0.79 
   0   6   8   51.49    1.53 
   0   6  -8   49.92    1.46 
   0  -6   8   50.52    1.44 
   0   6   8   49.13    1.45 
   0   6   8   51.67    1.48 
  -1   6   8  165.33    4.23 
   1   6  -8  165.15    4.19 
  -1   6   8  164.63    4.32 
   1  -6   8  169.11    4.29 
   1  -6   8  165.86    4.21 
  -1  -6   8  167.72    4.21 
   1   6   8  173.68    4.32 
   1   6   8  165.72    4.37 
  -1   6  -8  166.40    4.29 
   1   6   8  167.69    4.40 
  -1  -6   8  172.28    4.29 
  -2   6   8   38.89    1.34 
   2  -6   8   47.47    1.43 
  -2   6   8   47.22    1.43 
   2   6  -8   48.67    1.35 
   2   6  -8   47.91    1.34 
   2  -6   8   47.94    1.44 
  -2   6   8   52.52    1.40 
  -2  -6   8   47.38    1.26 
   2   6   8   45.23    1.39 
  -2   6  -8   47.00    1.40 
   2   6   8   44.22    1.43 
  -2  -6   8   47.10    1.25 
   2   6   8   47.54    1.40 
  -2   6  -8   44.15    1.40 
   3  -6   8   55.41    1.70 
  -3   6   8   58.61    1.63 
  -3   6   8   59.79    1.70 
  -3   6   8   56.34    1.63 
   3   6  -8   58.54    1.58 
   3   6  -8   60.25    1.59 
   3  -6   8   55.67    1.72 
   3  -6  -8   56.55    1.62 
   3   6   8   60.23    1.71 
  -3   6  -8   59.69    1.73 
   3   6   8   57.42    1.74 
   3   6   8   55.69    1.69 
   4   6  -8   48.42    1.33 
  -4   6   8   49.62    1.40 
  -4   6   8   48.68    1.46 
   4  -6   8   50.73    1.53 
   4   6  -8   49.69    1.33 
  -4   6   8   42.82    1.39 
   4  -6   8   47.60    1.52 
  -4   6   8   49.42    1.40 
   4   6  -8   49.39    1.36 
  -4   6  -8   50.80    1.58 
   4   6   8   50.11    1.60 
   4  -6  -8   50.28    1.52 
   4   6   8   51.43    1.56 
   4  -6  -8   52.07    1.47 
   4   6   8   51.93    1.56 
  -5   6   8   27.05    0.83 
   5  -6   8   26.07    1.04 
  -5   6   8   27.22    0.94 
   5  -6   8   26.64    1.05 
   5   6  -8   27.36    0.80 
   5   6  -8   27.43    0.78 
   5   6  -8   27.31    0.81 
   5   6   8   29.15    1.11 
   5  -6  -8   28.86    1.01 
   5   6   8   30.89    1.07 
  -5   6  -8   29.54    1.09 
   5  -6  -8   28.68    0.96 
   5   6   8   28.49    1.04 
   6  -6   8   36.99    1.35 
   6   6  -8   37.07    1.01 
   6  -6   8   36.43    1.34 
  -6   6  -8   34.34    1.27 
   6  -6  -8   36.61    1.18 
   6   6   8   34.23    1.22 
   6   6   8   34.41    1.28 
   6  -6  -8   35.68    1.14 
   6   6   8   35.16    1.23 
   7  -6   8   32.90    1.31 
   7  -6   8   32.17    1.28 
  -7   6  -8   38.95    1.41 
   7   6   8   38.67    1.38 
   7   6   8   41.07    1.39 
   7  -6  -8   39.76    1.27 
   7   6   8   41.20    1.45 
   7  -6  -8   39.36    1.30 
   8  -6   8   10.88    0.85 
   8  -6   8   11.01    0.85 
   8   6   8   10.10    0.76 
   8  -6  -8    9.69    0.65 
   8   6   8    9.00    0.72 
   9  -6   8   26.54    1.26 
   9  -6   8   23.56    1.22 
   9  -6  -8   26.78    1.07 
   9   6   8   26.51    1.18 
  10  -6   8    2.88    0.60 
   0   7  -8   64.20    1.79 
   0  -7   8   62.78    1.75 
   0   7  -8   61.10    1.76 
   0   7   8   61.80    1.83 
   1  -7   8   41.83    1.29 
  -1   7   8   43.81    1.36 
   1  -7   8   43.38    1.31 
   1   7  -8   42.94    1.29 
   1   7  -8   42.79    1.28 
  -1   7  -8   38.38    1.23 
  -1  -7   8   38.56    1.15 
  -1   7  -8   40.79    1.23 
  -1  -7   8   38.27    1.14 
   1   7   8   38.39    1.27 
   2   7  -8   48.66    1.39 
   2  -7   8   49.38    1.47 
   2  -7   8   47.57    1.48 
   2   7  -8   50.98    1.42 
  -2   7   8   45.50    1.48 
   2   7   8   51.66    1.52 
   2   7   8   50.81    1.55 
  -2  -7   8   49.64    1.36 
  -2  -7   8   48.32    1.34 
  -2   7  -8   48.71    1.51 
  -3   7   8  117.16    3.03 
   3  -7   8  114.17    3.10 
   3   7  -8  113.24    2.93 
   3   7  -8  109.55    2.96 
  -3   7   8  115.44    3.09 
   3  -7   8  114.31    3.05 
   3  -7  -8  108.71    2.89 
   3   7   8  111.45    2.94 
  -3   7  -8  107.21    2.99 
   3   7   8  111.78    2.97 
   3   7   8  107.30    3.02 
  -4   7   8    5.80    0.45 
  -4   7   8    5.49    0.40 
   4   7  -8    5.78    0.35 
   4   7  -8    5.98    0.36 
   4  -7   8    6.27    0.51 
   4  -7   8    4.85    0.46 
  -4   7   8    5.62    0.40 
   4  -7  -8    5.08    0.42 
   4   7   8    5.67    0.48 
  -4   7  -8    5.03    0.45 
   4   7   8    5.09    0.43 
   4  -7  -8    4.08    0.37 
   4   7   8    4.16    0.40 
   5   7  -8   84.73    2.22 
   5   7  -8   85.50    2.22 
   5  -7   8   87.44    2.47 
  -5   7   8   84.73    2.29 
   5  -7   8   84.90    2.50 
  -5   7   8   86.97    2.41 
   5   7   8   77.26    2.22 
   5  -7  -8   79.36    2.18 
   5  -7  -8   75.93    2.14 
   5   7   8   77.22    2.28 
   5   7   8   74.33    2.22 
  -5   7  -8   77.88    2.28 
   6  -7   8    9.88    0.70 
   6   7  -8   10.89    0.45 
   6  -7   8    9.13    0.73 
   6  -7  -8   14.46    0.68 
   6  -7  -8   14.79    0.73 
  -6   7  -8   14.13    0.77 
   6   7   8   14.23    0.74 
   6   7   8   13.38    0.75 
   6   7   8   12.87    0.78 
   7  -7   8   26.28    1.17 
   7  -7   8   27.32    1.18 
   7   7   8   23.03    1.08 
   7   7   8   24.21    1.03 
   7  -7  -8   25.46    1.00 
   7   7   8   25.54    1.06 
  -7   7  -8   24.38    1.08 
   7  -7  -8   24.92    0.95 
   8  -7   8   11.65    0.88 
   8  -7   8   11.84    0.89 
   8   7   8   17.57    0.92 
   8  -7  -8   17.33    0.86 
   8   7   8   16.90    0.95 
   9  -7   8    5.32    0.67 
   9  -7   8    5.65    0.67 
   9  -7  -8    4.66    0.50 
   9   7   8    4.03    0.56 
   0  -8   8    0.47    0.18 
   0   8   8    0.75    0.23 
   0   8  -8    0.52    0.22 
   0   8  -8    0.17    0.19 
   0  -8   8    0.28    0.19 
   1  -8   8  118.81    3.13 
   1   8  -8  111.37    3.06 
  -1   8   8  120.09    3.21 
   1  -8   8  115.55    3.08 
   1   8  -8  119.85    3.13 
  -1   8  -8  111.32    2.94 
   1   8   8  105.12    2.85 
  -1  -8   8  108.52    2.83 
  -1  -8   8  109.31    2.80 
  -1   8  -8  107.62    2.90 
   1   8   8  103.30    2.96 
   2   8  -8   36.21    1.15 
   2   8  -8   35.46    1.14 
   2  -8   8   35.98    1.21 
  -2   8   8   39.57    1.25 
   2  -8   8   36.67    1.20 
  -2   8  -8   47.64    1.44 
  -2  -8   8   44.14    1.25 
   2   8   8   43.00    1.43 
  -2  -8   8   42.24    1.22 
   3   8  -8   35.79    1.10 
  -3   8   8   35.40    1.20 
   3  -8   8   34.56    1.21 
   3   8  -8   36.44    1.10 
   3  -8   8   34.92    1.22 
   3  -8  -8   21.67    0.82 
   3   8   8   23.11    0.93 
  -3   8  -8   22.96    0.92 
   3   8   8   21.82    0.89 
  -4   8   8   59.61    1.67 
   4  -8   8   54.11    1.77 
  -4   8   8   58.33    1.74 
   4   8  -8   54.64    1.59 
   4   8  -8   56.58    1.59 
   4  -8   8   59.02    1.78 
  -4   8  -8   65.07    2.01 
   4  -8  -8   64.65    1.92 
   4  -8  -8   65.99    1.89 
   4   8   8   68.77    2.03 
   4   8   8   66.77    1.97 
   4   8   8   67.26    1.97 
   5   8  -8   21.47    0.72 
   5  -8   8   22.96    0.98 
  -5   8   8   21.42    0.80 
   5  -8   8   22.02    0.99 
   5   8  -8   22.05    0.75 
  -5   8   8   20.83    0.88 
   5  -8  -8   26.36    0.94 
   5   8   8   23.87    1.00 
  -5   8  -8   24.11    1.03 
   5  -8  -8   25.60    0.99 
   5   8   8   24.19    1.02 
   5   8   8   24.40    0.99 
   6  -8   8   25.99    1.13 
   6   8  -8   25.94    0.77 
   6  -8   8   26.25    1.15 
  -6   8   8   26.57    0.84 
   6   8  -8   26.33    0.83 
   6  -8  -8   24.59    1.00 
   6   8   8   23.69    1.00 
   6   8   8   24.50    1.03 
   6   8   8   26.85    1.11 
  -6   8  -8   23.42    1.04 
   6  -8  -8   23.58    0.94 
   7  -8   8   47.30    1.67 
   7   8  -8   46.97    1.28 
   7  -8   8   46.60    1.69 
   7   8   8   44.51    1.62 
   7  -8  -8   44.49    1.48 
   7  -8  -8   48.45    1.54 
   7   8   8   43.77    1.55 
   7   8   8   47.79    1.60 
  -7   8  -8   47.50    1.74 
   8  -8   8    3.17    0.55 
   8  -8   8    2.58    0.55 
   8  -8  -8    2.51    0.43 
   8   8   8    1.85    0.43 
   8   8   8    2.75    0.49 
   9  -8   8   24.37    1.29 
   9  -8   8   25.90    1.29 
   9  -8  -8   25.01    1.10 
   9   8   8   23.51    1.16 
   0   9   8   63.73    1.86 
   0  -9   8   60.41    1.72 
   0   9  -8   59.11    1.75 
   0   9  -8   61.02    1.78 
   0  -9   8   53.77    1.69 
  -1   9   8   26.06    1.00 
   1   9  -8   26.13    0.93 
   1  -9   8   25.34    0.93 
   1  -9   8   25.59    0.93 
   1   9  -8   26.06    0.94 
   1   9   8   36.66    1.24 
  -1   9  -8   41.82    1.31 
  -1  -9   8   39.64    1.20 
  -1   9  -8   37.40    1.27 
  -1  -9   8   39.78    1.18 
   1   9   8   38.48    1.32 
   2  -9   8   56.00    1.73 
   2   9  -8   56.70    1.67 
   2   9  -8   57.24    1.69 
   2  -9   8   58.79    1.73 
  -2   9   8   59.37    1.79 
   2   9   8   50.27    1.55 
  -2   9  -8   54.70    1.64 
  -2  -9   8   48.68    1.42 
  -2  -9   8   51.30    1.45 
   2   9   8   53.46    1.67 
   3   9  -8  113.89    3.06 
   3   9  -8  114.81    3.10 
   3  -9   8  119.71    3.23 
  -3   9   8  114.94    3.22 
   3  -9   8  122.59    3.20 
  -3   9  -8  137.47    3.69 
   3   9   8  134.01    3.71 
   3  -9  -8  136.74    3.59 
   3   9   8  134.26    3.63 
   4  -9   8    1.03    0.34 
  -4   9   8    0.90    0.30 
   4   9  -8    1.35    0.25 
   4   9  -8    0.83    0.22 
   4  -9   8    0.76    0.33 
   4   9   8    1.85    0.33 
   4   9   8    1.04    0.30 
   4  -9  -8    1.19    0.30 
   4  -9  -8    0.89    0.30 
   4   9   8    1.59    0.35 
  -4   9  -8    1.25    0.35 
   5   9  -8   82.64    2.29 
  -5   9   8   89.12    2.39 
   5  -9   8   88.10    2.56 
  -5   9   8   85.69    2.48 
   5  -9   8   85.18    2.52 
   5   9  -8   85.84    2.30 
   5   9   8   83.77    2.59 
   5   9   8   88.91    2.53 
   5  -9  -8   88.74    2.50 
   5  -9  -8   89.13    2.46 
  -5   9  -8   85.53    2.58 
   5   9   8   89.95    2.54 
  -6   9   8   10.88    0.57 
   6  -9   8   14.29    0.88 
   6   9  -8   12.59    0.56 
   6  -9   8   13.22    0.87 
   6   9  -8   12.20    0.51 
   6   9   8   14.86    0.79 
  -6   9  -8   12.83    0.80 
   6   9   8   14.85    0.82 
   6   9   8   14.01    0.86 
   6  -9  -8   13.49    0.81 
   6  -9  -8   13.64    0.73 
   7  -9   8   15.53    0.97 
   7   9  -8   14.28    0.58 
   7  -9   8   14.15    0.95 
   7   9   8   11.17    0.76 
   7  -9  -8   10.62    0.74 
   7   9   8   11.06    0.83 
   7   9   8   11.17    0.78 
   7  -9  -8   11.01    0.77 
   8  -9   8   23.84    1.23 
   8  -9   8   27.03    1.28 
   8  -9  -8   23.32    1.08 
   8   9   8   23.08    1.14 
   8   9   8   21.69    1.10 
   9  -9   8    1.53    0.54 
   9  -9   8    1.76    0.58 
   9  -9  -8    3.25    0.51 
   9   9   8    3.48    0.56 
   9   9   8    4.36    0.59 
   0  10  -8    3.35    0.40 
   0 -10   8    3.13    0.33 
   0  10  -8    2.40    0.33 
   0  10   8    2.93    0.40 
   0 -10   8    3.42    0.35 
   1  10  -8  150.08    4.05 
   1  10  -8  156.93    4.12 
   1 -10   8  153.65    4.10 
  -1  10   8  158.16    4.20 
   1 -10   8  159.36    4.07 
  -1  10  -8  157.39    4.24 
  -1 -10   8  161.96    4.14 
   1  10   8  161.48    4.35 
  -1 -10   8  164.94    4.19 
  -1  10  -8  162.89    4.30 
   2 -10   8   53.50    1.67 
   2  10  -8   53.28    1.63 
   2  10  -8   53.14    1.61 
  -2  10   8   55.51    1.74 
   2 -10   8   54.50    1.67 
  -2  10  -8   57.52    1.77 
   2  10   8   56.33    1.81 
  -2 -10   8   54.15    1.57 
  -2 -10   8   58.36    1.61 
   3 -10   8   27.08    1.06 
   3  10  -8   27.17    0.97 
   3  10  -8   28.11    0.97 
  -3  10   8   26.44    1.08 
   3 -10   8   28.40    1.08 
  -3  10  -8   26.21    1.06 
   3  10   8   25.93    1.08 
   3 -10  -8   26.11    0.98 
   4 -10   8   93.57    2.68 
   4  10  -8   90.33    2.51 
   4  10  -8   92.26    2.49 
  -4  10   8   92.31    2.67 
   4 -10   8   92.84    2.65 
  -4  10  -8   84.87    2.51 
   4  10   8   83.01    2.52 
   4 -10  -8   85.47    2.39 
   4  10   8   84.02    2.46 
   5  10  -8    2.72    0.32 
   5  10  -8    2.59    0.30 
   5 -10   8    1.68    0.42 
   5 -10   8    2.09    0.42 
  -5  10   8    2.24    0.39 
   5  10   8    5.07    0.56 
   5  10   8    5.34    0.52 
   5  10   8    3.99    0.47 
  -5  10  -8    4.48    0.51 
   5 -10  -8    4.64    0.47 
   5 -10  -8    4.19    0.49 
   6  10  -8   28.87    0.94 
   6 -10   8   29.49    1.24 
   6 -10   8   28.83    1.26 
  -6  10   8   28.37    1.02 
  -6  10  -8   26.70    1.19 
   6 -10  -8   27.05    1.17 
   6  10   8   30.00    1.25 
   6  10   8   29.32    1.20 
   6  10   8   28.43    1.16 
   6 -10  -8   28.93    1.11 
   7 -10   8   27.38    1.28 
   7 -10   8   29.22    1.31 
   7 -10  -8   29.13    1.24 
   7 -10  -8   28.70    1.16 
   7  10   8   29.72    1.22 
   7  10   8   28.39    1.23 
   7  10   8   28.66    1.29 
   8 -10   8    3.38    0.60 
   8 -10   8    2.60    0.56 
   8  10   8    3.19    0.57 
   8  10   8    3.89    0.55 
   8 -10  -8    3.47    0.53 
   9 -10   8   31.21    1.50 
   9 -10   8   31.39    1.49 
   9  10   8   29.85    1.33 
   0  11  -8  111.70    3.07 
   0  11   8  112.67    3.14 
   0 -11   8  103.71    2.95 
   0 -11   8  113.53    2.99 
   1  11  -8   14.73    0.74 
  -1  11   8   14.08    0.78 
   1 -11   8   14.31    0.71 
   1 -11   8   15.52    0.73 
   1  11   8   14.29    0.80 
  -1  11  -8   15.94    0.78 
  -1 -11   8   15.21    0.66 
  -2  11   8   59.00    1.93 
   2 -11   8   61.05    1.87 
   2  11  -8   61.27    1.84 
   2 -11   8   63.23    1.90 
   2  11   8   56.64    1.84 
  -2  11  -8   58.67    1.81 
  -2 -11   8   54.56    1.58 
   3 -11   8   75.30    2.21 
   3 -11   8   72.22    2.20 
  -3  11   8   74.87    2.25 
   3  11  -8   71.85    2.11 
   3  11   8   73.34    2.27 
  -3  11  -8   73.96    2.24 
   4 -11   8   37.21    1.37 
   4  11  -8   38.32    1.23 
  -4  11   8   35.04    1.36 
   4 -11   8   38.19    1.39 
  -4  11  -8   34.18    1.33 
   4 -11  -8   35.75    1.24 
   4  11   8   32.79    1.30 
   4  11   8   35.52    1.36 
  -5  11   8   60.68    1.98 
   5 -11   8   61.80    2.01 
   5  11  -8   63.12    1.81 
   5 -11   8   62.09    2.00 
   5 -11  -8   55.54    1.78 
   5 -11  -8   57.57    1.85 
  -5  11  -8   59.01    1.92 
   5  11   8   56.02    1.84 
   5  11   8   54.85    1.90 
   5  11   8   58.01    1.86 
  -6  11   8   24.85    0.96 
   6 -11   8   25.41    1.17 
   6  11  -8   23.68    0.88 
   6 -11   8   24.54    1.18 
   6 -11  -8   26.93    1.19 
  -6  11  -8   26.22    1.19 
   6  11   8   24.66    1.16 
   6  11   8   25.64    1.13 
   6  11   8   25.66    1.22 
   6 -11  -8   28.50    1.13 
   7 -11   8    8.20    0.75 
   7 -11   8    9.00    0.77 
   7  11   8    7.38    0.75 
   7  11   8    6.87    0.66 
   7 -11  -8    8.31    0.69 
   7  11   8    7.81    0.69 
   7 -11  -8    7.10    0.63 
   8 -11   8   29.02    1.40 
   8 -11   8   29.86    1.43 
   8 -11  -8   35.50    1.46 
   8  11   8   33.48    1.48 
   8  11   8   35.35    1.47 
   9 -11   8    2.06    0.61 
   9 -11   8    1.61    0.60 
   9  11   8    2.09    0.54 
   0  12   8   54.69    1.83 
   0 -12   8   57.21    1.70 
   0  12  -8   55.00    1.78 
  -1  12   8   68.25    2.13 
   1 -12   8   67.03    2.07 
   1  12  -8   70.90    2.07 
   1 -12   8   66.19    2.01 
  -1  12  -8   68.79    2.11 
  -1 -12   8   69.18    1.95 
   1  12   8   67.29    2.16 
   2 -12   8   39.74    1.40 
   2 -12   8   41.40    1.41 
   2  12  -8   39.12    1.35 
  -2  12   8   40.86    1.47 
  -2  12  -8   39.16    1.40 
   2  12   8   38.68    1.43 
  -2 -12   8   37.18    1.16 
   3 -12   8   22.46    1.03 
   3 -12   8   23.37    1.04 
  -3  12   8   24.00    1.06 
   3  12  -8   23.34    0.95 
   3  12   8   27.93    1.19 
  -3  12  -8   27.43    1.17 
   4  12  -8   35.53    1.21 
   4 -12   8   35.14    1.38 
   4 -12   8   34.13    1.35 
  -4  12   8   35.77    1.38 
   4  12   8   32.56    1.31 
   4 -12  -8   32.87    1.23 
  -4  12  -8   31.36    1.30 
   4  12   8   33.32    1.35 
   5 -12   8   13.51    0.89 
  -5  12   8   12.51    0.83 
   5  12  -8   11.91    0.66 
   5 -12   8   11.02    0.85 
   5  12   8   13.84    0.88 
   5 -12  -8   14.57    0.86 
   5 -12  -8   14.63    0.92 
   5  12   8   15.33    0.95 
  -5  12  -8   14.45    0.91 
   6 -12   8   22.67    1.17 
  -6  12   8   22.53    0.95 
   6  12  -8   21.39    0.87 
   6 -12   8   20.93    1.13 
   6  12   8   22.28    1.15 
   6  12   8   22.61    1.11 
  -6  12  -8   22.53    1.17 
   6  12   8   23.28    1.08 
   6 -12  -8   21.98    1.05 
   6 -12  -8   19.17    1.09 
   7 -12   8   33.11    1.47 
   7 -12   8   34.12    1.48 
   7  12   8   33.07    1.42 
   7  12   8   33.02    1.47 
   7 -12  -8   32.76    1.35 
   7 -12  -8   33.72    1.43 
   8 -12   8   13.90    1.12 
   8 -12   8   15.66    1.15 
   8 -12  -8   11.51    0.90 
   8  12   8   12.20    1.00 
   8  12   8   12.73    0.98 
   8 -12  -8   11.78    0.88 
   9  12   8   18.55    1.13 
   0 -13   8   46.28    1.48 
   0  13  -8   45.56    1.59 
   0  13   8   47.08    1.65 
   1 -13   8   53.28    1.72 
   1  13  -8   55.74    1.79 
  -1  13   8   57.43    1.89 
  -1  13  -8   52.81    1.76 
  -1 -13   8   53.51    1.59 
   1  13   8   51.27    1.81 
  -2  13   8   37.21    1.44 
   2  13  -8   38.25    1.35 
   2 -13   8   37.67    1.36 
   2  13   8   40.87    1.50 
  -2  13  -8   42.18    1.49 
  -2 -13   8   37.38    1.22 
   3  13  -8   38.70    1.35 
  -3  13   8   40.66    1.50 
   3 -13   8   37.56    1.42 
   3  13   8   36.75    1.48 
  -3  13  -8   40.15    1.48 
   4  13  -8   24.25    1.00 
  -4  13   8   24.58    1.17 
   4 -13   8   28.69    1.20 
   4 -13   8   25.58    1.19 
   4 -13  -8   25.21    1.07 
   4  13   8   22.52    1.12 
  -4  13  -8   21.54    1.11 
   5 -13   8   45.15    1.69 
  -5  13   8   45.44    1.68 
   5 -13   8   48.03    1.71 
   5  13  -8   45.03    1.50 
  -5  13  -8   46.95    1.75 
   5  13   8   46.39    1.70 
   5  13   8   45.15    1.76 
   5 -13  -8   48.46    1.65 
   6  13  -8   14.21    0.74 
   6 -13   8   14.43    1.05 
   6 -13   8   14.89    1.05 
  -6  13   8   14.08    0.80 
   6 -13  -8   13.23    0.97 
   6  13   8   11.16    0.90 
  -6  13  -8   13.83    0.95 
   6 -13  -8   12.33    0.92 
   6  13   8   11.85    0.94 
   6  13   8   11.70    0.86 
   7 -13   8   19.67    1.24 
   7 -13   8   21.61    1.25 
   7  13   8   21.63    1.23 
   7 -13  -8   21.74    1.20 
   7 -13  -8   21.30    1.12 
   7  13   8   20.00    1.17 
   8 -13   8   13.16    1.02 
   8 -13   8   12.28    0.98 
   8  13   8    9.75    0.89 
   8 -13  -8    8.91    0.78 
   8 -13  -8    9.26    0.82 
   0 -14   8   55.63    1.76 
   0  14  -8   58.03    1.89 
   0  14   8   57.71    1.96 
   1 -14   8   47.86    1.60 
   1  14  -8   49.81    1.68 
  -1  14   8   48.50    1.75 
  -1 -14   8   49.32    1.53 
   1  14   8   47.82    1.76 
  -1  14  -8   49.99    1.72 
   2  14  -8   38.30    1.41 
  -2  14   8   39.16    1.53 
   2 -14   8   41.80    1.44 
  -2 -14   8   38.78    1.28 
   2  14   8   44.40    1.60 
  -2  14  -8   42.23    1.56 
   3 -14   8   45.99    1.63 
   3  14  -8   47.50    1.58 
  -3  14   8   44.85    1.69 
   3  14   8   39.63    1.57 
  -3  14  -8   38.24    1.51 
   4 -14   8    7.13    0.67 
   4  14  -8    7.43    0.59 
  -4  14   8    7.34    0.70 
   4  14   8    7.59    0.72 
  -4  14  -8    8.50    0.76 
   5 -14   8   27.17    1.27 
   5  14  -8   24.64    1.07 
  -5  14  -8   22.90    1.18 
   5 -14  -8   22.08    1.11 
   5  14   8   22.17    1.16 
   5  14   8   24.48    1.24 
   6  14  -8   16.17    0.83 
   6 -14   8   16.60    1.09 
   6  14   8   13.37    0.95 
   6 -14  -8   15.31    1.00 
   6  14   8   13.79    1.04 
   6  14   8   13.38    0.99 
  -6  14  -8   14.60    1.01 
   7 -14   8   13.47    1.08 
   7  14   8   11.12    0.95 
   7 -14  -8   10.59    0.83 
   7  14   8    9.96    0.87 
   8 -14  -8   15.03    1.13 
   0 -15   8    1.03    0.36 
   0  15   8    1.72    0.47 
   0  15  -8    0.61    0.39 
  -1  15   8   38.82    1.57 
   1 -15   8   40.79    1.42 
   1  15  -8   40.31    1.51 
  -1 -15   8   37.32    1.28 
  -1  15  -8   37.58    1.48 
   1  15   8   38.42    1.54 
  -2  15   8   23.59    1.21 
   2  15  -8   26.16    1.13 
   2 -15   8   26.23    1.13 
   2  15   8   17.43    1.03 
  -2  15  -8   18.17    1.02 
  -3  15   8   21.73    1.17 
   3  15  -8   24.13    1.09 
   3 -15   8   24.85    1.14 
   3  15   8   18.51    1.08 
  -3  15  -8   18.07    1.06 
   4 -15   8   54.54    1.90 
  -4  15   8   55.23    1.95 
   4  15  -8   51.09    1.78 
  -4  15  -8   54.05    1.99 
   4  15   8   58.00    2.05 
   5 -15   8    9.05    0.80 
   5  15  -8   10.20    0.75 
   5 -15  -8    9.45    0.75 
   5  15   8    9.01    0.84 
   5  15   8    5.81    0.69 
  -5  15  -8    8.93    0.82 
   6  15  -8   20.49    0.98 
   6 -15   8   20.74    1.23 
   6  15   8   24.28    1.26 
   6 -15  -8   22.43    1.20 
   6  15   8   22.65    1.30 
  -6  15  -8   23.39    1.31 
   6  15   8   22.60    1.21 
   7 -15  -8   17.57    1.14 
   7  15   8   11.87    1.02 
   0  16  -8   49.50    1.80 
   0  16   8   50.33    1.88 
   0 -16   8   51.46    1.66 
   1  16  -8    6.98    0.67 
   1 -16   8    6.41    0.60 
  -1  16   8    7.49    0.78 
  -1 -16   8    8.32    0.65 
   1  16   8    7.56    0.75 
  -1  16  -8    8.97    0.78 
  -2  16   8   15.33    1.03 
   2 -16   8   15.66    0.96 
   2  16  -8   16.02    0.95 
   2  16   8   18.57    1.10 
  -2  16  -8   19.57    1.13 
   3  16  -8   20.64    1.05 
  -3  16   8   19.74    1.18 
   3 -16   8   20.70    1.10 
  -3  16  -8   22.59    1.21 
   3  16   8   24.73    1.30 
   4 -16   8    0.01    0.45 
   4  16  -8    0.37    0.37 
  -4  16   8    0.31    0.45 
   4  16   8   -0.29    0.45 
  -4  16  -8    0.44    0.46 
   5 -16   8   18.94    1.16 
   5  16  -8   16.99    0.97 
  -5  16  -8   17.74    1.15 
   5  16   8   19.05    1.18 
   5  16   8   18.73    1.20 
   6  16  -8   15.87    0.91 
  -6  16  -8   16.50    1.18 
   6  16   8   18.27    1.15 
   6  16   8   16.04    1.10 
   6 -16  -8   17.65    1.12 
   6  16   8   15.11    1.15 
   0  17   8    0.14    0.44 
   0  17  -8    1.09    0.45 
   0 -17   8    0.46    0.38 
  -1  17   8   13.07    1.01 
   1 -17   8   11.75    0.87 
   1  17  -8   11.88    0.89 
  -1  17  -8   15.37    1.05 
  -1 -17   8   15.44    0.83 
   1  17   8   13.95    1.03 
   2 -17   8   22.47    1.11 
   2  17  -8   20.26    1.09 
  -2  17   8   21.25    1.22 
   2  17   8   18.99    1.15 
  -2  17  -8   20.01    1.16 
   3 -17   8    5.65    0.65 
   3  17  -8    6.02    0.65 
  -3  17   8    5.20    0.71 
   3  17   8    6.39    0.77 
  -3  17  -8    7.53    0.79 
  -4  17   8   28.92    1.43 
   4  17  -8   27.42    1.27 
   4 -17   8   29.14    1.39 
  -4  17  -8   28.92    1.44 
   4  17   8   30.55    1.50 
   5  17  -8    4.08    0.57 
   5  17   8    3.56    0.62 
  -5  17  -8    4.68    0.72 
   5  17   8    2.70    0.64 
   6  17  -8   15.31    1.04 
   0  18  -8   54.01    1.96 
   0 -18   8   49.53    1.74 
   0  18   8   54.95    2.06 
  -1  18   8    2.52    0.61 
   1  18  -8    3.19    0.59 
   1 -18   8    2.83    0.52 
   1  18   8    2.16    0.60 
  -1  18  -8    3.36    0.62 
  -2  18   8   30.03    1.51 
   2 -18   8   31.73    1.35 
   2  18  -8   33.04    1.45 
  -2  18  -8   31.90    1.50 
   2  18   8   32.55    1.53 
  -3  18   8   11.25    0.99 
   3  18  -8   10.85    0.87 
   3 -18   8   10.36    0.84 
  -3  18  -8   13.85    1.07 
   3  18   8   13.10    1.08 
  -4  18   8    1.38    0.57 
   4  18  -8    2.18    0.52 
  -4  18  -8    1.37    0.56 
   5  18  -8   13.54    0.98 
  -5  18  -8   16.30    1.20 
   5  18   8   17.07    1.29 
   0 -19   8    0.00    0.40 
   0  19  -8    0.08    0.48 
   0  19   8    0.74    0.56 
   1 -19   8   17.40    1.02 
   1  19  -8   15.74    1.15 
  -1  19   8   14.65    1.17 
  -1  19  -8   14.41    1.09 
   1  19   8   15.08    1.19 
   2  19  -8   14.40    1.08 
   2 -19   8   15.40    1.06 
  -2  19   8   13.84    1.15 
   2  19   8   11.99    1.06 
  -2  19  -8   14.95    1.18 
  -3  19   8    3.30    0.69 
  -3  19  -8    4.93    0.84 
   0 -20   8   27.05    1.21 
   1 -20   8    3.14    0.56 
   0   0   9    0.28    0.14 
   0   0   9    0.17    0.14 
   0   0  -9   -0.23    0.12 
   0   0  -9    0.07    0.13 
   0   0   9   -0.10    0.14 
  -1   0  -9   32.97    1.01 
   1   0  -9   33.28    0.99 
   1   0   9   33.59    1.03 
  -1   0   9   35.59    1.03 
   1   0  -9   32.69    1.01 
  -1   0   9   33.09    0.97 
  -1   0   9   34.69    0.98 
   1   0   9   33.48    1.07 
  -2   0   9  222.07    5.70 
  -2   0   9  245.48    5.67 
  -2   0   9  218.09    5.55 
  -2   0  -9  223.59    5.65 
   2   0   9  229.82    5.77 
   2   0   9  227.64    5.67 
   2   0  -9  224.48    5.70 
   2   0  -9  228.35    5.59 
   2   0   9  234.66    5.81 
  -2   0   9  221.10    5.64 
   3   0  -9   23.93    0.74 
  -3   0   9   22.98    0.65 
   3   0   9   21.78    0.85 
   3   0  -9   23.38    0.73 
  -3   0   9   22.82    0.72 
   3   0   9   24.29    0.83 
   3   0   9   24.45    0.84 
   4   0   9  373.53    9.32 
   4   0   9  368.04    9.50 
   4   0  -9  389.15    9.36 
  -4   0   9  368.48    9.31 
   4   0  -9  393.70    9.19 
   5   0  -9    0.21    0.13 
   5   0   9   -0.01    0.22 
   5   0   9    0.06    0.22 
   6   0   9  157.59    4.13 
   6   0   9  155.21    4.06 
   6   0  -9  152.53    3.90 
   7   0   9   14.89    0.78 
   7   0   9   14.44    0.77 
   8   0   9   11.31    0.76 
   8   0   9   10.31    0.76 
   9   0   9   11.37    0.84 
  10   0   9    9.20    0.76 
   0  -1  -9  457.21   10.98 
   0   1  -9  450.95   10.98 
   0  -1   9  470.42   11.20 
   0   1   9  449.60   11.22 
   0   1   9  447.47   10.97 
   0  -1  -9  436.73   11.20 
   0  -1   9  451.89   10.97 
   0  -1   9  454.96   11.21 
   0   1   9  453.12   11.21 
  -1  -1  -9   35.16    1.04 
  -1   1   9   35.97    1.06 
  -1   1   9   31.65    0.98 
   1   1  -9   33.70    1.03 
   1  -1   9   36.97    1.05 
   1   1  -9   33.64    1.00 
  -1   1   9   34.66    1.01 
   1  -1   9   34.29    1.09 
   1   1   9   42.03    1.22 
   1  -1  -9   39.84    1.20 
  -1   1  -9   41.79    1.21 
  -1  -1   9   41.55    1.17 
  -1  -1   9   43.24    1.21 
   1   1   9   40.44    1.25 
   1  -1  -9   40.23    1.18 
   1   1   9   41.66    1.21 
  -1  -1   9   42.07    1.15 
   2  -1   9  273.14    7.01 
   2  -1   9  282.43    6.84 
   2   1  -9  282.79    6.77 
  -2   1   9  277.00    6.92 
   2  -1   9  273.09    6.97 
  -2   1   9  269.40    6.86 
  -2   1   9  271.49    6.88 
   2   1  -9  270.13    6.90 
  -2   1   9  285.82    6.75 
  -2  -1  -9  283.71    6.84 
  -2  -1   9  313.77    7.60 
   2   1   9  314.85    7.57 
   2   1   9  318.36    7.75 
   2  -1  -9  304.93    7.51 
   2  -1  -9  310.44    7.67 
   2   1   9  307.07    7.72 
  -2  -1   9  296.14    7.64 
  -2   1  -9  298.15    7.56 
  -2  -1   9  304.68    7.45 
   3   1  -9   36.51    1.05 
  -3   1   9   37.25    0.99 
   3  -1   9   36.38    1.14 
  -3   1   9   34.62    0.98 
   3   1  -9   37.74    1.04 
  -3   1   9   37.66    0.98 
   3   1  -9   37.23    1.08 
  -3   1   9   36.40    1.06 
   3  -1   9   35.61    1.15 
   3  -1  -9   35.44    1.03 
   3   1   9   34.96    1.15 
   3   1   9   35.04    1.12 
   3  -1  -9   35.74    1.04 
   3   1   9   34.66    1.10 
   4   1  -9   15.25    0.52 
   4   1  -9   15.08    0.54 
   4  -1   9   14.71    0.66 
   4   1  -9   14.08    0.52 
   4  -1   9   15.66    0.66 
   4   1   9   15.25    0.71 
   4   1   9   16.46    0.69 
   4  -1  -9   16.48    0.59 
   4   1   9   16.43    0.70 
   5   1  -9   55.89    1.47 
   5  -1   9   56.01    1.65 
   5  -1   9   54.56    1.66 
  -5   1   9   53.71    1.43 
   5   1   9   63.97    1.86 
   5   1   9   62.43    1.86 
   5  -1  -9   64.54    1.73 
   6  -1   9   67.27    2.00 
   6  -1   9   69.24    1.98 
   6   1  -9   65.51    1.72 
   6   1   9   57.44    1.77 
   6   1   9   58.60    1.76 
   7  -1   9   15.33    0.79 
   7  -1   9   14.02    0.80 
   7   1   9   13.13    0.74 
   7   1   9   13.00    0.74 
   8  -1   9   89.66    2.68 
   8  -1   9   94.04    2.68 
   8   1   9   83.65    2.47 
   8   1   9   83.14    2.45 
   9  -1   9    2.34    0.49 
   9  -1   9    2.18    0.47 
   9   1   9    2.96    0.49 
  10  -1   9   36.79    1.51 
  10   1   9   37.06    1.49 
   0  -2   9   37.88    1.10 
   0   2  -9   36.62    1.09 
   0  -2  -9   36.83    1.10 
   0   2  -9   37.45    1.13 
   0  -2  -9   37.96    1.13 
   0   2   9   37.65    1.10 
   0  -2   9   36.31    1.08 
   0   2   9   37.38    1.14 
   0   2   9   37.30    1.11 
   1  -2   9   69.57    1.90 
  -1  -2  -9   71.68    1.91 
  -1   2   9   72.56    1.94 
   1   2  -9   71.36    1.87 
   1   2  -9   71.59    1.93 
  -1   2   9   68.94    1.90 
   1  -2   9   69.02    1.93 
   1   2   9   63.18    1.75 
  -1  -2   9   63.24    1.68 
   1   2   9   64.08    1.73 
   1  -2  -9   61.93    1.70 
  -1   2  -9   63.51    1.72 
   1   2   9   66.02    1.80 
   1  -2  -9   59.62    1.73 
  -1  -2   9   60.69    1.66 
   2  -2   9  147.40    3.78 
   2  -2   9  142.50    3.70 
  -2   2   9  144.58    3.62 
   2   2  -9  147.70    3.71 
  -2   2   9  141.12    3.67 
   2   2  -9  142.95    3.62 
  -2   2   9  147.79    3.69 
  -2   2   9  146.45    3.73 
   2   2   9  154.92    4.00 
   2   2   9  154.06    3.93 
  -2   2  -9  151.31    3.92 
   2  -2  -9  149.75    3.95 
  -2  -2   9  154.85    3.81 
  -2  -2   9  163.22    3.88 
   2   2   9  152.79    4.03 
  -3   2   9   47.05    1.25 
   3   2  -9   49.16    1.31 
  -3   2   9   45.63    1.25 
  -3   2   9   44.42    1.26 
   3  -2   9   45.93    1.40 
  -3   2   9   47.34    1.32 
   3   2  -9   45.60    1.27 
   3  -2   9   48.16    1.39 
   3   2  -9   46.66    1.30 
   3   2   9   41.20    1.24 
   3  -2  -9   40.76    1.17 
   3   2   9   38.40    1.22 
   3   2   9   37.73    1.26 
   4  -2   9  171.76    4.47 
   4   2  -9  170.23    4.30 
  -4   2   9  170.15    4.33 
   4   2  -9  167.63    4.30 
   4   2  -9  171.51    4.22 
   4  -2   9  177.15    4.40 
   4   2   9  166.88    4.37 
   4   2   9  170.23    4.42 
   4   2   9  170.64    4.30 
   4  -2  -9  164.15    4.28 
   5  -2   9   29.58    1.05 
  -5   2   9   27.93    0.84 
   5   2  -9   27.43    0.81 
   5  -2   9   29.09    1.03 
   5   2  -9   28.99    0.82 
   5   2  -9   28.19    0.82 
   5   2   9   27.79    1.00 
   5   2   9   27.79    1.00 
   5  -2  -9   27.82    0.88 
   5   2   9   26.87    1.04 
   6  -2   9   73.23    2.15 
   6  -2   9   75.33    2.19 
   6  -2  -9   71.27    1.89 
   6   2   9   72.86    2.08 
   6   2   9   69.71    2.08 
   7  -2   9   16.06    0.83 
   7  -2   9   14.86    0.82 
   7   2   9   15.46    0.79 
   7   2   9   13.47    0.76 
   8  -2   9    5.17    0.55 
   8  -2   9    5.13    0.56 
   8   2   9    5.44    0.53 
   8   2   9    5.64    0.56 
   9  -2   9   13.54    0.93 
   9  -2   9   17.16    0.98 
   9   2   9   12.52    0.84 
  10  -2   9   19.08    1.11 
  10   2   9   18.69    1.07 
   0   3   9  280.88    7.10 
   0   3  -9  292.38    7.12 
   0  -3   9  270.19    6.93 
   0  -3   9  285.32    7.08 
   0   3   9  275.83    7.12 
   0   3  -9  292.40    6.96 
   0   3   9  283.50    6.96 
  -1   3   9   38.12    1.19 
  -1   3   9   42.28    1.26 
   1   3  -9   42.62    1.21 
   1  -3   9   41.72    1.23 
   1  -3   9   42.28    1.25 
  -1   3   9   46.15    1.24 
   1   3  -9   41.69    1.23 
   1  -3  -9   43.88    1.34 
  -1   3  -9   46.50    1.34 
  -1  -3   9   46.03    1.27 
   1   3   9   47.94    1.39 
   1   3   9   45.70    1.34 
  -1  -3   9   46.77    1.28 
  -2   3   9   95.63    2.59 
  -2   3   9   96.91    2.56 
   2   3  -9  100.65    2.61 
   2   3  -9  100.82    2.55 
  -2   3   9  101.02    2.60 
   2  -3   9  100.16    2.63 
  -2   3   9  102.16    2.65 
   2  -3   9   99.23    2.67 
   2   3   9   91.34    2.55 
  -2  -3   9   97.34    2.42 
  -2  -3   9   98.21    2.39 
   2   3   9   94.86    2.60 
   2   3   9   96.19    2.53 
   2  -3  -9   91.28    2.52 
   3  -3   9   28.69    0.96 
  -3   3   9   28.04    0.84 
   3   3  -9   27.15    0.85 
   3  -3   9   30.23    0.97 
  -3   3   9   28.27    0.83 
   3   3  -9   28.28    0.84 
  -3   3   9   28.09    0.90 
  -3   3   9   26.52    0.84 
   3  -3  -9   32.82    1.02 
   3   3   9   32.66    1.07 
   3   3   9   34.37    1.09 
   3   3   9   32.13    1.11 
   4   3  -9   20.61    0.63 
  -4   3   9   19.40    0.58 
   4  -3   9   19.78    0.80 
   4   3  -9   20.21    0.64 
   4   3  -9   21.33    0.64 
  -4   3   9   19.31    0.68 
   4  -3   9   19.00    0.79 
   4  -3  -9   20.33    0.73 
   4   3   9   20.97    0.85 
   4   3   9   22.92    0.84 
   4   3   9   20.05    0.80 
   5   3  -9   53.02    1.39 
   5   3  -9   51.62    1.37 
   5  -3   9   49.97    1.60 
   5   3  -9   53.80    1.37 
   5  -3   9   50.95    1.61 
   5   3   9   38.52    1.35 
   5   3   9   38.68    1.29 
   5  -3  -9   41.16    1.16 
   5  -3  -9   40.07    1.21 
   5   3   9   42.00    1.31 
   6   3  -9   28.37    0.80 
   6  -3   9   28.79    1.10 
   6  -3   9   27.97    1.09 
   6   3   9   25.19    1.00 
   6  -3  -9   27.13    0.85 
   6   3   9   27.14    1.07 
  -6   3  -9   24.67    1.00 
   6   3   9   27.78    1.02 
   7  -3   9   33.62    1.26 
   7  -3   9   33.26    1.26 
  -7   3  -9   33.34    1.26 
   7   3   9   31.57    1.19 
   7   3   9   32.34    1.20 
   8  -3   9   56.13    1.81 
   8  -3   9   51.46    1.79 
   8   3   9   56.86    1.87 
   8   3   9   60.13    1.87 
   9  -3   9   24.93    1.19 
   9  -3   9   25.18    1.19 
   9   3   9   21.77    1.06 
  10  -3   9   18.42    1.13 
  10   3   9   19.63    1.07 
   0   4   9   73.64    2.04 
   0   4  -9   71.57    1.96 
   0   4   9   73.08    2.00 
   0  -4   9   73.28    1.98 
   0   4   9   72.78    1.98 
   1  -4   9   51.59    1.45 
  -1   4   9   51.07    1.49 
   1   4  -9   48.42    1.45 
  -1   4   9   50.89    1.44 
  -1   4   9   52.81    1.45 
   1  -4   9   47.88    1.45 
   1   4  -9   51.28    1.42 
  -1   4  -9   62.48    1.79 
   1   4   9   66.80    1.86 
   1   4   9   62.92    1.81 
  -1  -4   9   63.64    1.73 
  -1  -4   9   64.88    1.72 
   1   4   9   66.29    1.80 
  -2   4   9   72.13    2.07 
  -2   4   9   78.08    2.14 
   2  -4   9   78.49    2.13 
   2   4  -9   77.87    2.04 
  -2   4   9   79.96    2.07 
   2   4  -9   78.58    2.09 
   2  -4   9   74.92    2.14 
  -2   4   9   80.24    2.09 
  -2   4  -9   77.99    2.10 
  -2  -4   9   76.14    1.97 
   2  -4  -9   76.45    2.10 
   2   4   9   75.80    2.09 
   2   4   9   76.81    2.16 
  -2  -4   9   75.10    1.96 
   2   4   9   76.16    2.12 
  -3   4   9  133.35    3.54 
   3   4  -9  135.66    3.45 
   3  -4   9  141.23    3.60 
   3   4  -9  140.23    3.53 
  -3   4   9  139.91    3.48 
  -3   4   9  139.78    3.59 
   3  -4   9  141.59    3.65 
  -3   4   9  131.24    3.53 
   3  -4  -9  144.23    3.80 
   3   4   9  147.08    3.90 
   3   4   9  150.45    3.85 
   3   4   9  144.51    3.78 
  -4   4   9   96.18    2.44 
   4  -4   9   94.19    2.63 
  -4   4   9   94.81    2.54 
  -4   4   9   88.25    2.45 
   4   4  -9   97.70    2.42 
   4   4  -9   99.24    2.46 
  -4   4   9   93.35    2.43 
   4  -4   9   96.03    2.61 
   4   4   9   92.70    2.47 
   4  -4  -9   87.95    2.43 
   4   4   9   87.64    2.54 
   4   4   9   91.37    2.50 
   5  -4   9   89.50    2.46 
   5   4  -9   90.01    2.28 
   5   4  -9   85.11    2.22 
   5   4  -9   86.26    2.21 
  -5   4   9   88.39    2.35 
   5   4  -9   86.91    2.21 
   5  -4   9   84.06    2.47 
   5  -4  -9   86.84    2.43 
   5   4   9   84.03    2.48 
   5   4   9   85.75    2.40 
   5   4   9   87.64    2.43 
   5  -4  -9   85.89    2.29 
   6  -4   9   55.33    1.74 
   6   4  -9   54.09    1.42 
   6  -4   9   54.80    1.72 
   6   4   9   54.10    1.68 
   6  -4  -9   54.97    1.54 
   6   4   9   53.35    1.69 
  -6   4  -9   58.02    1.73 
   6   4   9   51.95    1.74 
   7  -4   9   10.80    0.76 
   7  -4   9   11.65    0.78 
   7   4   9   12.04    0.73 
   7   4   9   12.05    0.74 
  -7   4  -9   12.76    0.75 
   7   4   9   13.29    0.79 
   8  -4   9    9.68    0.74 
   8  -4   9    9.61    0.77 
   8   4   9   10.04    0.73 
   8   4   9    8.40    0.67 
   9  -4   9    2.43    0.54 
   9  -4   9    1.81    0.50 
   9   4   9    2.00    0.45 
  10  -4   9    7.37    0.76 
  10   4   9    4.35    0.62 
   0   5   9   27.63    0.96 
   0   5  -9   30.67    0.96 
   0  -5   9   30.92    0.96 
   0   5   9   31.41    1.03 
   1  -5   9  127.91    3.31 
   1   5  -9  126.58    3.22 
  -1   5   9  121.05    3.24 
   1  -5   9  125.07    3.25 
  -1   5   9  126.26    3.30 
   1   5  -9  124.39    3.31 
  -1   5   9  128.81    3.34 
  -1   5  -9  118.79    3.17 
   1   5   9  120.03    3.18 
  -1  -5   9  128.56    3.15 
  -1  -5   9  121.54    3.10 
   1   5   9  123.32    3.28 
   1   5   9  119.24    3.23 
  -2   5   9   31.32    0.99 
   2  -5   9   31.13    1.04 
   2  -5   9   31.06    1.04 
  -2   5   9   31.13    1.04 
   2   5  -9   31.99    0.96 
   2   5  -9   31.85    0.99 
   2   5   9   40.94    1.25 
   2   5   9   38.22    1.27 
   2   5   9   38.68    1.24 
  -2   5  -9   37.95    1.22 
  -2  -5   9   41.35    1.10 
  -2  -5   9   40.16    1.09 
  -3   5   9   36.47    1.16 
   3   5  -9   36.57    1.06 
   3   5  -9   38.87    1.11 
   3  -5   9   35.14    1.19 
  -3   5   9   36.35    1.10 
  -3   5   9   37.73    1.11 
  -3   5   9   34.57    1.11 
   3  -5   9   37.22    1.21 
   3   5   9   38.61    1.24 
   3   5   9   39.88    1.29 
   3   5   9   39.98    1.24 
   3  -5  -9   36.83    1.20 
   4   5  -9   16.50    0.56 
  -4   5   9   17.03    0.61 
   4   5  -9   15.84    0.57 
   4  -5   9   15.68    0.75 
  -4   5   9   16.36    0.66 
   4   5  -9   16.73    0.57 
  -4   5   9   16.52    0.60 
   4  -5   9   15.79    0.75 
  -4   5   9   16.21    0.60 
   4   5   9   19.88    0.80 
   4   5   9   20.39    0.81 
   4  -5  -9   18.90    0.74 
   4   5   9   19.45    0.86 
   5   5  -9    7.34    0.31 
   5   5  -9    6.88    0.32 
   5   5  -9    7.22    0.35 
  -5   5   9    6.67    0.43 
   5  -5   9    7.02    0.58 
   5  -5   9    5.82    0.50 
   5   5   9    4.43    0.46 
   5   5   9    3.47    0.39 
   5  -5  -9    4.90    0.40 
  -5   5  -9    4.94    0.46 
   5   5   9    4.93    0.44 
   6  -5   9   43.02    1.48 
   6   5  -9   44.14    1.17 
   6  -5   9   42.79    1.48 
   6   5   9   39.13    1.39 
   6   5   9   37.54    1.31 
   6   5   9   38.03    1.31 
   6  -5  -9   38.54    1.18 
  -6   5  -9   37.80    1.33 
   7  -5   9   41.74    1.50 
   7  -5   9   43.01    1.53 
   7   5   9   35.70    1.29 
   7  -5  -9   35.52    1.14 
   7   5   9   35.77    1.35 
  -7   5  -9   35.47    1.31 
   7   5   9   35.77    1.30 
   8  -5   9   21.04    1.09 
   8  -5   9   23.49    1.13 
   8   5   9   17.01    0.90 
   8   5   9   17.63    0.94 
   9  -5   9   24.43    1.21 
   9  -5   9   20.00    1.15 
   9   5   9   18.69    1.02 
  10  -5   9   10.33    0.88 
   0   6   9    8.99    0.52 
   0  -6   9    9.04    0.46 
   0   6   9    8.72    0.48 
   0   6  -9    8.91    0.47 
   1   6  -9   40.50    1.19 
  -1   6   9   39.17    1.22 
  -1   6   9   40.34    1.27 
   1  -6   9   39.51    1.23 
  -1   6   9   40.78    1.23 
   1  -6   9   37.41    1.21 
  -1   6  -9   32.23    1.05 
   1   6   9   32.16    1.06 
   1   6   9   31.03    1.09 
  -1  -6   9   33.05    0.98 
   1   6   9   30.56    1.05 
  -1  -6   9   33.12    0.97 
   2  -6   9   13.96    0.64 
  -2   6   9   14.29    0.64 
   2  -6   9   13.45    0.64 
  -2   6   9   13.82    0.59 
   2   6  -9   13.97    0.56 
  -2   6  -9    9.07    0.54 
  -2  -6   9    9.37    0.38 
  -2  -6   9    9.78    0.41 
   2   6   9    9.63    0.53 
   2   6   9   10.86    0.58 
   2   6   9    9.45    0.53 
   3  -6   9   78.14    2.25 
  -3   6   9   79.97    2.16 
  -3   6   9   78.30    2.14 
  -3   6   9   78.40    2.22 
   3   6  -9   77.42    2.09 
   3  -6   9   83.02    2.23 
   3   6  -9   77.60    2.14 
   3   6  -9   79.11    2.11 
   3   6   9   70.90    2.05 
   3   6   9   74.65    2.09 
   3   6   9   71.92    2.12 
  -3   6  -9   71.84    2.09 
   4  -6   9   15.70    0.75 
   4   6  -9   15.89    0.56 
  -4   6   9   16.07    0.62 
  -4   6   9   15.82    0.68 
  -4   6   9   13.27    0.60 
  -4   6   9   16.25    0.61 
   4   6  -9   15.55    0.58 
   4   6  -9   15.67    0.57 
   4  -6   9   16.32    0.75 
   4   6   9   20.00    0.83 
   4   6   9   21.04    0.83 
   4  -6  -9   19.34    0.73 
   4   6   9   20.36    0.87 
  -4   6  -9   19.99    0.84 
   5   6  -9   72.98    1.90 
   5  -6   9   74.88    2.16 
  -5   6   9   73.45    1.93 
   5   6  -9   69.93    1.92 
   5   6  -9   72.96    1.90 
  -5   6   9   71.95    2.07 
   5  -6   9   73.28    2.17 
   5   6   9   64.70    2.01 
  -5   6  -9   64.68    1.96 
   5   6   9   62.66    1.92 
   5  -6  -9   65.28    1.82 
   5   6   9   66.00    1.93 
   6  -6   9    4.11    0.49 
   6   6  -9    4.76    0.31 
   6  -6   9    3.98    0.48 
  -6   6  -9    9.24    0.66 
   6   6   9    9.05    0.69 
   6   6   9    8.81    0.64 
   6   6   9    8.55    0.62 
   6  -6  -9    8.77    0.53 
   7  -6   9   11.07    0.82 
   7  -6   9   11.05    0.84 
   7   6   9   10.81    0.77 
  -7   6  -9   10.52    0.71 
   7  -6  -9   10.40    0.60 
   7   6   9   10.50    0.73 
   7   6   9   10.27    0.70 
   8  -6   9    8.04    0.70 
   8  -6   9    8.20    0.74 
   8   6   9   10.87    0.83 
   8   6   9   11.77    0.81 
   8   6   9   10.87    0.79 
   9  -6   9    8.57    0.78 
   9  -6   9   10.29    0.84 
   9   6   9    6.54    0.65 
   0   7   9   49.29    1.48 
   0   7  -9   48.63    1.46 
   0   7  -9   47.67    1.45 
   0   7   9   48.90    1.48 
   0  -7   9   48.17    1.43 
   0   7   9   49.41    1.53 
  -1   7   9  152.38    3.93 
   1  -7   9  152.53    3.86 
   1   7  -9  146.16    3.89 
  -1   7   9  148.38    3.98 
  -1   7   9  152.34    3.89 
   1  -7   9  151.69    3.92 
   1   7  -9  144.59    3.84 
  -1   7  -9  154.30    4.07 
  -1  -7   9  157.21    4.04 
  -1  -7   9  163.13    3.99 
  -1   7  -9  160.55    4.13 
   1   7   9  155.09    4.08 
   1   7   9  155.41    4.13 
   1   7   9  157.35    4.18 
   2   7  -9   40.47    1.23 
  -2   7   9   38.54    1.26 
  -2   7   9   40.26    1.31 
   2  -7   9   42.22    1.30 
   2  -7   9   40.08    1.30 
   2   7  -9   41.12    1.23 
  -2   7   9   42.06    1.27 
  -2  -7   9   37.05    1.09 
  -2  -7   9   38.67    1.11 
  -2   7  -9   39.99    1.28 
   2   7   9   38.83    1.30 
   2   7   9   40.05    1.26 
   2   7   9   37.21    1.24 
  -3   7   9   39.68    1.20 
   3   7  -9   37.90    1.15 
   3  -7   9   37.38    1.26 
  -3   7   9   37.32    1.19 
   3   7  -9   37.08    1.14 
   3  -7   9   36.58    1.27 
  -3   7   9   38.53    1.24 
   3   7   9   30.43    1.07 
  -3   7  -9   31.42    1.10 
   3   7   9   31.60    1.09 
   3   7   9   28.69    1.11 
   4   7  -9   19.42    0.69 
  -4   7   9   19.71    0.80 
   4   7  -9   18.69    0.67 
   4  -7   9   17.17    0.84 
   4  -7   9   20.96    0.90 
  -4   7   9   20.66    0.76 
   4   7  -9   17.97    0.69 
  -4   7   9   20.14    0.74 
   4  -7  -9   15.51    0.65 
   4   7   9   14.44    0.72 
  -4   7  -9   14.27    0.74 
   4   7   9   15.21    0.72 
   4   7   9   14.17    0.76 
  -5   7   9   14.33    0.68 
   5  -7   9   14.36    0.81 
   5  -7   9   13.07    0.78 
   5   7  -9   13.83    0.55 
  -5   7   9   13.08    0.56 
   5   7  -9   13.70    0.51 
  -5   7  -9   16.03    0.82 
   5   7   9   16.79    0.79 
   5   7   9   17.76    0..81 
   5   7   9   16.24    0.86 
   5  -7  -9   15.48    0.70 
   6  -7   9    4.62    0.54 
   6   7  -9    5.73    0.35 
   6  -7   9    4.96    0.54 
  -6   7  -9    6.09    0.57 
   6   7   9    5.43    0.51 
   6  -7  -9    6.06    0.51 
   6   7   9    5.70    0.57 
   6   7   9    5.25    0.51 
   7   7  -9   51.90    1.35 
   7  -7   9   50.13    1.77 
   7  -7   9   49.10    1.74 
   7  -7  -9   55.23    1.67 
   7   7   9   55.55    1.81 
  -7   7  -9   55.34    1.85 
   7   7   9   55.74    1.80 
   7  -7  -9   54.28    1.71 
   7   7   9   57.43    1.89 
   8  -7   9    4.04    0.59 
   8  -7   9    5.33    0.63 
   8   7   9    6.72    0.66 
   8   7   9    7.06    0.64 
   9  -7   9   40.62    1.61 
   9  -7   9   37.28    1.60 
   9   7   9   42.80    1.63 
   0  -8   9  106.30    2.75 
   0   8  -9  100.03    2.78 
   0   8   9  100.10    2.85 
   0   8  -9  101.82    2.77 
   1  -8   9   22.87    0.86 
  -1   8   9   23.03    0.91 
   1  -8   9   21.13    0.84 
   1   8  -9   22.72    0.84 
   1   8  -9   24.45    0.86 
   1   8   9   30.29    1.04 
  -1   8  -9   31.57    1.08 
   1   8   9   30.68    1.12 
  -1   8  -9   30.93    1.07 
  -1  -8   9   31.47    0.99 
   1   8   9   29.17    1.08 
  -1  -8   9   31.09    0.98 
   2  -8   9   41.68    1.38 
   2   8  -9   44.75    1.32 
  -2   8   9   42.55    1.41 
   2  -8   9   43.30    1.38 
   2   8  -9   45.08    1.34 
  -2  -8   9   41.79    1.24 
  -2   8  -9   46.08    1.44 
   2   8   9   43.72    1.42 
   2   8   9   46.47    1.48 
  -2  -8   9   45.46    1.28 
   2   8   9   44.33    1.42 
   3   8  -9  152.69    3.90 
   3  -8   9  152.74    3.97 
  -3   8   9  153.35    4.03 
  -3   8   9  152.55    3.96 
   3   8  -9  147.89    3.85 
   3  -8   9  144.36    4.02 
   3   8   9  141.52    3.77 
  -3   8  -9  146.97    3.81 
   3   8   9  136.36    3.72 
   3   8   9  136.93    3.83 
   4  -8   9    4.29    0.47 
   4   8  -9    4.59    0.35 
   4  -8   9    4.07    0.46 
  -4   8   9    5.44    0.46 
   4   8  -9    4.09    0.32 
  -4   8   9    3.60    0.35 
   4   8   9    3.38    0.43 
  -4   8  -9    2.80    0.39 
   4  -8  -9    2.96    0.35 
   4   8   9    3.27    0.39 
   4   8   9    3.13    0.39 
   5  -8   9   97.78    2.89 
  -5   8   9  100.70    2.81 
  -5   8   9  104.75    2.72 
   5   8  -9   97.97    2.63 
   5  -8   9  100.38    2.86 
   5   8  -9  101.38    2.63 
   5   8   9   97.89    2.91 
   5   8   9  105.49    2.99 
   5  -8  -9  103.67    2.81 
  -5   8  -9  108.22    2.98 
   5   8   9  101.52    2.89 
   6   8  -9   11.79    0.44 
   6  -8   9   10.79    0.81 
   6  -8   9   10.89    0.81 
   6   8  -9   11.50    0.51 
   6   8   9    7.50    0.60 
   6   8   9    7.84    0.68 
   6  -8  -9    7.55    0.58 
   6   8   9    8.77    0.65 
  -6   8  -9    7.50    0.62 
   7   8  -9   18.78    0.65 
   7  -8   9   19.34    1.05 
   7  -8   9   20.01    1.06 
   7  -8  -9   17.63    0.85 
   7  -8  -9   18.66    0.90 
   7   8   9   18.52    1.01 
   7   8   9   18.42    0.96 
   7   8   9   20.63    0.97 
   8  -8   9    7.41    0.73 
   8  -8   9    7.21    0.72 
   8   8   9    8.18    0.73 
   8   8   9    7.95    0.69 
   9  -8   9    0.48    0.51 
   9  -8   9    0.92    0.51 
   9   8   9    1.92    0.50 
   0   9  -9    3.07    0.37 
   0  -9   9    3.11    0.32 
   0  -9   9    1.76    0.25 
   0   9  -9    2.38    0.33 
   0   9   9    1.98    0.32 
   1   9  -9  197.62    5.14 
   1  -9   9  206.78    5.15 
   1  -9   9  202.95    5.22 
   1   9  -9  202.60    5.22 
  -1   9   9  199.88    5.30 
  -1   9  -9  193.45    5.02 
  -1  -9   9  195.23    4.90 
   1   9   9  190.11    5.08 
  -1  -9   9  191.60    4.83 
  -1   9  -9  187.66    4.94 
   2  -9   9   17.92    0.80 
   2  -9   9   16.89    0.77 
  -2   9   9   15.48    0.79 
   2   9  -9   18.16    0.73 
   2   9  -9   17.87    0.73 
  -2  -9   9   22.33    0.77 
  -2   9  -9   22.18    0.93 
   2   9   9   20.89    0.86 
   2   9   9   23.90    0.97 
   2   9   9   24.38    0.95 
  -2  -9   9   22.28    0.74 
   3  -9   9   47.12    1.51 
   3  -9   9   46.39    1.51 
   3   9  -9   46.28    1.39 
   3   9  -9   45.60    1.40 
  -3   9   9   44.65    1.51 
   3   9   9   49.20    1.56 
  -3   9  -9   47.71    1.58 
   3   9   9   47.17    1.54 
   3   9   9   47.11    1.61 
  -4   9   9   47.49    1.54 
  -4   9   9   45.79    1.44 
   4   9  -9   45.25    1.37 
   4  -9   9   46.66    1.56 
   4  -9   9   46.09    1.54 
   4   9  -9   43.95    1.36 
   4  -9  -9   52.14    1.58 
   4   9   9   52.06    1.67 
  -4   9  -9   49.64    1.68 
   4   9   9   50.97    1.71 
   4   9   9   52.22    1.65 
   5  -9   9   16.00    0.89 
   5   9  -9   14.07    0.60 
   5  -9   9   15.23    0.87 
  -5   9   9   15.27    0.70 
   5   9  -9   15.65    0.64 
  -5   9   9   14.11    0.77 
   5   9   9   15.69    0.84 
   5   9   9   16.16    0.88 
   5  -9  -9   15.17    0.77 
  -5   9  -9   15.27    0.85 
   5   9   9   14.85    0.81 
   6  -9   9   15.49    0.93 
  -6   9   9   14.75    0.62 
   6  -9   9   13.93    0.91 
   6   9  -9   14.05    0.61 
   6   9  -9   14.17    0.55 
   6   9   9   18.50    1.00 
  -6   9  -9   18.66    0.95 
   6   9   9   16.10    0.89 
   6   9   9   18.01    0.93 
   6  -9  -9   18.53    0.85 
   7  -9   9   57.69    2.01 
   7   9  -9   59.16    1.63 
   7  -9   9   61.71    2.03 
   7   9   9   60.70    2.01 
   7  -9  -9   61.87    1.95 
   7  -9  -9   64.00    1.92 
   7   9   9   63.89    2.02 
   7   9   9   61.06    2.09 
   8  -9   9    0.74    0.48 
   8  -9   9    0.29    0.48 
   8   9   9    0.94    0.42 
   8   9   9    1.40    0.48 
   9  -9   9   41.45    1.74 
   9  -9   9   46.99    1.82 
   9   9   9   35.77    1.52 
   9   9   9   39.29    1.56 
   0  10  -9   37.11    1.26 
   0  10   9   36.83    1.32 
   0  10  -9   36.24    1.26 
   0 -10   9   37.51    1.21 
  -1  10   9   29.78    1.16 
   1  10  -9   28.96    1.08 
   1  10  -9   28.99    1.07 
   1 -10   9   30.92    1.09 
   1 -10   9   31.50    1.08 
  -1 -10   9   38.14    1.14 
  -1  10  -9   33.25    1.24 
   1  10   9   32.75    1.28 
  -1  10  -9   34.74    1.31 
  -1 -10   9   36.89    1.16 
   2 -10   9   21.65    0.90 
   2  10  -9   20.57    0.83 
   2 -10   9   18.74    0.85 
   2  10  -9   18.98    0.81 
  -2  10   9   21.24    0.92 
  -2 -10   9   18.02    0.66 
   2  10   9   20.34    0.92 
  -2  10  -9   18.41    0.84 
  -3  10   9  119.26    3.37 
   3 -10   9  120.91    3.31 
   3  10  -9  117.37    3.21 
   3  10  -9  122.36    3.25 
   3 -10   9  126.04    3.37 
  -3  10  -9  129.88    3.64 
   3  10   9  133.27    3.69 
   3  10   9  133.68    3.61 
  -4  10   9    2.87    0.42 
   4  10  -9    3.29    0.41 
   4 -10   9    3.31    0.46 
   4 -10   9    3.10    0.45 
   4  10  -9    2.71    0.33 
   4  10   9    1.37    0.38 
   4  10   9    0.85    0.32 
  -4  10  -9    0.87    0.34 
   4  10   9    0.52    0.30 
   5 -10   9  112.15    3.20 
  -5  10   9  115.12    3.09 
   5 -10   9  113.43    3.25 
   5  10  -9  112.34    3.00 
  -5  10   9  112.21    3.20 
   5  10   9  120.21    3.43 
   5  10   9  113.98    3.32 
   5  10   9  119.39    3.32 
   5 -10  -9  121.71    3.24 
  -5  10  -9  116.70    3.38 
   6 -10   9    9.11    0.75 
  -6  10   9    9.98    0.58 
   6 -10   9   10.32    0.82 
   6  10  -9    9.66    0.50 
   6  10   9    9.42    0.74 
   6 -10  -9   10.44    0.73 
   6  10   9    9.72    0.81 
   6  10   9    9.16    0.75 
  -6  10  -9    9.72    0.75 
   7 -10   9   14.36    1.01 
   7 -10   9   13.67    0.98 
   7  10   9   13.47    0.90 
   7  10   9   13.16    0.87 
   7  10   9   14.43    0.98 
   7 -10  -9   12.92    0.83 
   8 -10   9    9.56    0.85 
   8 -10   9   11.93    0.95 
   8  10   9   10.34    0.81 
   8  10   9   10.00    0.84 
   9 -10   9    2.35    0.61 
   9 -10   9    1.91    0.61 
   9  10   9    2.89    0.57 
   0  11   9   33.11    1.28 
   0 -11   9   33.11    1.14 
   0  11  -9   34.32    1.22 
   1 -11   9  187.51    4.87 
   1 -11   9  189.66    4.82 
  -1  11   9  182.32    4.98 
   1  11  -9  183.76    4.89 
   1  11   9  181.74    4.82 
  -1  11  -9  178.80    4.76 
  -1 -11   9  174.83    4.60 
  -2  11   9   15.87    0.83 
   2  11  -9   14.54    0.74 
   2 -11   9   15.11    0.79 
   2 -11   9   16.46    0.81 
  -2 -11   9   11.61    0.54 
  -2  11  -9   12.89    0.76 
   2  11   9   14.24    0.81 
   3 -11   9   34.50    1.32 
  -3  11   9   37.62    1.37 
   3  11  -9   37.08    1.24 
   3 -11   9   36.35    1.32 
  -3  11  -9   33.66    1.29 
   3  11   9   34.38    1.31 
   3  11   9   33.71    1.32 
   4 -11   9   26.59    1.14 
   4 -11   9   27.60    1.16 
  -4  11   9   26.79    1.11 
   4  11  -9   26.89    0.99 
   4  11   9   27.65    1.14 
  -4  11  -9   23.15    1.10 
   4  11   9   25.50    1.08 
   4  11   9   25.54    1.17 
  -5  11   9    5.11    0.48 
   5 -11   9    5.98    0.62 
  -5  11   9    5.72    0.57 
   5  11  -9    4.99    0.42 
   5 -11   9    5.86    0.60 
   5 -11  -9    6.73    0.56 
  -5  11  -9    6.83    0.66 
   5  11   9    5.38    0.58 
   5  11   9    5.90    0.58 
   5  11   9    6.62    0.65 
   6 -11   9   14.80    0.98 
  -6  11   9   15.68    0.75 
   6  11  -9   13.16    0.63 
   6 -11   9   14.24    0.94 
   6  11   9   14.45    0.93 
   6  11   9   15.48    0.98 
   6  11   9   14.54    0.90 
   6 -11  -9   16.31    0.90 
  -6  11  -9   16.39    0.96 
   7 -11   9   53.63    1.92 
   7 -11   9   50.85    1.89 
   7  11   9   49.67    1.79 
   7  11   9   49.01    1.80 
   7  11   9   49.71    1.88 
   7 -11  -9   53.06    1.72 
   8 -11   9   11.78    0.92 
   8 -11   9   10.16    0.88 
   8  11   9    9.63    0.86 
   8  11   9    8.88    0.81 
   9 -11   9   33.61    1.77 
   9 -11   9   39.05    1.68 
   9  11   9   32.93    1.49 
   0  12   9   37.73    1.44 
   0 -12   9   39.39    1.30 
   0  12  -9   38.75    1.38 
   1 -12   9   42.50    1.42 
  -1  12   9   42.83    1.54 
   1  12  -9   42.42    1.45 
   1  12   9   41.88    1.50 
  -1 -12   9   40.82    1.30 
  -1  12  -9   40.53    1.45 
  -2  12   9   39.63    1.50 
   2 -12   9   42.10    1.44 
   2 -12   9   43.02    1.51 
   2  12  -9   40.08    1.40 
  -2  12  -9   43.03    1.49 
   2  12   9   41.24    1.52 
  -2 -12   9   38.33    1.21 
   3 -12   9  130.49    3.51 
   3 -12   9  125.62    3.49 
  -3  12   9  124.57    3.55 
   3  12  -9  120.16    3.40 
   3  12   9  121.58    3.49 
  -3  12  -9  120.80    3.45 
  -4  12   9   40.80    1.52 
   4  12  -9   42.70    1.37 
   4 -12   9   41.91    1.55 
   4 -12   9   39.53    1.50 
   4  12   9   49.15    1.69 
   4  12   9   46.59    1.73 
  -4  12  -9   45.95    1.68 
   5  12  -9   95.57    2.69 
   5 -12   9   99.83    2.91 
   5 -12   9   99.37    2.91 
  -5  12   9   94.16    2.77 
   5  12   9   92.49    2.85 
   5  12   9   98.26    2.88 
  -5  12  -9   98.83    2.94 
   5 -12  -9   96.13    2.79 
   5  12   9   98.16    2.96 
   6 -12   9   14.81    0.99 
   6 -12   9   13.16    0.97 
   6  12  -9   13.13    0.67 
  -6  12   9   13.41    0.75 
   6  12   9   15.97    0.95 
  -6  12  -9   15.02    1.01 
   6  12   9   16.55    1.02 
   6  12   9   14.72    0.97 
   6 -12  -9   15.22    0.94 
   7 -12   9   34.35    1.54 
   7 -12   9   35.79    1.55 
   7  12   9   36.49    1.48 
   7  12   9   30.32    1.48 
   7 -12  -9   32.94    1.36 
   8 -12   9   10.89    0.91 
   8 -12   9   10.72    0.90 
   8  12   9   10.67    0.90 
   8  12   9   12.68    1.02 
   0  13   9   78.16    2.57 
   0 -13   9   87.34    2.41 
   0  13  -9   85.50    2.51 
   1 -13   9   67.92    2.09 
  -1  13   9   70.10    2.24 
   1  13  -9   72.54    2.18 
  -1 -13   9   63.78    1.90 
  -1  13  -9   66.98    2.09 
   1  13   9   66.25    2.14 
  -2  13   9   63.02    2.03 
   2  13  -9   59.23    1.90 
   2 -13   9   59.09    1.91 
  -2  13  -9   65.40    2.11 
   2  13   9   67.68    2.18 
  -2 -13   9   63.39    1.83 
  -3  13   9   29.44    1.24 
   3 -13   9   28.93    1.20 
   3  13  -9   25.90    1.08 
  -3  13  -9   33.89    1.37 
   3  13   9   34.24    1.40 
   4 -13   9   10.30    0.84 
  -4  13   9   11.41    0.82 
   4  13  -9   10.36    0.67 
   4  13   9   13.07    0.89 
  -4  13  -9   10.94    0.84 
   4  13   9   11.87    0.88 
   5 -13   9   14.69    0.97 
   5  13  -9   12.04    0.72 
   5  13   9   12.06    0.94 
   5  13   9   12.63    0.89 
  -5  13  -9   13.19    0.95 
   5  13   9   12.55    0.88 
   6 -13   9   27.21    1.32 
  -6  13   9   27.21    1.10 
   6  13  -9   26.74    1.03 
  -6  13  -9   29.61    1.36 
   6  13   9   27.21    1.27 
   6 -13  -9   29.74    1.28 
   6  13   9   28.82    1.34 
   6  13   9   28.50    1.40 
   7 -13   9   16.37    1.14 
   7 -13  -9   21.92    1.15 
   7  13   9   21.42    1.26 
   7  13   9   20.53    1.20 
   8  13   9   22.15    1.31 
   0 -14   9    0.22    0.30 
   0  14   9    0.60    0.40 
   0  14  -9    0.66    0.37 
  -1  14   9   17.39    0.98 
   1 -14   9   15.08    0.84 
   1  14  -9   16.06    0.88 
   1  14   9   15.34    0.94 
  -1 -14   9   15.01    0.75 
  -1  14  -9   15.36    0.91 
  -2  14   9   48.56    1.79 
   2 -14   9   51.78    1.70 
   2  14  -9   49.79    1.70 
  -2  14  -9   43.99    1.62 
  -2 -14   9   42.48    1.32 
   2  14   9   43.94    1.67 
  -3  14   9   25.70    1.23 
   3 -14   9   25.23    1.17 
   3  14  -9   24.78    1.07 
   3  14   9   29.51    1.30 
  -3  14  -9   24.21    1.21 
   4  14  -9   70.83    2.19 
   4 -14   9   75.37    2.34 
  -4  14   9   71.85    2.36 
   4  14   9   69.35    2.33 
   4  14   9   74.01    2.42 
  -4  14  -9   73.21    2.38 
   5 -14   9   22.45    1.21 
   5  14  -9   24.53    1.03 
  -5  14  -9   26.29    1.29 
   5  14   9   25.18    1.23 
   5  14   9   26.57    1.34 
   5  14   9   27.02    1.28 
   6  14  -9   31.30    1.22 
   6 -14   9   33.25    1.50 
  -6  14   9   34.99    1.31 
   6  14   9   32.35    1.51 
   6  14   9   29.90    1.41 
   6  14   9   29.98    1.37 
   6 -14  -9   32.14    1.36 
  -6  14  -9   33.09    1.47 
   7 -14   9    8.38    0.83 
   7  14   9    9.44    0.85 
   7  14   9    9.83    0.91 
   7 -14  -9    9.85    0.80 
   0  15   9   66.92    2.34 
   0 -15   9   72.21    2.12 
   0  15  -9   72.12    2.27 
  -1  15   9   26.87    1.26 
   1  15  -9   24.21    1.14 
   1 -15   9   26.30    1.10 
   1  15   9   29.26    1.30 
  -1  15  -9   25.70    1.21 
  -1 -15   9   25.48    1.03 
   2 -15   9   21.21    1.02 
  -2  15   9   19.18    1.10 
   2  15  -9   20.41    1.02 
  -2  15  -9   21.93    1.14 
   2  15   9   23.64    1.20 
   3 -15   9   15.63    0.99 
   3  15  -9   15.94    0.89 
  -3  15   9   16.13    1.02 
   3  15   9   14.03    0.98 
  -3  15  -9   12.58    0.94 
   4  15  -9    1.92    0.43 
   4 -15   9    1.69    0.52 
  -4  15   9    1.81    0.53 
   4  15   9    1.09    0.49 
  -4  15  -9    1.12    0.47 
   4  15   9    0.83    0.44 
   5  15  -9    8.23    0.66 
   5 -15   9    7.11    0.76 
   5  15   9    6.50    0.71 
   5  15   9    8.41    0.82 
   5  15   9    7.00    0.74 
  -5  15  -9    6.10    0.74 
  -6  15   9   27.01    1.20 
   6 -15   9   29.22    1.44 
   6  15  -9   28.03    1.15 
  -6  15  -9   30.38    1.45 
   6  15   9   30.59    1.43 
   6  15   9   29.26    1.39 
   6  15   9   28.29    1.47 
   0  16   9    2.07    0.54 
   0  16  -9    1.18    0.45 
   0 -16   9    1.85    0.41 
  -1  16   9   11.60    0.92 
   1  16  -9   11.14    0.83 
   1 -16   9   11.55    0.82 
  -1 -16   9    9.78    0.68 
  -1  16  -9   11.11    0.88 
   1  16   9   11.54    0.93 
   2 -16   9   35.57    1.42 
  -2  16   9   36.40    1.56 
   2  16  -9   36.90    1.45 
  -2  16  -9   36.34    1.54 
   2  16   9   39.23    1.62 
   3  16  -9    4.35    0.56 
   3 -16   9    3.79    0.56 
  -3  16   9    5.42    0.69 
  -3  16  -9    5.09    0.68 
   3  16   9    5.39    0.69 
   4 -16   9   57.53    2.00 
  -4  16   9   53.27    2.05 
   4  16  -9   55.90    1.90 
   4  16   9   56.55    2.04 
   4  16   9   56.62    2.09 
  -4  16  -9   51.38    2.00 
   5  16  -9    4.05    0.53 
   5 -16   9    2.94    0.62 
   5  16   9    5.99    0.73 
  -5  16  -9    4.76    0.71 
   5  16   9    4.94    0.74 
   6  16   9   25.94    1.36 
   6  16   9   27.06    1.41 
  -6  16  -9   26.53    1.40 
   0  17  -9   65.80    2.22 
   0  17   9   61.17    2.28 
   0 -17   9   65.35    2.02 
   1  17  -9    0.39    0.43 
   1 -17   9    1.02    0.43 
  -1  17   9    1.12    0.49 
  -1 -17   9    2.74    0.43 
  -1  17  -9    1.75    0.52 
   1  17   9    2.40    0.56 
  -2  17   9   38.92    1.69 
   2 -17   9   40.95    1.55 
   2  17  -9   40.57    1.57 
  -2  17  -9   44.00    1.77 
   2  17   9   41.84    1.76 
   3  17  -9    3.71    0.56 
  -3  17   9    3.69    0.64 
   3 -17   9    3.26    0.58 
  -3  17  -9    5.52    0.73 
   3  17   9    7.42    0.80 
   4  17  -9    0.44    0.42 
   4 -17   9   -0.43    0.48 
  -4  17   9   -0.02    0.49 
   4  17   9    0.69    0.48 
  -4  17  -9   -0.77    0.46 
   4  17   9   -0.25    0.49 
   5  17  -9    7.73    0.71 
   5  17   9    8.51    0.85 
  -5  17  -9   10.29    0.93 
   0  18  -9    0.03    0.45 
   0 -18   9   -0.18    0.39 
   0  18   9   -0.08    0.48 
  -1  18   9    1.56    0.55 
   1  18  -9    1.44    0.51 
   1 -18   9    1.46    0.47 
   1  18   9    3.18    0.64 
  -1  18  -9    2.35    0.58 
  -1 -18   9    2.35    0.44 
   2  18  -9   19.75    1.15 
  -2  18   9   19.39    1.23 
   2 -18   9   17.93    1.10 
   2  18   9   15.96    1.18 
  -2  18  -9   18.68    1.18 
   3 -18   9    0.48    0.50 
   3  18  -9    0.75    0.45 
  -3  18   9    1.32    0.56 
   3  18   9    0.83    0.54 
  -3  18  -9   -0.37    0.47 
   4  18  -9   39.70    1.62 
   4  18   9   39.55    1.73 
  -4  18  -9   36.93    1.70 
   0 -19   9   39.13    1.46 
   0  19  -9   39.97    1.71 
   0  19   9   37.32    1.76 
   1 -19   9    1.42    0.49 
   1  19  -9    0.84    0.57 
  -1  19   9    1.15    0.58 
  -1  19  -9    0.21    0.50 
   1  19   9    0.02    0.52 
  -2  19   9   21.57    1.36 
   2 -19   9   23.93    1.20 
  -3  19   9    4.48    0.74 
   4  19   9    1.53    0.56 
   0 -20   9    0.24    0.43 
   0   0  10  473.17   11.64 
   0   0  10  482.59   11.66 
   0   0 -10  480.44   11.41 
   0   0  10  476.16   11.40 
   0   0 -10  434.34   11.63 
  -1   0  10    0.13    0.14 
  -1   0 -10   -0.14    0.14 
  -1   0  10    0.04    0.12 
   1   0  10   -0.10    0.14 
  -1   0  10   -0.11    0.11 
   1   0 -10    0.11    0.14 
   1   0  10    0.09    0.15 
   1   0  10    0.03    0.17 
   1   0 -10    0.28    0.14 
   2   0  10  363.15    9.38 
   2   0 -10  364.01    9.31 
   2   0  10  377.89    9.41 
   2   0 -10  371.76    9.13 
  -2   0  10  377.65    9.31 
  -2   0  10  374.96    9.09 
  -2   0  10  395.80    9.28 
   2   0  10  374.76    9.20 
   3   0 -10    2.89    0.26 
  -3   0  10    3.13    0.20 
  -3   0  10    2.75    0.24 
   3   0  10    2.33    0.32 
  -3   0  10    3.03    0.18 
   3   0  10    3.17    0.33 
   3   0  10    3.41    0.34 
   3   0 -10    3.49    0.28 
   4   0 -10    0.89    0.18 
   4   0  10    1.54    0.28 
   4   0 -10    1.24    0.19 
   4   0  10    1.03    0.26 
  -4   0  10    1.06    0.14 
   5   0 -10    1.53    0.20 
   5   0  10    1.17    0.29 
   5   0  10    1.23    0.29 
   6   0  10   78.85    2.33 
   6   0  10   82.31    2.32 
   7   0  10    0.00    0.28 
   7   0  10    0.56    0.32 
   8   0  10   99.38    2.94 
   8   0  10  102.09    2.90 
   9   0  10   -0.58    0.36 
   9   0  10    0.23    0.44 
  10   0  10   39.17    1.57 
   0   1  10   26.95    0.87 
   0   1  10   27.92    0.89 
   0   1 -10   27.25    0.90 
   0   1 -10   26.94    0.88 
   0   1  10   26.06    0.91 
   0  -1 -10   26.32    0.88 
   0  -1  10   29.12    0.93 
   0  -1  10   27.60    0.86 
   0  -1  10   27.59    0.87 
   1  -1  10    0.39    0.16 
  -1   1  10    0.37    0.16 
  -1   1  10    0.42    0.15 
   1   1 -10    0.13    0.14 
  -1  -1 -10    0.24    0.16 
   1  -1  10    0.66    0.21 
   1   1 -10    0.40    0.15 
  -1   1  10    0.19    0.11 
   1  -1  10    0.34    0.17 
   1   1  10    0.07    0.16 
  -1  -1  10    0.36    0.16 
  -1  -1  10    0.35    0.14 
   1   1  10    0.36    0.16 
  -1  -1  10    0.29    0.14 
  -1   1 -10    0.14    0.17 
   1  -1 -10    0.22    0.15 
   1   1  10    0.35    0.19 
   1  -1 -10    0.18    0.15 
  -2   1  10  188.04    4.88 
   2  -1  10  199.24    4.98 
  -2   1  10  193.49    4.80 
   2   1 -10  195.14    4.92 
   2   1 -10  194.46    4.82 
  -2   1  10  190.80    4.86 
   2  -1  10  191.54    5.02 
   2  -1  10  200.15    4.90 
  -2   1  10  193.90    4.93 
  -2   1 -10  225.00    5.53 
  -2  -1  10  220.43    5.51 
   2   1  10  222.23    5.67 
  -2  -1  10  220.19    5.40 
   2  -1 -10  214.89    5.46 
  -2  -1  10  222.27    5.57 
   2   1  10  224.72    5.53 
   2  -1 -10  217.48    5.58 
   2   1  10  220.68    5.64 
  -3   1  10    8.79    0.35 
  -3   1  10    9.78    0.43 
   3  -1  10   10.42    0.53 
   3   1 -10   10.34    0.43 
   3  -1  10    9.54    0.52 
  -3   1  10    9.66    0.36 
   3   1 -10   10.16    0.43 
  -3   1  10    9.94    0.38 
   3   1  10    9.24    0.51 
   3   1  10    9.33    0.54 
   3  -1 -10    9.14    0.43 
   3  -1 -10    9.55    0.43 
   3   1  10    9.26    0.51 
   4  -1  10  280.70    6.92 
   4   1 -10  285.18    6.90 
   4   1 -10  283.76    6.77 
   4  -1  10  280.23    7.05 
  -4   1  10  253.94    6.87 
   4   1  10  285.45    7.36 
   4   1  10  293.50    7.40 
   4  -1 -10  292.22    7.24 
   4   1  10  287.76    7.23 
   5  -1  10   -0.08    0.24 
   5  -1  10    0.07    0.24 
   5   1 -10    0.43    0.16 
  -5   1  10    0.28    0.12 
   5   1 -10    0.34    0.14 
   5   1  10    1.30    0.30 
   5   1  10    1.78    0.31 
   5   1  10    1.52    0.33 
   5  -1 -10    1.63    0.22 
   6  -1  10  118.34    3.20 
   6  -1  10  116.20    3.24 
   6   1  10  115.72    3.21 
   6   1  10  121.00    3.28 
   7  -1  10    0.20    0.30 
   7  -1  10   -0.25    0.29 
   7   1  10    0.44    0.33 
   7   1  10    0.21    0.30 
   8  -1  10    5.59    0.59 
   8  -1  10    5.14    0.57 
   8   1  10    3.12    0.48 
   8   1  10    3.46    0.49 
   9  -1  10    2.60    0.52 
   9  -1  10    2.53    0.50 
   9   1  10    2.17    0.48 
  10  -1  10   12.79    1.00 
  10   1  10   15.19    1.02 
   0  -2  10  452.02   11.04 
   0  -2  10  454.73   10.81 
   0   2 -10  429.91   11.05 
   0  -2 -10  456.07   10.84 
   0   2  10  440.87   11.08 
   0   2 -10  443.35   10.83 
   0   2  10  454.30   10.84 
   0   2  10  429.59   11.05 
   1  -2  10   85.53    2.29 
  -1   2  10   87.81    2.30 
   1  -2  10   87.36    2.34 
  -1   2  10   84.14    2.34 
   1   2 -10   84.24    2.32 
   1   2 -10   87.79    2.27 
   1   2  10   85.56    2.29 
  -1  -2  10   85.42    2.25 
  -1   2 -10   87.33    2.29 
   1  -2 -10   84.72    2.27 
   1   2  10   85.63    2.36 
   1  -2 -10   84.68    2.31 
   1   2  10   85.47    2.32 
  -1  -2  10   84.69    2.22 
  -2   2  10  272.03    6.57 
   2  -2  10  269.93    6.79 
  -2   2  10  255.80    6.69 
  -2   2  10  277.53    6.74 
   2   2 -10  267.94    6.71 
  -2   2  10  261.69    6.68 
   2  -2  10  268.96    6.65 
   2   2 -10  269.97    6.58 
  -2   2 -10  240.89    5.94 
   2  -2 -10  229.75    6.01 
   2   2  10  243.17    5.95 
  -2  -2  10  236.65    5.92 
   2   2  10  245.05    6.10 
  -2  -2  10  247.08    5.82 
   2   2  10  230.65    6.05 
   2  -2 -10  231.94    5.89 
  -3   2  10   17.92    0.57 
   3   2 -10   17.69    0.62 
   3   2 -10   17.43    0.60 
  -3   2  10   17.68    0.64 
   3  -2  10   18.57    0.73 
   3  -2  10   17.10    0.71 
  -3   2  10   15.91    0.56 
  -3   2  10   17.30    0.57 
   3   2  10   20.18    0.77 
   3   2  10   20.16    0.78 
   3  -2 -10   19.47    0.71 
   3   2  10   20.20    0.82 
   4  -2  10   10.97    0.60 
  -4   2  10   10.04    0.45 
   4   2 -10   10.68    0.44 
   4  -2  10   10.35    0.58 
   4   2 -10   10.23    0.43 
   4  -2 -10    9.87    0.46 
   4   2  10    9.57    0.56 
   4   2  10    9.73    0.55 
   4   2  10    8.34    0.58 
   5  -2  10   18.32    0.81 
   5   2 -10   17.06    0.60 
   5   2 -10   17.85    0.59 
   5  -2  10   18.08    0.80 
  -5   2  10   17.70    0.59 
   5   2  10   13.73    0.69 
   5   2  10   14.71    0.76 
   5   2  10   15.19    0.72 
   5  -2 -10   13.75    0.58 
   6  -2  10   48.52    1.59 
   6  -2  10   48.28    1.57 
   6   2  10   50.18    1.61 
   6   2  10   50.48    1.61 
   7  -2  10   20.40    0.97 
   7  -2  10   20.23    0.96 
   7   2  10   21.01    0.95 
   7   2  10   20.39    0.94 
   8  -2  10   82.76    2.56 
   8  -2  10   86.63    2.56 
   8   2  10   82.27    2.49 
   8   2  10   85.96    2.53 
   9  -2  10   14.83    0.98 
   9  -2  10   16.71    0.99 
   9   2  10   16.55    0.95 
  10  -2  10   33.57    1.47 
  10   2  10   33.01    1.43 
   0   3 -10    0.46    0.17 
   0  -3  10   -0.02    0.13 
   0  -3  10    0.19    0.14 
   0   3  10    0.56    0.20 
   0   3 -10    0.43    0.16 
   0   3  10    0.10    0.14 
   0   3  10   -0.02    0.15 
  -1   3  10   50.76    1.43 
  -1   3  10   51.69    1.50 
  -1   3  10   50.17    1.45 
   1  -3  10   53.92    1.47 
   1   3 -10   48.62    1.43 
   1   3 -10   50.00    1.47 
   1  -3  10   49.87    1.47 
  -1  -3  10   42.76    1.20 
   1   3  10   40.83    1.30 
  -1  -3  10   43.03    1.19 
   1   3  10   42.08    1.28 
  -1   3 -10   41.71    1.25 
   1   3  10   40.49    1.25 
  -2   3  10   90.50    2.35 
   2   3 -10   86.08    2.31 
  -2   3  10   88.45    2.33 
   2  -3  10   90.08    2.39 
   2  -3  10   88.15    2.42 
  -2   3  10   89.55    2.32 
   2   3 -10   89.06    2.37 
  -2   3  10   86.57    2.40 
  -2  -3  10   81.94    2.07 
   2   3  10   79.40    2.21 
  -2  -3  10   78.73    2.05 
   2   3  10   80.05    2.27 
  -2   3 -10   82.55    2.19 
   2   3  10   79.52    2.19 
   2  -3 -10   75.98    2.17 
   3  -3  10   96.37    2.60 
   3   3 -10   97.32    2.43 
  -3   3  10   82.54    2.45 
  -3   3  10   97.62    2.46 
   3  -3  10   97.96    2.56 
   3   3 -10   95.74    2.49 
  -3   3  10   95.53    2.43 
  -3   3  10   92.03    2.52 
   3  -3 -10   96.03    2.66 
   3   3  10  101.69    2.69 
   3   3  10   98.31    2.76 
   3   3  10  102.43    2.73 
  -4   3  10  209.51    5.09 
   4   3 -10  203.33    5.16 
  -4   3  10  207.27    5.21 
   4  -3  10  202.91    5.33 
  -4   3  10  196.94    5.10 
   4  -3  10  206.18    5.24 
   4   3 -10  212.11    5.07 
   4   3  10  190.53    4.86 
   4   3  10  186.57    4.94 
   4  -3 -10  191.77    4.86 
   4   3  10  190.38    4.99 
   5  -3  10   57.66    1.83 
   5  -3  10   60.94    1.85 
   5   3 -10   62.67    1.62 
  -5   3  10   59.95    1.67 
   5   3 -10   62.37    1.61 
   5   3  10   62.11    1.85 
   5   3  10   62.82    1.83 
   5   3  10   59.00    1.89 
   6  -3  10   56.85    1.85 
   6  -3  10   60.82    1.85 
   6   3 -10   60.57    1.57 
   6   3  10   55.95    1.71 
   6   3  10   52.67    1.70 
   6   3  10   53.31    1.75 
   7  -3  10   15.40    0.86 
   7  -3  10   14.88    0.85 
  -7   3 -10   15.07    0.86 
   7   3  10   15.96    0.84 
   7   3  10   16.13    0.84 
   8  -3  10    2.55    0.47 
   8  -3  10    1.47    0.43 
   8   3  10    2.64    0.46 
   8   3  10    2.39    0.45 
   9  -3  10    1.96    0.49 
   9  -3  10    2.54    0.52 
   9   3  10    0.98    0.41 
  10  -3  10    7.54    0.77 
   0  -4  10   43.55    1.38 
   0   4  10   52.51    1.51 
   0   4  10   50.85    1.46 
   0   4  10   50.56    1.44 
   0   4 -10   49.81    1.44 
   0  -4  10   50.02    1.43 
   1   4 -10  124.36    3.31 
   1  -4  10  134.51    3.40 
  -1   4  10  126.86    3.42 
  -1   4  10  129.35    3.32 
   1  -4  10  129.55    3.34 
   1   4 -10  129.27    3.39 
  -1   4  10  130.29    3.38 
   1   4  10  129.99    3.50 
   1   4  10  134.33    3.55 
   1   4  10  133.34    3.45 
  -1  -4  10  134.35    3.37 
  -1  -4  10  133.71    3.43 
  -1   4 -10  133.54    3.45 
  -2   4  10   21.25    0.77 
  -2   4  10   20.68    0.72 
   2  -4  10   20.02    0.77 
   2  -4  10   20.56    0.78 
  -2   4  10   20.60    0.72 
   2   4 -10   20.30    0.71 
   2   4 -10   19.76    0.72 
   2   4  10   23.25    0.85 
   2   4  10   23.54    0.88 
   2  -4 -10   21.02    0.80 
  -2  -4  10   23.46    0.71 
   2   4  10   23.07    0.84 
  -2   4 -10   22.75    0.84 
  -2  -4  10   23.17    0.69 
  -3   4  10    4.62    0.32 
  -3   4  10    5.47    0.38 
   3   4 -10    4.68    0.33 
  -3   4  10    4.70    0.33 
   3  -4  10    4.56    0.40 
   3  -4  10    5.39    0.44 
   3   4 -10    5.19    0.34 
  -3   4  10    5.02    0.32 
   3  -4 -10    4.31    0.36 
   3   4  10    5.05    0.45 
   3   4  10    5.10    0.43 
   3   4  10    4.72    0.40 
  -4   4  10    2.89    0.23 
   4  -4  10    2.32    0.34 
  -4   4  10    2.69    0.24 
   4  -4  10    3.49    0.40 
   4   4 -10    3.22    0.25 
   4   4 -10    2.67    0.25 
  -4   4  10    2.98    0.24 
  -4   4  10    2.98    0.30 
   4   4  10    2.21    0.37 
   4   4  10    2.06    0.31 
   4   4  10    2.21    0.32 
   4  -4 -10    2.62    0.29 
  -5   4  10    6.72    0.40 
   5   4 -10    6.31    0.32 
   5   4 -10    6.44    0.35 
   5  -4  10    6.50    0.53 
   5  -4  10    5.85    0.50 
   5   4  10    4.01    0.42 
   5   4  10    4.81    0.48 
   5   4  10    4.93    0.45 
   6  -4  10   26.74    1.10 
   6  -4  10   27.50    1.11 
   6   4 -10   28.47    0.82 
  -6   4 -10   31.60    1.19 
   6   4  10   31.08    1.23 
   6   4  10   31.74    1.17 
   6   4  10   31.46    1.17 
   7  -4  10   45.01    1.56 
   7  -4  10   42.99    1.55 
  -7   4 -10   40.84    1.45 
   7   4  10   40.47    1.43 
   7   4  10   39.83    1.49 
   7   4  10   40.18    1.44 
   8  -4  10   32.26    1.35 
   8  -4  10   34.96    1.39 
   8   4  10   36.33    1.38 
   8   4  10   34.95    1.38 
   9  -4  10   23.90    1.24 
   9  -4  10   26.90    1.26 
   9   4  10   23.18    1.13 
  10  -4  10   11.06    0.92 
   0   5 -10    7.45    0.43 
   0  -5  10    7.11    0.42 
   0   5  10    6.40    0.43 
   0   5  10    6.62    0.43 
   1   5 -10   18.67    0.69 
  -1   5  10   17.97    0.70 
   1  -5  10   18.79    0.72 
   1  -5  10   18.52    0.72 
  -1   5  10   20.22    0.73 
   1   5 -10   19.12    0.72 
  -1   5 -10   23.46    0.82 
  -1  -5  10   21.46    0.73 
   1   5  10   20.82    0.84 
   1   5  10   22.01    0.82 
  -1  -5  10   23.77    0.75 
   1   5  10   21.32    0.82 
   2  -5  10   41.01    1.28 
   2  -5  10   41.37    1.29 
   2   5 -10   42.84    1.25 
  -2   5  10   38.67    1.22 
  -2   5  10   38.90    1.27 
   2   5 -10   40.92    1.20 
   2   5  10   50.10    1.55 
   2   5  10   53.05    1.60 
  -2  -5  10   52.80    1.39 
   2   5  10   51.05    1.54 
  -2  -5  10   50.44    1.39 
  -3   5  10  114.61    2.93 
  -3   5  10  115.70    3.03 
   3  -5  10  114.75    3.03 
   3   5 -10  111.70    2.96 
   3  -5  10  106.18    3.05 
  -3   5  10  113.03    2.96 
   3   5 -10  111.41    2.89 
   3   5  10  108.99    2.99 
   3   5  10  108.53    2.95 
   3   5  10  112.25    3.05 
  -4   5  10   52.32    1.62 
   4   5 -10   61.89    1.61 
  -4   5  10   59.13    1.62 
   4   5 -10   59.14    1.63 
  -4   5  10   60.55    1.63 
   4  -5  10   58.17    1.80 
  -4   5  10   60.69    1.72 
   4  -5  10   59.69    1.79 
   4   5  10   70.97    2.00 
   4  -5 -10   67.43    1.94 
   4   5  10   67.13    2.00 
   4   5  10   66.24    2.05 
   5   5 -10   53.24    1.44 
   5   5 -10   55.27    1.46 
  -5   5  10   52.89    1.58 
   5  -5  10   51.74    1.70 
   5  -5  10   54.14    1.71 
   5   5  10   56.85    1.76 

   5   5  10   54.27    1.74 
   5   5  10   59.85    1.83 
  -5   5 -10   55.97    1.77 
   6  -5  10   39.46    1.44 
   6  -5  10   40.90    1.45 
   6   5 -10   42.31    1.14 
   6   5  10   47.60    1.55 
  -6   5 -10   47.46    1.55 
   6   5  10   45.14    1.60 
   6  -5 -10   45.01    1.37 
   6   5  10   44.87    1.52 
   7  -5  10    9.31    0.77 
   7  -5  10    8.57    0.68 
   7   5  10    8.67    0.70 
   7   5  10    8.11    0.67 
   7   5  10    9.43    0.69 
  -7   5 -10    9.08    0.71 
   8  -5  10    2.96    0.54 
   8  -5  10    3.11    0.52 
   8   5  10    3.42    0.50 
   8   5  10    2.74    0.48 
   9  -5  10    3.59    0.61 
   9  -5  10    3.56    0.60 
   9   5  10    2.66    0.51 
   0   6  10  111.58    2.97 
   0  -6  10  116.45    2.97 
   0   6  10  111.89    3.01 
   0   6 -10  101.86    2.92 
   0   6  10  115.46    3.06 
  -1   6  10  176.65    4.74 
   1   6 -10  186.86    4.64 
  -1   6  10  183.55    4.66 
   1  -6  10  183.86    4.67 
   1  -6  10  179.32    4.74 
  -1   6  10  189.18    4.79 
  -1  -6  10  177.96    4.36 
  -1  -6  10  175.70    4.43 
   1   6  10  175.30    4.59 
   1   6  10  167.67    4.53 
  -1   6 -10  172.95    4.45 
   1   6  10  172.36    4.46 
   2   6 -10   28.27    0.92 
   2   6 -10   28.52    0.96 
   2  -6  10   27.29    1.00 
  -2   6  10   27.40    0.96 
  -2   6  10   29.14    1.01 
   2  -6  10   30.95    1.02 
  -2  -6  10   34.75    1.02 
   2   6  10   35.66    1.22 
   2   6  10   34.93    1.17 
  -2  -6  10   35.20    1.00 
   2   6  10   34.06    1.17 
  -3   6  10   41.91    1.28 
  -3   6  10   42.30    1.34 
   3  -6  10   43.14    1.38 
   3   6 -10   42.76    1.27 
   3  -6  10   41.72    1.36 
   3   6 -10   42.18    1.23 
  -3   6  10   40.95    1.27 
   3   6  10   42.10    1.41 
   3   6  10   41.37    1.36 
   3   6  10   42.77    1.37 
  -4   6  10   12.32    0.57 
   4  -6  10   13.53    0.71 
  -4   6  10   14.32    0.65 
  -4   6  10   13.01    0.57 
   4   6 -10   14.11    0.56 
   4   6 -10   13.94    0.55 
   4   6 -10   14.37    0.54 
  -4   6  10   14.38    0.59 
   4  -6  10   14.08    0.74 
   4   6  10   14.64    0.73 
  -4   6 -10   14.72    0.73 
   4   6  10   14.94    0.76 
   4   6  10   13.15    0.70 
  -5   6  10    7.72    0.39 
   5  -6  10    7.21    0.59 
  -5   6  10    7.27    0.50 
   5   6 -10    6.93    0.40 
   5   6 -10    7.69    0.36 
   5  -6  10    7.81    0.61 
  -5   6 -10    6.33    0.53 
   5   6  10    7.19    0.57 
   5   6  10    7.25    0.59 
   5   6  10    6.59    0.54 
   6  -6  10    7.82    0.64 
   6   6 -10    9.09    0.42 
   6  -6  10    9.38    0.70 
   6   6  10    6.34    0.60 
   6   6  10    6.04    0.54 
  -6   6 -10    6.31    0.58 
   6  -6 -10    6.46    0.48 
   6   6  10    5.19    0.51 
   7   6 -10   31.00    0.87 
   7  -6  10   30.58    1.30 
   7  -6  10   29.41    1.29 
   7  -6 -10   31.72    1.09 
   7   6  10   32.74    1.26 
   7   6  10   29.50    1.22 
   7   6  10   31.42    1.31 
  -7   6 -10   32.35    1.28 
   8  -6  10   14.80    1.00 
   8  -6  10   13.83    0.96 
   8   6  10   13.04    0.87 
   8   6  10   15.94    0.94 
   8   6  10   13.69    0.89 
   9  -6  10   35.31    1.54 
   9  -6  10   35.12    1.51 
   9   6  10   33.17    1.41 
   0  -7  10   14.64    0.64 
   0   7  10   15.28    0.68 
   0   7  10   16.31    0.74 
   0   7 -10   14.50    0.65 
   1  -7  10   40.32    1.26 
   1   7 -10   39.48    1.25 
   1   7 -10   40.27    1.24 
   1  -7  10   39.84    1.27 
  -1   7  10   39.21    1.26 
  -1   7  10   40.19    1.33 
  -1   7  10   38.78    1.26 
   1   7  10   26.61    1.01 
   1   7  10   29.13    1.07 
  -1   7 -10   30.82    1.04 
  -1  -7  10   29.29    0.92 
   1   7  10   28.12    1.02 
  -1  -7  10   28.95    0.93 
   2  -7  10   23.71    0.91 
  -2   7  10   23.78    0.88 
  -2   7  10   23.11    0.87 
  -2   7  10   24.48    0.94 
   2  -7  10   24.97    0.92 
   2   7 -10   24.00    0.84 
   2   7 -10   24.33    0.85 
   2   7  10   16.07    0.74 
  -2   7 -10   16.57    0.75 
   2   7  10   17.47    0.75 
  -2  -7  10   16.92    0.61 
   2   7  10   17.10    0.79 
  -2  -7  10   16.02    0.57 
   3   7 -10  133.61    3.58 
   3   7 -10  138.33    3.49 
  -3   7  10  137.31    3.55 
   3  -7  10  133.78    3.68 
  -3   7  10  137.99    3.60 
   3   7 -10  134.82    3.54 
  -3   7  10  139.03    3.67 
   3  -7  10  133.53    3.63 
   3   7  10  118.03    3.17 
   3   7  10  117.19    3.25 
   3   7  10  118.96    3.21 
  -3   7 -10  111.39    3.18 
   4  -7  10    9.34    0.68 
   4  -7  10   10.25    0.67 
   4   7 -10   10.37    0.48 
   4   7 -10   10.19    0.49 
  -4   7  10   12.44    0.63 
  -4   7  10   10.44    0.53 
   4   7  10    9.44    0.62 
   4   7  10   10.21    0.66 
  -4   7 -10    9.20    0.62 
   4   7  10    9.16    0.63 
  -5   7  10  136.85    3.61 
  -5   7  10  135.10    3.48 
   5  -7  10  132.28    3.65 
   5  -7  10  131.41    3.71 
   5   7 -10  134.68    3.40 
   5   7 -10  131.75    3.42 
   5   7  10  123.19    3.37 
   5   7  10  123.65    3.50 
   5   7  10  122.84    3.40 
  -5   7 -10  123.38    3.43 
   6  -7  10    3.70    0.51 
   6   7 -10    2.89    0.27 
   6   7 -10    2.63    0.22 
   6  -7  10    2.88    0.49 
   6   7  10    5.18    0.52 
  -6   7 -10    6.18    0.58 
   6   7  10    5.90    0.55 
   6  -7 -10    5.46    0.44 
   6   7  10    5.51    0.58 
   7   7 -10   20.62    0.67 
   7  -7  10   20.61    1.10 
   7  -7  10   20.90    1.07 
   7   7  10   18.07    0.96 
  -7   7 -10   17.81    1.02 
   7  -7 -10   17.80    0.81 
   7   7  10   18.48    0.94 
   7   7  10   18.02    1.00 
   8  -7  10   -0.18    0.43 
   8  -7  10   -0.44    0.41 
   8   7  10    0.71    0.43 
   8   7  10    0.34    0.38 
   9  -7  10    2.81    0.59 
   9  -7  10    0.94    0.53 
   9   7  10    0.85    0.46 
   0   8 -10    2.99    0.35 
   0   8  10    3.14    0.37 
   0   8 -10    2.54    0.33 
   0  -8  10    2.44    0.29 
   0   8  10    2.41    0.32 
   0   8  10    3.55    0.42 
   1   8 -10  127.70    3.35 
   1  -8  10  125.99    3.31 
   1   8 -10  125.39    3.30 
  -1   8  10  127.06    3.35 
  -1   8  10  117.77    3.42 
   1  -8  10  124.68    3.35 
  -1   8  10  127.19    3.38 
  -1  -8  10  135.81    3.46 
  -1   8 -10  130.17    3.52 
   1   8  10  131.78    3.62 
  -1   8 -10  136.48    3.58 
  -1  -8  10  130.55    3.42 
   1   8  10  135.09    3.55 
   1   8  10  128.54    3.57 
  -2   8  10   10.04    0.63 
  -2   8  10   11.91    0.61 
  -2   8  10   11.75    0.60 
   2  -8  10   11.59    0.64 
   2   8 -10   10.40    0.55 
   2   8 -10   11.33    0.57 
   2  -8  10   11.57    0.63 
  -2  -8  10   10.92    0.47 
  -2   8 -10   12.45    0.66 
   2   8  10   11.96    0.65 
   2   8  10   11.51    0.64 
  -2  -8  10   11.53    0.51 
   2   8  10   11.95    0.68 
  -3   8  10    6.11    0.51 
   3   8 -10    6.04    0.43 
   3   8 -10    6.11    0.44 
   3  -8  10    6.17    0.51 
   3  -8  10    6.51    0.53 
  -3   8  10    5.27    0.44 
  -3   8  10    6.50    0.48 
  -3   8 -10    9.47    0.63 
   3   8  10    9.06    0.64 
   3   8  10    9.05    0.61 
   3   8  10    8.53    0.61 
   4  -8  10    0.50    0.32 
   4   8 -10    0.69    0.22 
   4   8 -10    0.96    0.23 
  -4   8  10    0.92    0.28 
  -4   8  10    0.79    0.25 
   4  -8  10    0.68    0.31 
   4   8  10    0.61    0.29 
  -4   8 -10    0.17    0.29 
   4   8  10    0.90    0.35 
   4   8  10    0.66    0.29 
   5  -8  10   11.22    0.77 
   5   8 -10   10.52    0.52 
  -5   8  10   10.21    0.64 
   5  -8  10   10.36    0.76 
   5   8 -10    9.62    0.48 
  -5   8  10   10.62    0.55 
   5   8  10    6.84    0.57 
  -5   8 -10    7.70    0.64 
   5   8  10    7.36    0.59 
   5   8  10    7.44    0.65 
   6   8 -10    0.79    0.22 
   6  -8  10    1.22    0.42 
   6   8 -10    0.99    0.18 
   6  -8  10    1.70    0.43 
   6   8  10    1.09    0.36 
  -6   8 -10    0.88    0.38 
   6   8  10    1.17    0.41 
   6   8  10    1.53    0.37 
   6  -8 -10    1.98    0.35 
   7   8 -10   86.14    2.28 
   7  -8  10   89.33    2.71 
   7  -8  10   88.40    2.67 
   7   8  10   77.49    2.45 
   7   8  10   76.61    2.37 
   7   8  10   73.83    2.37 
   7  -8 -10   77.89    2.22 
   8  -8  10    0.36    0.47 
   8  -8  10    1.36    0.49 
   8   8  10    0.85    0.43 
   8   8  10    0.87    0.48 
   9  -8  10   43.32    1.77 
   9  -8  10   43.73    1.77 
   9   8  10   45.36    1.73 
   0   9  10   -0.08    0.21 
   0   9 -10    0.22    0.25 
   0   9 -10   -0.05    0.22 
   0  -9  10    0.09    0.09 
   0   9  10    0.47    0.28 
   0  -9  10    0.29    0.22 
   1   9 -10   43.03    1.36 
   1   9 -10   42.14    1.36 
   1  -9  10   42.37    1.35 
  -1   9  10   39.93    1.38 
   1  -9  10   41.73    1.34 
  -1   9  10   42.39    1.44 
  -1  -9  10   38.62    1.24 
   1   9  10   42.06    1.43 
  -1   9 -10   41.66    1.36 
   1   9  10   39.00    1.35 
  -1  -9  10   42.19    1.25 
   1   9  10   40.27    1.37 
  -1   9 -10   39.70    1.36 
   2  -9  10    4.69    0.45 
   2  -9  10    3.98    0.44 
   2   9 -10    3.89    0.38 
  -2   9  10    5.40    0.50 
  -2   9  10    4.90    0.43 
  -2   9  10    4.95    0.45 
   2   9 -10    5.03    0.42 
  -2  -9  10    6.08    0.37 
   2   9  10    6.89    0.55 
  -2   9 -10    5.18    0.49 
   2   9  10    5.95    0.54 
   2   9  10    5.35    0.48 
   3   9 -10  127.66    3.35 
   3  -9  10  126.65    3.51 
  -3   9  10  127.63    3.51 
   3  -9  10  130.49    3.47 
  -3   9  10  125.74    3.44 
   3   9 -10  127.43    3.39 
   3   9  10  135.12    3.67 
   3   9  10  133.96    3.77 
  -3   9 -10  132.65    3.72 
   3   9  10  139.30    3.70 
   4  -9  10    1.29    0.38 
   4  -9  10    0.80    0.36 
  -4   9  10    1.51    0.34 
   4   9 -10    1.79    0.27 
  -4   9  10    1.32    0.29 
   4   9 -10    1.07    0.25 
   4   9  10    1.19    0.33 
   4   9  10    1.75    0.39 
  -4   9 -10    1.31    0.37 
   4   9  10    1.78    0.37 
  -5   9  10  107.27    3.02 
   5  -9  10  110.17    3.06 
  -5   9  10  106.64    2.91 
   5   9 -10  104.40    2.82 
   5   9 -10  103.88    2.82 
   5  -9  10  109.38    3.10 
   5   9  10  116.94    3.28 
  -5   9 -10  116.69    3.34 
   5   9  10  116.28    3.31 
   5   9  10  117.92    3.38 
   6  -9  10    4.60    0.57 
   6   9 -10    3.83    0.35 
   6   9 -10    4.15    0.33 
   6  -9  10    4.38    0.57 
   6   9  10    5.05    0.60 
   6   9  10    3.69    0.50 
  -6   9 -10    3.58    0.51 
   6   9  10    4.09    0.51 
   6  -9 -10    3.37    0.44 
   7  -9  10   21.34    1.15 
   7   9 -10   21.28    0.79 
   7  -9  10   21.40    1.18 
   7   9  10   24.65    1.17 
   7   9  10   25.16    1.16 
   7  -9 -10   23.26    1.02 
   7   9  10   24.32    1.23 
   8  -9  10    2.92    0.56 
   8  -9  10    2.14    0.57 
   8   9  10    1.84    0.47 
   8   9  10    2.16    0.54 
   9  -9  10    3.31    0.65 
   9  -9  10    4.23    0.68 
   9   9  10    3.04    0.61 
   0 -10  10    2.10    0.32 
   0  10 -10    1.95    0.35 
   0  10  10    1.87    0.37 
   1 -10  10  224.32    5.71 
   1  10 -10  216.13    5.71 
  -1  10  10  223.70    5.81 
   1 -10  10  217.55    5.62 
   1  10  10  226.12    5.96 
   1  10  10  235.03    6.10 
  -1 -10  10  231.90    5.89 
  -1  10 -10  232.54    6.03 
   2  10 -10    9.48    0.60 
   2 -10  10   10.20    0.63 
  -2  10  10    9.67    0.67 
   2 -10  10    9.99    0.66 
   2  10  10    8.33    0.63 
   2  10  10    8.27    0.66 
  -2 -10  10    8.98    0.45 
  -2  10 -10    8.04    0.64 
   3  10 -10   72.52    2.10 
   3 -10  10   72.65    2.18 
   3 -10  10   71.06    2.20 
  -3  10  10   73.20    2.15 
  -3  10  10   75.53    2.23 
  -3  10 -10   80.73    2.47 
   3  10  10   84.95    2.53 
   3  10  10   84.00    2.45 
   3  10  10   81.69    2.44 
   4 -10  10    1.54    0.41 
   4  10 -10    1.96    0.30 
   4 -10  10    1.71    0.41 
  -4  10  10    2.35    0.35 
  -4  10  10    2.32    0.40 
  -4  10 -10    2.66    0.44 
   4  10  10    3.28    0.45 
   4  10  10    2.82    0.46 
   4  10  10    2.90    0.43 
  -5  10  10   14.63    0.85 
   5 -10  10   16.06    0.93 
   5 -10  10   13.71    0.90 
  -5  10  10   13.42    0.72 
   5  10 -10   13.32    0.62 
   5  10  10   10.97    0.78 
   5  10  10   12.03    0.81 
   5  10  10   11.90    0.82 
  -5  10 -10   11.29    0.80 
   6 -10  10    3.65    0.56 
   6  10 -10    2.98    0.30 
   6 -10  10    2.50    0.50 
   6  10  10    4.85    0.57 
  -6  10 -10    3.86    0.55 
   6  10  10    4.25    0.53 
   6  10  10    3.89    0.58 
   6 -10 -10    4.78    0.50 
   7 -10  10   54.30    1.98 
   7 -10  10   57.26    1.99 
   7  10  10   55.78    2.02 
   7 -10 -10   57.45    1.81 
   7  10  10   55.79    1.92 
   7  10  10   55.56    1.93 
   8 -10  10    1.75    0.56 
   8 -10  10    0.17    0.52 
   8  10  10    2.02    0.52 
   8  10  10    2.63    0.58 
   9 -10  10   51.71    1.99 
   9 -10  10   51.73    2.00 
   9  10  10   44.25    1.77 
   0 -11  10    0.80    0.28 
   0  11  10    1.20    0.37 
   0  11 -10    1.48    0.34 
  -1  11  10   34.20    1.31 
   1  11 -10   36.19    1.25 
   1 -11  10   33.30    1.21 
  -1 -11  10   27.86    0.98 
   1  11  10   29.01    1.19 
  -1  11 -10   26.94    1.11 
   2  11 -10   18.17    0.83 
   2 -11  10   18.11    0.87 
  -2  11  10   18.17    0.91 
   2 -11  10   19.12    0.90 
  -2 -11  10   17.70    0.67 
   2  11  10   17.56    0.93 
   2  11  10   18.83    0.92 
  -2  11 -10   19.16    0.92 
   3 -11  10  147.93    4.00 
   3  11 -10  142.34    3.90 
  -3  11  10  149.24    4.07 
   3 -11  10  147.34    3.97 
   3  11  10  132.11    3.80 
  -3  11 -10  137.32    3.77 
   3  11  10  134.76    3.72 
   3  11  10  134.57    3.74 
  -4  11  10   29.85    1.15 
   4  11 -10   31.16    1.09 
   4 -11  10   28.29    1.22 
   4 -11  10   31.62    1.27 
  -4  11  10   33.13    1.26 
   4  11  10   31.11    1.25 
  -4  11 -10   28.83    1.23 
   4  11  10   28.70    1.20 
   4  11  10   30.50    1.30 
  -5  11  10  116.92    3.30 
   5 -11  10  122.96    3.46 
   5  11 -10  119.72    3.22 
   5 -11  10  120.57    3.41 
  -5  11 -10  122.16    3.47 
   5  11  10  118.26    3.42 
   5  11  10  117.58    3.40 
   5  11  10  120.50    3.51 
  -6  11  10   17.30    0.86 
   6 -11  10   17.88    1.09 
   6 -11  10   17.43    1.05 
   6  11 -10   16.77    0.72 
   6  11  10   16.96    1.01 
   6  11  10   15.74    1.03 
   6  11  10   15.60    0.96 
  -6  11 -10   17.74    1.05 
   6 -11 -10   17.50    0.91 
   7 -11  10   26.95    1.33 
   7 -11  10   26.69    1.32 
   7 -11 -10   23.67    1.13 
   7  11  10   26.82    1.26 
   7  11  10   24.63    1.21 
   7  11  10   26.27    1.32 
   8 -11  10    1.39    0.58 
   8 -11  10    1.00    0.53 
   8  11  10    0.97    0.52 
   8  11  10    1.27    0.49 
   9 -11  10    1.26    0.60 
   0  12  10   52.85    1.82 
   0  12 -10   53.64    1.75 
   0 -12  10   54.48    1.66 
  -1  12  10  114.08    3.26 
   1 -12  10  109.11    3.11 
   1  12 -10  114.57    3.17 
   1  12  10  112.58    3.29 
  -1  12 -10  115.33    3.22 
  -1 -12  10  111.08    3.04 
  -2  12  10   20.39    1.04 
   2  12 -10   23.06    0.98 
   2 -12  10   23.05    1.00 
  -2  12 -10   27.86    1.17 
  -2 -12  10   26.30    0.91 
   2  12  10   27.48    1.20 
  -3  12  10   18.00    0.99 
   3  12 -10   19.92    0.89 
   3 -12  10   21.21    1.00 
   3  12  10   20.96    1.06 
  -3  12 -10   20.03    1.02 
   3  12  10   21.02    1.05 
   4  12 -10    0.74    0.30 
   4 -12  10    1.31    0.43 
  -4  12  10    1.14    0.36 
  -4  12  10    1.01    0.39 
   4 -12  10    1.01    0.41 
  -4  12 -10    1.90    0.44 
   4  12  10    1.59    0.42 
   4  12  10    1.78    0.43 
   4  12  10    1.13    0.44 
   5 -12  10    5.30    0.62 
  -5  12  10    5.57    0.53 
   5  12 -10    4.86    0.46 
   5 -12  10    4..72    0.60 
   5  12  10    6.96    0.67 
  -5  12 -10    6.01    0.65 
   5  12  10    5.86    0.61 
   5  12  10    5.85    0.67 
   6 -12  10   18.38    1.09 
   6 -12  10   18.02    1.12 
   6  12 -10   17.24    0.77 
  -6  12  10   16.68    0.85 
   6  12  10   16.11    1.06 
   6  12  10   16.39    0.99 
  -6  12 -10   16.46    1.03 
   6  12  10   16.75    1.03 
   7 -12  10   39.92    1.68 
   7 -12  10   40.70    1.66 
   7  12  10   41.25    1.65 
   7  12  10   42.89    1.78 
   7 -12 -10   43.14    1.56 
   7  12  10   44.20    1.71 
   8 -12  10   16.69    1.17 
   8 -12  10   14.41    1.14 
   8  12  10   14.62    1.12 
   0 -13  10   -0.06    0.29 
   0  13  10    0.15    0.34 
   0  13 -10   -0.19    0.32 
   1  13 -10    7.12    0.59 
   1 -13  10    8.29    0.68 
  -1  13  10    8.31    0.71 
  -1  13 -10   10.83    0.77 
  -1 -13  10   11.29    0.64 
   1  13  10   10.35    0.82 
   2  13 -10   38.93    1.39 
   2 -13  10   38.58    1.40 
  -2  13  10   36.78    1.49 
  -2  13 -10   39.72    1.50 
  -2 -13  10   38.15    1.20 
   2  13  10   39.16    1.54 
  -3  13  10   60.55    2.03 
   3  13 -10   58.52    1.86 
   3 -13  10   59.17    1.94 
   3  13  10   70.25    2.23 
  -3  13 -10   61.98    2.14 
   3  13  10   65.68    2.16 
  -4  13  10   49.74    1.81 
   4 -13  10   50.13    1.78 
   4  13 -10   51.05    1.64 
  -4  13 -10   51.21    1.85 
   4  13  10   52.05    1.83 
   4  13  10   48.80    1.78 
   4  13  10   53.35    1.90 
   5  13 -10   54.67    1.72 
  -5  13  10   56.72    1.81 
   5 -13  10   53.40    1.92 
   5  13  10   56.01    2.03 
   5  13  10   52.50    1.90 
  -5  13 -10   55.67    1.97 
   5  13  10   57.58    1.97 
   6 -13  10   27.13    1.31 
   6  13 -10   24.67    0.99 
   6  13  10   26.48    1.29 
   6  13  10   27.56    1.32 
  -6  13 -10   27.59    1.37 
   6  13  10   28.48    1.39 
   7 -13  10   10.56    0.89 
   7  13  10   11.36    0.91 
   7  13  10   10.97    0.98 
   0  14  10   95.70    3.01 
   0  14 -10  104.03    2.97 
   0 -14  10  100.36    2.81 
  -1  14  10   68.48    2.22 
   1  14 -10   64.62    2.10 
   1 -14  10   63.10    2.00 
  -1  14 -10   65.95    2.16 
  -1 -14  10   68.16    1.96 
   1  14  10   64.83    2.22 
   2  14 -10   58.44    1.88 
  -2  14  10   55.63    2.00 
   2 -14  10   56.90    1.88 
  -2  14 -10   55.61    1.90 
  -2 -14  10   53.09    1.58 
   2  14  10   54.41    1.96 
  -3  14  10   19.46    1.07 
   3 -14  10   18.48    1.02 
   3  14 -10   18.80    0.93 
  -3  14 -10   15.54    1.00 
   3  14  10   17.06    1.00 
   3  14  10   17.15    1.03 
   4  14 -10    1.15    0.36 
  -4  14  10    1.20    0.46 
   4 -14  10    0.86    0.47 
   4  14  10    1.17    0.48 
   4  14  10    0.63    0.41 
   4  14  10    1.18    0.45 
  -4  14 -10    0.26    0.43 
   5  14 -10    0.56    0.34 
   5 -14  10    0.40    0.48 
  -5  14  10    0.63    0.37 
  -5  14 -10    0.76    0.49 
   5  14  10    0.20    0.46 
   5  14  10    0.59    0.43 
   5  14  10    0.98    0.45 
   6 -14  10   24.31    1.32 
   6  14 -10   22.23    0.98 
   6  14  10   23.81    1.29 
   6  14  10   26.84    1.39 
   6  14  10   24.43    1.27 
  -6  14 -10   25.54    1.32 
   7  14  10   12.91    1.00 
   7  14  10   13.62    1.13 
   0 -15  10    0.09    0.32 
   0  15 -10    0.22    0.38 
   0  15  10    0.09    0.38 
  -1  15  10    0.27    0.42 
   1 -15  10    0.02    0.36 
   1  15 -10    0.32    0.38 
  -1 -15  10    0.69    0.33 
  -1  15 -10    1.17    0.43 
   1  15  10    0.88    0.43 
   2 -15  10   48.91    1.65 
   2  15 -10   45.02    1.64 
  -2  15  10   43.38    1.75 
   2  15  10   44.03    1.75 
  -2  15 -10   44.61    1.69 
   3  15 -10   13.84    0.85 
  -3  15  10   13.85    0.97 
   3 -15  10   12.31    0.92 
   3  15  10   12.40    0.92 
  -3  15 -10   10.77    0.87 
   3  15  10   12.75    0.96 
   4 -15  10   85.35    2.69 
  -4  15  10   85.08    2.77 
   4  15 -10   88.00    2.59 
  -4  15 -10   83.02    2.72 
   4  15  10   84.68    2.71 
   4  15  10   86.65    2.79 
  -5  15  10    8.81    0.71 
   5  15 -10    8.07    0.65 
   5 -15  10    7.13    0.76 
   5  15  10    7.04    0.75 
   5  15  10    8.02    0.85 
   5  15  10    7.48    0.77 
  -5  15 -10    7.57    0.81 
   6 -15  10   23.92    1.33 
   6  15  10   26.15    1.38 
  -6  15 -10   27.31    1.39 
   6  15  10   24.86    1.42 
   6  15  10   25.42    1.33 
   0  16 -10   75.62    2.40 
   0  16  10   69.37    2.44 
   0 -16  10   73.97    2.20 
  -1  16  10    1.86    0.55 
   1  16 -10    1.59    0.47 
   1 -16  10    0.47    0.39 
  -1  16 -10    1.37    0.47 
  -1 -16  10    1.19    0.35 
   1  16  10    1.27    0.50 
   2  16 -10   39.00    1.49 
   2 -16  10   37.12    1.47 
  -2  16  10   34.95    1.58 
  -2  16 -10   37.54    1.57 
   2  16  10   38.92    1.66 
  -3  16  10   -0.11    0.43 
   3 -16  10   -0.09    0.43 
   3  16 -10    0.79    0.40 
   3  16  10    0.43    0.46 
   3  16  10    0.58    0.44 
  -3  16 -10    0.55    0.48 
   4  16 -10   -0.04    0.37 
  -4  16  10    0.60    0.47 
   4 -16  10    0.25    0.48 
   4  16  10   -0.03    0.49 
   4  16  10    0.38    0.45 
  -4  16 -10    1.11    0.52 
   5  16 -10    0.59    0.39 
  -5  16  10    0.37    0.42 
   5 -16  10    0.86    0.54 
  -5  16 -10    0.61    0.53 
   5  16  10    1.78    0.53 
   5  16  10    0.79    0.47 
   5  16  10    0.72    0.53 
   6  16  10   20.27    1.22 
   6  16  10   17.28    1.26 
  -6  16 -10   17.72    1.21 
   0 -17  10    0.17    0.37 
   0  17 -10    0.22    0.44 
   0  17  10    0.20    0.49 
  -1  17  10    0.21    0.46 
   1  17 -10   -0.02    0.41 
   1 -17  10    0.05    0.40 
  -1 -17  10    0.20    0.33 
   1  17  10    0.18    0.48 
  -1  17 -10   -0.20    0.44 
  -2  17  10   23.52    1.37 
   2  17 -10   24.69    1.24 
   2 -17  10   26.31    1.21 
  -2  17 -10   26.18    1.36 
   2  17  10   28.32    1.44 
   3 -17  10    2.09    0.54 
  -3  17  10    1.46    0.52 
   3  17 -10    2.11    0.50 
  -3  17 -10    2.62    0.61 
   3  17  10    2.53    0.59 
   3  17  10    2.33    0.56 
   4  17 -10   35.70    1.49 
   4 -17  10   37.02    1.56 
   4  17  10   34.85    1.62 
  -4  17 -10   38.57    1.66 
   4  17  10   35.29    1.70 
  -5  17  10    3.98    0.61 
   5  17 -10    4.14    0.59 
  -5  17 -10    3.83    0.70 
   5  17  10    5.35    0.75 
   5  17  10    4.67    0.71 
   0  18 -10   83.66    2.73 
   0  18  10   83.62    2.83 
   0 -18  10   84.31    2.51 
   1 -18  10    0.96    0.46 
  -1  18  10    0.04    0.48 
   1  18 -10    0.75    0.48 
  -1  18 -10    0.54    0.49 
   1  18  10   -0.14    0.50 
   2 -18  10   38.76    1.53 
   2  18 -10   34.80    1.52 
  -2  18  10   37.05    1.73 
  -2  18 -10   35.07    1.60 
   2  18  10   34.19    1.69 
   3  18 -10    1.17    0.49 
   3 -18  10    1.71    0.56 
  -3  18  10    1.92    0.58 
  -3  18 -10    1.01    0.55 
  -4  18 -10    1.13    0.59 
   4  18  10    0.88    0.53 
   0  19  10    0.09    0.53 
   0 -19  10    0.50    0.43 
  -1  19  10    1.57    0.61 
   1 -19  10    2.38    0.51 
  -2  19  10   26.76    1.52 
  -3  19  10    1.54    0.59 
   0   0  11    0.15    0.17 
   0   0  11   -0.15    0.16 
   0   0  11    0.05    0.15 
   0   0 -11   -0.15    0.15 
  -1   0  11   17.47    0.62 
  -1   0  11   17.51    0.67 
   1   0 -11   17.65    0.65 
   1   0 -11   16.97    0.66 
   1   0  11   17.48    0.72 
  -1   0  11   16.84    0.62 
  -1   0 -11   16.28    0.66 
   1   0  11   17.90    0.68 
  -2   0  11  197.24    5.12 
   2   0  11  209.54    5.16 
   2   0  11  206.17    5.29 
   2   0 -11  205.88    5.08 
   2   0  11  200.13    5.25 
  -2   0  11  208.59    5.19 
   2   0 -11  200.96    5.18 
  -2   0  11  203.60    5.03 
   3   0 -11    1.61    0.22 
  -3   0  11    1.53    0.14 
   3   0 -11    1.75    0.22 
   3   0  11    1.35    0.27 
  -3   0  11    1.78    0.22 
   3   0  11    1.49    0.27 
  -3   0  11    1.92    0.16 
   3   0  11    1.51    0.31 
  -3   0  11    1.68    0.17 
   4   0 -11  279.97    6.92 
   4   0  11  270.30    6.93 
   4   0  11  272.31    7.06 
   4   0 -11  281.64    6.80 
   5   0  11   26.98    1.02 
   5   0  11   26.69    1.04 
   6   0  11  105.14    2.99 
   6   0  11  107.24    2.95 
   7   0  11   23.67    1.05 
   7   0  11   23.27    1.03 
   8   0  11    4.45    0.57 
   8   0  11    3.18    0.50 
   9   0  11    4.79    0.62 
   9   0  11    4.06    0.59 
  10   0  11    9.27    0.86 
   0   1  11  398.81    9.74 
   0   1  11  407.68    9.95 
   0  -1  11  386.85    9.93 
   0   1  11  399.33    9.98 
   0   1 -11  389.48    9.75 
   0  -1  11  401.87    9.97 
   0  -1 -11  402.93    9.76 
   0  -1  11  404.84    9.74 
  -1  -1 -11   37.54    1.18 
   1  -1  11   36.74    1.17 
  -1   1  11   37.65    1.13 
   1   1 -11   38.22    1.17 
   1   1 -11   38.19    1.14 
   1  -1  11   37.49    1.16 
  -1   1  11   38.57    1.18 
   1  -1  11   38.34    1.23 
   1   1  11   38.27    1.22 
   1   1  11   38.02    1.16 
  -1  -1  11   37.70    1.12 
   1  -1 -11   36.36    1.15 
  -1  -1  11   36.92    1.16 
   1  -1 -11   36.81    1.14 
  -1   1 -11   37.42    1.17 
  -1  -1  11   38.59    1.11 
   1   1  11   38.77    1.18 
  -2   1  11  162.37    4.27 
  -2   1  11  172.57    4.34 
  -2   1  11  162.93    4.25 
   2   1 -11  170.29    4.32 
   2  -1  11  169.28    4.38 
   2  -1  11  174.35    4.44 
   2   1 -11  170.06    4.23 
  -2   1  11  169.51    4.20 
   2  -1  11  164.45    4.30 
   2  -1 -11  164.04    4.17 
  -2  -1  11  167.59    4.11 
   2  -1 -11  162.73    4.26 
   2   1  11  165.72    4.36 
   2   1  11  159.05    4.22 
   2   1  11  168.64    4.31 
  -2  -1  11  166.81    4.25 
  -2  -1  11  168.33    4.18 
  -3   1  11   38.91    1.08 
   3   1 -11   39.85    1.14 
  -3   1  11   34.06    1.07 
  -3   1  11   39.11    1.08 
   3  -1  11   42.04    1.27 
  -3   1  11   37.79    1.16 
   3   1 -11   41.31    1.17 
   3  -1  11   40.19    1.26 
   3  -1 -11   39.75    1.23 
   3   1  11   41.75    1.31 
   3  -1 -11   41.80    1.22 
   3   1  11   40.71    1.36 
   3   1  11   41.96    1.31 
  -4   1  11    1.54    0.20 
   4   1 -11    1.11    0.19 
   4  -1  11    1.14    0.28 
   4   1 -11    1.24    0.21 
   4  -1  11    1.10    0.28 
   4   1  11    1.33    0.28 
   4   1  11    0.80    0.27 
   4  -1 -11    1.28    0.21 
   4   1  11    0.56    0.27 
   5  -1  11   32.67    1.16 
   5  -1  11   31.86    1.16 
   5   1 -11   32.57    0.98 
   5   1 -11   31.65    0.98 
   5   1  11   29.25    1.09 
   5   1  11   29.10    1.09 
   6  -1  11   43.80    1.45 
   6  -1  11   41.00    1.45 
   6   1  11   45.87    1.52 
   6   1  11   46.00    1.54 
   7  -1  11    7.45    0.61 
   7  -1  11    7.20    0.62 
   7   1  11    9.61    0.72 
   7   1  11    9.49    0.70 
   8  -1  11   65.76    2.16 
   8  -1  11   70.52    2.19 
   8   1  11   71.36    2.22 
   8   1  11   70.64    2.23 
   9  -1  11    3.87    0.59 
   9  -1  11    3.38    0.56 
   9   1  11    3.17    0.53 
  10  -1  11   30.58    1.47 
   0  -2  11   45.65    1.29 
   0   2  11   44.02    1.31 
   0   2  11   43.09    1.36 
   0  -2  11   45.22    1.30 
   0  -2 -11   42.28    1.30 
   0   2  11   43.25    1.30 
   0   2 -11   43.44    1.30 
  -1   2  11   46.22    1.29 
  -1  -2 -11   39.96    1.28 
   1   2 -11   41.87    1.30 
   1  -2  11   43.84    1.32 
   1  -2  11   42.58    1.29 
  -1   2  11   44.82    1.34 
   1   2 -11   43.11    1.27 
  -1   2 -11   40.94    1.24 
  -1  -2  11   42.39    1.19 
  -1  -2  11   41.11    1.17 
   1   2  11   40.21    1.30 
   1   2  11   39.20    1.23 
   1  -2 -11   39.34    1.22 
   2  -2  11  114.97    2.97 
   2  -2  11  115.37    3.03 
  -2   2  11  113.14    2.88 
  -2   2  11  114.47    3.00 
  -2   2  11  111.72    2.92 
   2   2 -11  113.44    2.90 
   2   2 -11  111.91    2.96 
  -2   2  11  104.09    2.89 
   2  -2 -11  122.87    3.26 
   2   2  11  125.78    3.26 
  -2  -2  11  125.68    3.17 
   2   2  11  123.78    3.35 
   2   2  11  125.69    3.31 
   2  -2 -11  120.44    3.20 
  -2  -2  11  123.87    3.12 
  -3   2  11   30.02    0.98 
   3   2 -11   30.64    0.94 
  -3   2  11   28.12    0.89 
   3  -2  11   30.03    1.05 
  -3   2  11   30.61    0.91 
  -3   2  11   31.35    0.90 
   3   2 -11   32.91    0.97 
   3  -2  11   30.62    1.06 
   3   2  11   29.91    1.03 
   3   2  11   30.35    1.03 
   3   2  11   29.73    1.08 
   3  -2 -11   29.00    0.96 
   4  -2  11  154.05    4.10 
   4   2 -11  157.24    3.87 
  -4   2  11  150.01    3.96 
   4  -2  11  156.67    4.03 
   4   2 -11  153.09    3.94 
   4   2  11  167.90    4.36 
   4   2  11  158.35    4.39 
   4  -2 -11  166.67    4.25 
   4   2  11  165.65    4.28 
   5   2 -11   20.92    0.71 
   5  -2  11   21.11    0.91 
   5  -2  11   22.21    0.92 
   5   2 -11   21.55    0.72 
   5   2  11   15.79    0.83 
   5   2  11   16.69    0.79 
   5   2  11   17.29    0.81 
   6  -2  11   66.29    2.00 
   6  -2  11   65.22    2.03 
   6   2  11   67.61    2.04 
   6   2  11   65.73    2.03 
   7  -2  11    9.93    0.76 
   7  -2  11    9.11    0.74 
   7   2  11   11.79    0.77 
   7   2  11   10.85    0.74 
   8  -2  11    3.71    0.54 
   8  -2  11    3.10    0.53 
   8   2  11    2.54    0.46 
   8   2  11    2.50    0.48 
   9  -2  11    6.10    0.68 
   9  -2  11    5.18    0.63 
   9   2  11    5.79    0.63 
  10  -2  11   14.23    1.12 
   0  -3  11  244.89    6.03 
   0   3  11  244.54    6.21 
   0   3 -11  240.57    6.04 
   0  -3  11  246.66    6.15 
   0   3  11  239.81    6.17 
   0   3  11  241.39    6.06 
   1   3 -11   14.89    0.62 
  -1   3  11   15.86    0.61 
   1   3 -11   14.56    0.59 
  -1   3  11   14.92    0.64 
  -1  -3 -11   14.17    0.63 
   1  -3  11   15.95    0.64 
  -1   3  11   14.63    0.59 
   1  -3  11   15.97    0.63 
   1   3  11   21.74    0.81 
  -1  -3  11   22.11    0.74 
  -1   3 -11   22.62    0.81 
   1   3  11   21.55    0.84 
   1   3  11   23.28    0.82 
  -1  -3  11   21.21    0.73 
   2  -3  11  110.42    2.95 
  -2   3  11  110.80    2.88 
  -2   3  11  112.28    2.96 
   2   3 -11  114.96    2.97 
   2  -3  11  111.68    3.00 
   2   3 -11  111.04    2.88 
  -2   3  11  110.71    2.97 
  -2   3  11  109.74    2.92 
   2   3  11  100.84    2.69 
  -2  -3  11   93.51    2.47 
   2  -3 -11   89.60    2.57 
   2   3  11   93.57    2.62 
   2   3  11   96.30    2.59 
  -2  -3  11   98.99    2.45 
   3   3 -11    9.06    0.43 
  -3   3  11    6.88    0.38 
   3  -3  11    8.17    0.53 
   3  -3  11    8.88    0.53 
   3   3 -11    9.34    0.44 
  -3   3  11    8.45    0.45 
  -3   3  11    8.66    0.40 
  -3   3  11    9.84    0.42 
   3   3  11    8.85    0.57 
   3   3  11    7.55    0.52 
   3   3  11    8.35    0.54 
   3  -3 -11    8.35    0.46 
  -4   3  11   31.27    1.00 
   4  -3  11   32.81    1.12 
  -4   3  11   31.86    0.88 
  -4   3  11   28.86    0.88 
   4  -3  11   32.21    1.13 
   4   3 -11   31.91    0.96 
   4   3 -11   32.55    0.98 
   4   3  11   28.54    1.03 
   4   3  11   27.59    1.03 
   4  -3 -11   27.19    0.94 
   4   3  11   28.35    1.09 
   5   3 -11   13.97    0.54 
  -5   3  11   14.74    0.58 
   5  -3  11   13.30    0.76 
   5  -3  11   14.74    0.76 
   5   3  11   21.83    0.88 
   5   3  11   19.86    0.88 
   5   3  11   20.20    0.95 
   6   3 -11   43.75    1.21 
   6  -3  11   42.04    1.48 
   6  -3  11   42.27    1.49 
   6   3  11   50.64    1.65 
   6   3  11   51.63    1.72 
   6   3  11   48.37    1.64 
   7  -3  11   12.85    0.83 
   7  -3  11   11.39    0.79 
   7   3  11   12.08    0.77 
   7   3  11   11.65    0.78 
   8  -3  11   60.04    1.98 
   8  -3  11   58.57    1.99 
   8   3  11   63.74    2.07 
   8   3  11   65.30    2.10 
   9  -3  11    8.51    0.76 
   9  -3  11    8.08    0.75 
   9   3  11   10.33    0.79 
   0   4  11    8.14    0.48 
   0  -4  11    8.77    0.46 
   0   4  11    8.33    0.50 
   0   4  11    8.20    0.47 
   0   4 -11    8.77    0.47 
   0  -4  11    7.83    0.42 
   1  -4  11    6.89    0.44 
   1   4 -11    6.45    0.41 
  -1   4  11    6.82    0.40 
   1   4 -11    6.30    0.41 
  -1   4  11    5.72    0.41 
  -1   4  11    6.61    0.45 
   1  -4  11    6.34    0.42 
  -1  -4  11   12.25    0.50 
   1   4  11   10.91    0.58 
  -1  -4  11   12.32    0.51 
   1   4  11   11.95    0.58 
  -1   4 -11   11.33    0.57 
  -2   4  11   62.45    1.74 
   2   4 -11   63.83    1.77 
   2  -4  11   61.00    1.80 
  -2   4  11   60.62    1.79 
  -2   4  11   61.08    1.72 
   2   4 -11   63.64    1.72 
   2  -4  11   60.94    1.79 
   2   4  11   63.74    1.93 
   2   4  11   62.90    1.88 
   2   4  11   66.48    1.87 
  -2  -4  11   64.33    1.72 
  -2  -4  11   65.64    1.72 
  -3   4  11   99.25    2.86 
   3   4 -11  105.73    2.83 
   3  -4  11  112.06    2.96 
  -3   4  11  109.96    2.94 
   3   4 -11  111.38    2.90 
  -3   4  11  113.43    2.87 
   3  -4  11  112.89    3.00 
  -3   4  11  110.27    2.83 
   3   4  11  107.04    2.88 
   3  -4 -11  103.28    2.86 
   3   4  11  106.71    2.98 
   3   4  11  107.92    2.93 
  -4   4  11  130.91    3.31 
   4   4 -11  136.96    3.32 
   4  -4  11  133.57    3.51 
   4  -4  11  130.21    3.55 
   4   4 -11  134.18    3.38 
  -4   4  11  111.65    3.33 
  -4   4  11  134.76    3.45 
  -4   4  11  134.13    3.34 
   4  -4 -11  133.50    3.63 
   4   4  11  141.63    3.77 
   4   4  11  138.81    3.65 
   4   4  11  135.49    3.70 
   5   4 -11   83.53    2.13 
   5  -4  11   79.14    2.38 
  -5   4  11   82.20    2.23 
   5  -4  11   79.31    2.36 
   5   4  11   85.94    2.42 
   5   4  11   85.02    2.50 
   5   4  11   81.70    2.43 
   6  -4  11   76.69    2.28 
   6  -4  11   72.30    2.24 
   6   4 -11   74.56    1.95 
  -6   4 -11   65.91    2.09 
   6   4  11   68.17    2.09 
   6   4  11   73.43    2.19 
   6   4  11   67.01    2.06 
   7  -4  11   17.91    0.95 
   7  -4  11   16.41    0.94 
   7   4  11   13.98    0.84 
   7   4  11   15.15    0.91 
   7   4  11   14.38    0.86 
   8  -4  11    7.94    0.71 
   8  -4  11    8.43    0.73 
   8   4  11    7.38    0.67 
   8   4  11    7.49    0.68 
   9  -4  11    1.21    0.50 
   9  -4  11    1.53    0.51 
   9   4  11    1.84    0.49 
   0   5  11   89.64    2.48 
   0   5  11   89.88    2.40 
   0   5 -11   86.07    2.39 
   0  -5  11   84.94    2.39 
   0   5  11   88.84    2.43 
   1   5 -11  230.72    6.19 
   1  -5  11  240.95    6.21 
  -1   5  11  249.40    6.25 
   1   5 -11  244.20    6.07 
  -1   5  11  243.93    6.09 
   1  -5  11  246.52    6.10 
  -1   5  11  247.74    6.20 
  -1   5 -11  235.54    6.06 
   1   5  11  240.39    6.21 
   1   5  11  239.22    6.16 
  -1  -5  11  248.59    6.08 
  -1  -5  11  237.63    5.96 
   1   5  11  243.58    6.06 
   2   5 -11   37.83    1.17 
   2  -5  11   39.41    1.26 
  -2   5  11   38.67    1.26 
  -2   5  11   37.97    1.19 
   2   5 -11   37.96    1.21 
   2  -5  11   39.19    1.25 
  -2  -5  11   37.56    1.09 
   2   5  11   38.33    1.25 
   2   5  11   36.54    1.23 
   2   5  11   38.72    1.29 
  -2  -5  11   38.37    1.08 
   3  -5  11   38.74    1.31 
  -3   5  11   41.52    1.22 
  -3   5  11   39.90    1.22 
   3   5 -11   40.44    1.20 
   3  -5  11   40.57    1.33 
  -3   5  11   38.80    1.28 
   3   5 -11   41.12    1.23 
   3   5  11   37.65    1.30 
   3   5  11   37.34    1.23 
   3   5  11   34.13    1.22 
  -4   5  11    0.55    0.18 
   4   5 -11    0.61    0.19 
  -4   5  11    0.79    0.24 
   4  -5  11    0.65    0.29 
   4   5 -11    0.87    0.20 
   4  -5  11    0.83    0.30 
  -4   5  11    0.50    0.18 
   4   5  11    2.01    0.34 
   4   5  11    2.18    0.37 
   4   5  11    2.24    0.35 
   5  -5  11    3.10    0.44 
   5   5 -11    3.86    0.29 
  -5   5  11    4.29    0.37 
   5   5 -11    3.59    0.29 
   5  -5  11    3.82    0.45 
   5   5  11    2.41    0.42 
   5   5  11    2.81    0.39 
   5   5  11    1.80    0.35 
   6  -5  11   19.23    0.96 
   6   5 -11   20.41    0.67 
   6  -5  11   18.35    0.95 
   6   5  11   14.13    0.80 
   6   5  11   13.83    0.79 
   6   5  11   13.56    0.83 
  -6   5 -11   14.09    0.79 
   7  -5  11   45.76    1.63 
   7  -5  11   45.39    1.63 
   7   5 -11   44.54    1.23 
   7   5  11   39.70    1.52 
  -7   5 -11   39.58    1.58 
   7   5  11   40.66    1.46 
   7   5  11   38.96    1.45 
   8  -5  11   39.04    1.56 
   8  -5  11   41.78    1.61 
   8   5  11   34.27    1.38 
   8   5  11   34.69    1.40 
   9  -5  11   22.92    1.24 
   9  -5  11   23.12    1.27 
   9   5  11   22.33    1.16 
   0  -6  11    6.56    0.43 
   0   6  11    4.71    0.45 
   0   6  11    5.61    0.45 
   0   6  11    5.78    0.46 
   0   6 -11    5.87    0.44 
   1   6 -11   26.38    0.91 
  -1   6  11   24.88    0.97 
   1  -6  11   25.37    0.92 
  -1   6  11   25.72    0.92 
   1  -6  11   26.76    0.94 
  -1   6  11   25.82    0.93 
  -1  -6  11   24.63    0.81 
  -1  -6  11   22.37    0.79 
   1   6  11   23.52    0.90 
   1   6  11   23.60    0.94 
  -1   6 -11   23.66    0.88 
   1   6  11   23.34    0.90 
   2  -6  11   19.06    0.78 
   2  -6  11   18.49    0.78 
  -2   6  11   18.31    0.73 
  -2   6  11   18.74    0.78 
   2   6 -11   17.82    0.73 
   2   6 -11   17.65    0.70 
  -2  -6  11   21.65    0.69 
   2   6  11   21.50    0.86 
  -2  -6  11   20.45    0.70 
   2   6  11   21.46    0.86 
   2   6  11   20.20    0.89 
  -3   6  11   89.62    2.45 
  -3   6  11   86.97    2.51 
   3   6 -11   89.14    2.39 
   3  -6  11   91.23    2.56 
   3   6 -11   88.21    2.45 
   3  -6  11   93.38    2.53 
  -3   6  11   90.20    2.43 
   3   6  11   85.36    2.48 
   3   6  11   84.02    2.42 
   3   6  11   84.91    2.40 
   4   6 -11   27.31    0.91 
   4  -6  11   25.80    1.08 
  -4   6  11   29.22    0.94 
   4   6 -11   28.32    0.90 
   4  -6  11   29.15    1.09 
  -4   6  11   28.51    1.02 
   4   6  11   29.03    1.10 
   4   6  11   29.10    1.11 
   4   6  11   30.49    1.18 
   5   6 -11   81.52    2.11 
   5  -6  11   80.39    2.36 
   5   6 -11   79.22    2.12 
  -5   6  11   78.71    2.27 
  -5   6  11   78.81    2.10 
   5  -6  11   77.40    2.38 
   5   6  11   80.51    2.43 
   5   6  11   76.98    2.32 
   5   6  11   77.23    2.35 
  -5   6 -11   81.53    2.37 
   6  -6  11   10.79    0.80 
   6  -6  11   10.86    0.78 
   6   6 -11   11.14    0.49 
   6   6  11   11.88    0.76 
   6   6  11   12.54    0.83 
   6   6  11   11.87    0.76 
  -6   6 -11   12.74    0.77 
   7  -6  11    5.66    0.61 
   7   6 -11    4.72    0.34 
   7  -6  11    4.87    0.60 
   7   6  11    4.83    0.62 
  -7   6 -11    6.34    0.70 
   7   6  11    4.35    0.54 
   7   6  11    5.49    0.57 
   8  -6  11    0.53    0.46 
   8  -6  11    0.66    0.46 
   8   6  11    0.86    0.43 
   8   6  11    0.98    0.42 
   8   6  11    1.19    0.47 
   9  -6  11    3.70    0.65 
   9  -6  11    4.36    0.65 
   9   6  11    4.36    0.61 
   0   7  11   68.90    1.96 
   0   7  11   67.21    1.98 
   0   7  11   68.43    2.03 
   0   7 -11   66.18    1.93 
   0  -7  11   66.11    1.91 
  -1   7  11  110.41    2.95 
   1  -7  11  112.99    2.98 
  -1   7  11  110.93    3.04 
  -1   7  11  106.61    2.98 
   1   7 -11  102.69    2.90 
   1  -7  11  111.94    2.93 
  -1   7 -11  112.49    3.09 
   1   7  11  116.32    3.12 
   1   7  11  112.46    3.20 
  -1  -7  11  117.01    3.02 
  -1  -7  11  119.11    3.00 
   1   7  11  111.68    3.14 
   2  -7  11   51.91    1.59 
  -2   7  11   47.94    1.54 
   2   7 -11   51.84    1.53 
  -2   7  11   49.35    1.54 
   2  -7  11   50.99    1.60 
  -2   7  11   53.27    1.62 
   2   7 -11   53.00    1.52 
   2   7 -11   49.93    1.56 
   2   7  11   55.71    1.76 
   2   7  11   54.28    1.77 
  -2  -7  11   57.73    1.58 
  -2  -7  11   59.49    1.61 
   2   7  11   63.38    1.86 
  -3   7  11   28.43    1.00 
   3   7 -11   29.50    0.97 
   3  -7  11   29.66    1.10 
  -3   7  11   28.11    1.06 
  -3   7  11   27.67    0.99 
   3  -7  11   28.38    1.10 
   3   7 -11   29.23    0.97 
   3   7  11   37.54    1.31 
  -3   7 -11   39.09    1.33 
   3   7  11   37.04    1.31 
   3   7  11   38.76    1.37 
   4  -7  11    4.79    0.50 
  -4   7  11    5.26    0.40 
   4  -7  11    5.05    0.52 
   4   7 -11    5.00    0.40 
   4   7 -11    5.58    0.39 
  -4   7  11    5.14    0.47 
   4   7  11   10.20    0.66 
  -4   7 -11   10.67    0.68 
   4   7  11    9.59    0.65 
   4   7  11   10.48    0.72 
   5   7 -11   15.14    0.62 
  -5   7  11   14.27    0.60 
   5  -7  11   14.53    0.86 
   5  -7  11   14.63    0.84 
   5   7 -11   14.38    0.57 
   5   7  11   14.20    0.78 
   5   7  11   13.72    0.83 
  -5   7 -11   13.33    0.81 
   5   7  11   12.47    0.77 
   6   7 -11    4.85    0.29 
   6   7 -11    5.06    0.39 
   6  -7  11    5.38    0.60 
   6  -7  11    4.37    0.56 
   6   7  11    4.83    0.55 
   6   7  11    6.14    0.59 
  -6   7 -11    4.41    0.54 
   6   7  11    6.28    0.64 
   7  -7  11   47.73    1.80 
   7  -7  11   51.76    1.80 
   7   7 -11   50.02    1.37 
   7   7  11   48.99    1.70 
   7   7  11   47.46    1.77 
   7   7  11   47.86    1.69 
   8  -7  11    3.50    0.60 
   8  -7  11    5.25    0.65 
   8   7  11    7.62    0.70 
   8   7  11    6.33    0.65 
   8   7  11    6.02    0.69 
   9  -7  11   40.17    1.68 
   9  -7  11   40.77    1.70 
   9   7  11   41.05    1.65 
   0   8  11    1.49    0.29 
   0   8  11    1.22    0.27 
   0   8 -11    1.74    0.31 
   0  -8  11    1.29    0.26 
   0   8  11    1.66    0.34 
   0   8 -11    1.44    0.28 
  -1   8  11   26.59    0.97 
   1   8 -11   23.66    0.91 
  -1   8  11   25.44    1.01 
   1  -8  11   25.30    0.95 
   1   8 -11   25.05    0.93 
  -1   8  11   24.61    0.96 
   1  -8  11   25.57    0.95 
   1   8  11   17.71    0.80 
   1   8  11   16.89    0.83 
  -1   8 -11   15.73    0.77 
  -1  -8  11   17.19    0.68 
   1   8  11   17.42    0.79 
  -1  -8  11   16.87    0.68 
  -1   8 -11   16.77    0.78 
   2   8 -11    4.17    0.39 
   2  -8  11    3.48    0.40 
  -2   8  11    5.08    0.43 
   2   8 -11    5.15    0.42 
   2  -8  11    4.45    0.43 
  -2   8  11    4.51    0.41 
  -2   8  11    3.67    0.43 
  -2  -8  11    1.75    0.24 
   2   8  11    1.33    0.31 
  -2  -8  11    1.90    0.22 
   2   8  11    1.36    0.30 
  -2   8 -11    1.49    0.34 
   2   8  11    1.49    0.33 
   3  -8  11  140.27    3.82 
   3   8 -11  137.82    3.64 
  -3   8  11  145.23    3.76 
  -3   8  11  141.07    3.82 
   3  -8  11  142.99    3.76 
   3   8 -11  135.23    3.68 
   3   8  11  136.97    3.85 
   3   8  11  138.78    3.76 
  -3   8 -11  140.62    3.81 
   3   8  11  141.01    3.81 
   4   8 -11    8.00    0.47 
  -4   8  11    7.87    0.53 
   4   8 -11    8.05    0.49 
  -4   8  11    7.85    0.59 
   4  -8  11    7.77    0.62 
   4  -8  11    7.79    0.64 
   4   8  11    7.24    0.60 
   4   8  11    6.31    0.58 
   4   8  11    6.61    0.56 
  -4   8 -11    6.35    0.58 
   5  -8  11  123.73    3.52 
   5   8 -11  120.73    3.22 
   5  -8  11  122.43    3.46 
   5   8 -11  125.83    3.24 
  -5   8  11  130.05    3.31 
   5   8  11  119.56    3.53 
   5   8  11  123.87    3.45 
   5   8  11  125.33    3.43 
  -5   8 -11  124.29    3.50 
   6   8 -11    6.02    0.44 
   6  -8  11    6.26    0.62 
   6   8 -11    6.23    0.35 
   6  -8  11    6.36    0.65 
  -6   8 -11    9.36    0.75 
   6   8  11    8.45    0.74 
   6   8  11    9.62    0.74 
   6   8  11    7.80    0.66 
   7  -8  11   24.05    1.21 
   7  -8  11   24.39    1.21 
   7   8 -11   23.38    0.80 
   7   8  11   29.06    1.27 
   7   8  11   28.92    1.33 
   7   8  11   28.58    1.26 
   8  -8  11    3.22    0.60 
   8  -8  11    2.79    0.60 
   8   8  11    2.97    0.55 
   8   8  11    3.58    0.62 
   9  -8  11    4.54    0.72 
   9  -8  11    4.48    0.70 
   9   8  11    3.06    0.66 
   0   9  11   11.59    0.69 
   0   9 -11   11.94    0.67 
   0   9  11   11.69    0.72 
   0  -9  11   12.87    0.62 
   0   9  11   12.49    0.68 
   1  -9  11  158.81    4.17 
  -1   9  11  159.70    4.20 
  -1   9  11  158.17    4.16 
  -1   9  11  155.03    4.27 
   1   9 -11  159.02    4.17 
   1   9 -11  154.43    4.20 
   1  -9  11  155.32    4.11 
   1   9  11  169.45    4.47 
   1   9  11  169.83    4.53 
  -1  -9  11  167.63    4.33 
  -1   9 -11  162.83    4.45 
   1   9  11  167.58    4.42 
   2   9 -11    8.91    0.58 
   2   9 -11    7.95    0.55 
  -2   9  11    7.85    0.57 
   2  -9  11    8.24    0.60 
   2  -9  11    8.23    0.60 
  -2   9  11    8.19    0.57 
  -2   9  11    8.04    0.64 
   2   9  11    4.14    0.44 
  -2  -9  11    5.37    0.35 
   2   9  11    4.57    0.51 
  -2   9 -11    4.27    0.45 
   2   9  11    5.37    0.50 
  -3   9  11   31.67    1.21 
  -3   9  11   30.84    1.12 
   3  -9  11   31.98    1.20 
   3   9 -11   29.13    1.06 
   3  -9  11   32.13    1.21 
  -3   9 -11   41.08    1.44 
   3   9  11   37.82    1.46 
   3   9  11   42.02    1.44 
   3   9  11   40.40    1.43 
  -4   9  11   10.39    0.69 
  -4   9  11    9.94    0.62 
   4  -9  11   10.83    0.77 
   4   9 -11   10.51    0.56 
   4  -9  11   10.66    0.74 
  -4   9 -11    8.41    0.69 
   4   9  11    7.04    0.62 
   4   9  11    5.83    0.60 
   4   9  11    7.31    0.62 
   5  -9  11   18.90    1.00 
   5   9 -11   18.29    0.71 
  -5   9  11   17.55    0.77 
   5  -9  11   17.15    0.98 
   5   9  11   14.13    0.84 
   5   9  11   12.89    0.89 
  -5   9 -11   12.77    0.84 
   5   9  11   14.66    0.87 
   6   9 -11    0.84    0.21 
   6  -9  11    0.64    0.44 
   6  -9  11    1.19    0.44 
   6   9  11   -0.13    0.33 
  -6   9 -11   -0.52    0.34 
   6   9  11    0.14    0.40 
   6   9  11   -0.10    0.33 
   7  -9  11   64.94    2.23 
   7  -9  11   67.71    2.22 
   7   9  11   57.30    1.99 
   7   9  11   58.27    2.00 
   7   9  11   58.76    2.08 
   8  -9  11    0.74    0.52 
   8  -9  11    0.36    0.49 
   8   9  11    0.45    0.46 
   8   9  11    0.69    0.44 
   9  -9  11   54.73    2.06 
   9  -9  11   53.89    2.08 
   9   9  11   48.68    1.91 
   0  10  11   17.25    0.85 
   0  10  11   18.24    0.92 
   0  10  11   16.14    0.83 
   0  10 -11   19.34    0.87 
   0 -10  11   19.43    0.80 
   1  10 -11   26.49    1.02 
  -1  10  11   25.65    1.03 
  -1  10  11   24.62    1.10 
   1 -10  11   24.92    0.99 
   1 -10  11   26.05    1.00 
  -1  10  11   25.95    1.06 
   1  10  11   18.62    0.87 
  -1 -10  11   17.53    0.73 
   1  10  11   16.87    0.87 
  -1  10 -11   17.24    0.86 
   1  10  11   16.95    0.90 
  -2  10  11   24.66    1.01 
  -2  10  11   25.12    1.08 
   2 -10  11   27.00    1.05 
   2 -10  11   25.20    1.04 
   2  10 -11   25.29    0.98 
  -2 -10  11   23.59    0.79 
   2  10  11   23.19    1.01 
  -2  10 -11   24.80    1.04 
   2  10  11   21.37    1.04 
   2  10  11   23.98    1.02 
  -3  10  11   69.61    2.14 
   3 -10  11   69.15    2.10 
   3 -10  11   67.09    2.11 
  -3  10  11   68.68    2.05 
   3  10 -11   67.21    1.99 
   3  10  11   62.49    1.97 
   3  10  11   63.66    2.05 
   3  10  11   61.78    1.96 
  -3  10 -11   59.14    1.97 
   4 -10  11    5.49    0.58 
   4 -10  11    4.19    0.53 
  -4  10  11    4.43    0.51 
  -4  10  11    5.59    0.50 
   4  10 -11    5.44    0.44 
  -4  10 -11    2.70    0.48 
   4  10  11    2.96    0.49 
   4  10  11    1.48    0.40 
   4  10  11    2.57    0.44 
   5 -10  11   70.07    2.22 
   5  10 -11   66.77    1.96 
  -5  10  11   71.06    2.05 
   5 -10  11   69.58    2.23 
   5  10  11   73.54    2.28 
  -5  10 -11   70.57    2.28 
   5  10  11   68.92    2.23 
   5  10  11   73.94    2.34 
   6 -10  11    4.94    0.63 
   6  10 -11    5.13    0.41 
   6 -10  11    7.04    0.70 
   6  10  11    4.81    0.57 
   6  10  11    4.56    0.58 
   6  10  11    4.78    0.65 
  -6  10 -11    4.46    0.58 
   7 -10  11   12.21    0.95 
   7 -10  11    9.90    0.85 
   7  10  11   14.00    1.03 
   7  10  11   14.45    0.98 
   7  10  11   12.72    0.94 
   8 -10  11    3.56    0.65 
   8 -10  11    3.47    0.66 
   8  10  11    3.89    0.67 
   8  10  11    3.28    0.59 
   9 -10  11    4.89    0.73 
   0  11  11   30.25    1.19 
   0  11 -11   29.54    1.15 
   0 -11  11   28.32    1.07 
   0  11  11   30.33    1.24 
   1 -11  11  108.12    2.97 
   1  11 -11  106.61    2.99 
  -1  11  11  109.99    3.04 
  -1  11  11  100.10    3.08 
   1  11  11  106.93    2.97 
   1  11  11  103.34    3.04 
  -1 -11  11  103.00    2.80 
   1  11  11  100.61    2.96 
  -1  11 -11  102.27    2.96 
  -2  11  11   14.70    0.79 
  -2  11  11   14.37    0.84 
   2 -11  11   14.55    0.80 
   2  11 -11   14.66    0.77 
  -2 -11  11   18.27    0.69 
  -2  11 -11   17.88    0.93 
   2  11  11   18.47    0.96 
   2  11  11   18.25    0.94 
   2  11  11   17.76    0.91 
  -3  11  11   19.45    0.92 
   3  11 -11   19.76    0.88 
  -3  11  11   20.98    0.99 
   3 -11  11   20.45    0.98 
   3 -11  11   20.40    0.98 
  -3  11 -11   16.39    0.93 
   3  11  11   16.43    0.96 
   3  11  11   18.02    0.93 
   3  11  11   18.27    0.93 
  -4  11  11   11.07    0.71 
   4  11 -11   10.08    0.62 
  -4  11  11   13.00    0.78 
   4 -11  11   11.51    0.84 
   4 -11  11   11.13    0.80 
   4  11  11   11.35    0.86 
  -4  11 -11    9.50    0.79 
   4  11  11   10.78    0.79 
   4  11  11   12.48    0.81 
   5 -11  11    3.29    0.55 
   5  11 -11    3.27    0.38 
   5 -11  11    3.65    0.54 
  -5  11  11    3.89    0.44 
  -5  11 -11    4.33    0.58 
   5  11  11    2.82    0.53 
   5  11  11    2.50    0.49 
   5  11  11    3.40    0.51 
   6 -11  11    8.22    0.78 
   6  11 -11    8.89    0.53 
   6 -11  11    9.20    0.79 
   6  11  11    7.21    0.70 
   6  11  11    7.41    0.70 
   6  11  11    6.86    0.75 
  -6  11 -11    7.96    0.76 
   7 -11  11   29.61    1.37 
   7 -11  11   26.84    1.38 
   7  11  11   30.38    1.37 
   7  11  11   31.06    1.49 
   7  11  11   31.79    1.40 
   8 -11  11    5.51    0.73 
   8 -11  11    5.65    0.75 
   8  11  11    6.17    0.78 
   8  11  11    5.16    0.71 
   0 -12  11   11.84    0.69 
   0  12  11   11.24    0.82 
   0  12 -11   12.99    0.77 
   1  12 -11   19.91    0.91 
   1 -12  11   17.89    0.89 
  -1  12  11   18.92    0.99 
  -1  12 -11   18.46    0.95 
  -1 -12  11   17.36    0.77 
   1  12  11   17.32    0.93 
   1  12  11   17.97    0.98 
  -2  12  11   14.06    0.87 
   2  12 -11   14.43    0.80 
   2 -12  11   16.00    0.85 
  -2 -12  11   17.91    0.70 
   2  12  11   16.47    0.97 
   2  12  11   18.82    0.95 
  -2  12 -11   17.68    0.94 
   2  12  11   16.91    0.94 
   3  12 -11  104.38    2.95 
  -3  12  11  104.17    3.01 
  -3  12  11  107.06    3.10 
   3 -12  11  104.97    3.03 
   3  12  11   99.60    2.96 
   3  12  11   98.04    2.95 
   3  12  11  101.50    3.05 
  -3  12 -11  101.75    2.99 
  -4  12  11   39.27    1.38 
  -4  12  11   37.01    1.45 
   4  12 -11   37.05    1.30 
   4 -12  11   37.68    1.46 
   4  12  11   42.66    1.61 
  -4  12 -11   43.87    1.64 
   4  12  11   45.55    1.62 
   4  12  11   43.69    1.68 
   5 -12  11   73.15    2.35 
   5  12 -11   71.03    2.11 
  -5  12  11   73.40    2.21 
   5  12  11   71.51    2.30 
   5  12  11   69.46    2.30 
  -5  12 -11   72.50    2.34 
   5  12  11   69.40    2.39 
   6  12 -11   19.18    0.83 
   6 -12  11   20.87    1.16 
  -6  12 -11   23.55    1.21 
   6  12  11   23.00    1.26 
   6  12  11   21.24    1.14 
   6  12  11   21.46    1.18 
   7 -12  11   21.03    1.24 
   7  12  11   19.44    1.14 
   7  12  11   20.69    1.26 
   7  12  11   18.99    1.15 
   0  13  11   64.79    2.17 
   0 -13  11   63.50    1.94 
   0  13 -11   64.30    2.06 
   1  13 -11   53.48    1.81 
  -1  13  11   55.53    1.91 
   1 -13  11   53.83    1.74 
   1  13  11   61.12    2.02 
   1  13  11   63.54    2.10 
  -1 -13  11   57.78    1.78 
  -1  13 -11   59.78    1.99 
   2 -13  11   48.04    1.65 
  -2  13  11   47.44    1.73 
   2  13 -11   48.68    1.64 
  -2  13 -11   45.65    1.66 
  -2 -13  11   45.25    1.37 
   2  13  11   46.86    1.68 
   2  13  11   46.70    1.73 
   3  13 -11   14.72    0.83 
  -3  13  11   15.88    0.96 
   3 -13  11   15.16    0.93 
   3  13  11   13.58    0.89 
   3  13  11   13.73    0.95 
   3  13  11   13.33    0.90 
  -3  13 -11   13.27    0.91 
  -4  13  11    4.69    0.53 
  -4  13  11    4.39    0.59 
   4  13 -11    3.67    0.46 
   4 -13  11    4.22    0.57 
   4  13  11    3.98    0.55 
   4  13  11    2.71    0.50 
  -4  13 -11    2.88    0.55 
   4  13  11    2.36    0.52 
   5  13 -11    6.50    0.54 
  -5  13  11    5.90    0.58 
   5 -13  11    7.66    0.72 
   5  13  11    6.25    0.69 
   5  13  11    6.84    0.76 
   5  13  11    6.84    0.69 
  -5  13 -11    5.68    0.69 
   6  13 -11   10.16    0.68 
   6 -13  11   11.42    0.90 
   6  13  11   10.64    0.88 
   6  13  11   11.12    0.89 
   6  13  11   10.08    0.90 
  -6  13 -11   11.89    0.94 
   7 -13  11   14.65    1.12 
   7  13  11   12.86    1.04 
   7  13  11   11.93    1.03 
   7  13  11   11.71    1.04 
   0  14  11    0.30    0.41 
   0 -14  11    0.21    0.32 
   0  14 -11    0.12    0.36 
   1 -14  11   17.54    0.92 
   1  14 -11   19.20    1.00 
  -1  14  11   17.24    1.04 
  -1  14 -11   21.09    1.12 
  -1 -14  11   22.94    0.92 
   1  14  11   22.13    1.17 
  -2  14  11   33.21    1.44 
   2 -14  11   37.27    1.38 
   2  14 -11   34.32    1.36 
   2  14  11   33.85    1.46 
  -2  14 -11   34.20    1.42 
  -2 -14  11   32.75    1.10 
   2  14  11   36.18    1.46 
   3 -14  11   23.05    1.10 
   3  14 -11   20.84    1.01 
  -3  14  11   19.33    1.10 
   3  14  11   29.96    1.35 
  -3  14 -11   26.30    1.29 
   3  14  11   29.08    1.36 
   3  14  11   30.07    1.30 
  -4  14  11   46.97    1.70 
   4 -14  11   50.41    1.81 
  -4  14  11   48.00    1.81 
   4  14 -11   48.77    1.64 
   4  14  11   41.05    1.63 
   4  14  11   44.92    1.75 
  -4  14 -11   40.31    1.68 
   4  14  11   41.79    1.63 
   5  14 -11   15.76    0.83 
   5 -14  11   13.74    1.04 
  -5  14  11   15.00    0.90 
   5  14  11   14.46    1.03 
  -5  14 -11   14.31    1.07 
   5  14  11   18.53    1.12 
   5  14  11   17.15    1.11 
   6 -14  11   28.52    1.44 
   6  14  11   31.62    1.53 
   6  14  11   29.33    1.42 
  -6  14 -11   29.44    1.48 
   6  14  11   31.24    1.47 
   0  15  11   62.11    2.21 
   0  15 -11   65.77    2.14 
   0 -15  11   62.34    1.95 
   1  15 -11   27.59    1.25 
   1 -15  11   28.71    1.19 
  -1  15  11   28.02    1.33 
   1  15  11   24.54    1.28 
  -1  15 -11   24.69    1.21 
  -1 -15  11   25.01    0.99 
   2  15 -11   19.18    1.01 
  -2  15  11   18.01    1.12 
   2 -15  11   18.73    1.01 
   2  15  11   18.41    1.11 
  -2  15 -11   19.23    1.09 
   2  15  11   17.39    1.09 
  -3  15  11    7.41    0.74 
   3 -15  11    7.55    0.70 
   3  15 -11    7.28    0.64 
   3  15  11    6.18    0.71 
   3  15  11    6.29    0.75 
  -3  15 -11    5.27    0.67 
   4 -15  11   -0.13    0.46 
   4  15 -11    0.14    0.35 
  -4  15  11   -0.27    0.41 
  -4  15  11   -0.01    0.39 
   4  15  11    0.02    0.47 
   4  15  11    0.33    0.45 
  -4  15 -11    0.19    0.48 
   4  15  11    0.13    0.41 
   5 -15  11    4.04    0.66 
  -5  15  11    2.84    0.52 
   5  15 -11    3.51    0.49 
   5  15  11    4.80    0.65 
   5  15  11    3.63    0.68 
   5  15  11    3.52    0.64 
  -5  15 -11    4.18    0.69 
  -6  15 -11   12.83    1.06 
   6  15  11   12.02    0.99 
   6  15  11   13.60    1.06 
   0 -16  11    1.91    0.42 
   0  16  11    2.10    0.58 
   0  16 -11    1.46    0.47 
   1 -16  11    3.66    0.52 
   1  16 -11    3.77    0.56 
  -1  16  11    3.92    0.62 
   1  16  11    1.72    0.55 
  -1 -16  11    2.00    0.39 
  -1  16 -11    1.77    0.51 
  -2  16  11   26.46    1.35 
   2  16 -11   24.01    1.18 
   2 -16  11   22.61    1.15 
   2  16  11   35.25    1.51 
   2  16  11   32.38    1.52 
  -2  16 -11   32.46    1.48 
   3  16 -11    7.44    0.67 
   3 -16  11    7.51    0.72 
  -3  16  11    7.60    0.78 
   3  16  11    6.98    0.80 
  -3  16 -11    6.46    0.74 
   3  16  11    8.08    0.78 
   4  16 -11   68.17    2.22 
  -4  16  11   71.14    2.32 
   4 -16  11   69.79    2.33 
   4  16  11   66.65    2.48 
  -4  16 -11   71.94    2.44 
   4  16  11   69.57    2.37 
   4  16  11   67.84    2.39 
  -5  16  11    8.61    0.75 
   5  16 -11    8.99    0.72 
   5  16  11    8.32    1.01 
  -5  16 -11    8.05    0.85 
   5  16  11    8.93    0.85 
   5  16  11    7.10    0.77 
  -6  16 -11   25.88    1.39 
   6  16  11   24.08    1.38 
   0  17  11   81.72    2.78 
   0 -17  11   83.05    2.45 
   0  17 -11   82.09    2.67 
  -1  17  11    2.80    0.63 
   1 -17  11    2.31    0.48 
   1  17 -11    2.87    0.55 
   1  17  11    0.84    0.55 
  -1  17 -11    2.17    0.54 
  -1 -17  11    1.48    0.38 
  -2  17  11   56.12    2.10 
   2  17 -11   55.53    1.96 
   2 -17  11   52.61    1.88 
  -2  17 -11   51.17    1.95 
   2  17  11   48.73    1.99 
  -3  17  11    1.02    0.53 
   3 -17  11    1.21    0.52 
   3  17 -11    1.09    0.44 
   3  17  11    1.94    0.55 
   3  17  11    1.34    0.58 
  -3  17 -11    2.14    0.61 
  -4  17  11    0.45    0.47 
   4  17 -11    0.64    0.44 
   4  17  11   -0.08    0.48 
  -4  17 -11    1.05    0.55 
   4  17  11    0.64    0.52 
  -5  17  11    0.50    0.47 
   5  17 -11    0.55    0.42 
   5  17  11    0.35    0.52 
  -5  17 -11    0.84    0.57 
   5  17  11    0.44    0.50 
   0 -18  11    1.18    0.44 
   0  18 -11    1.66    0.55 
   0  18  11    1.56    0.59 
   1  18 -11    0.82    0.49 
   1 -18  11    1.69    0.49 
  -1  18  11    1.10    0.56 
  -1  18 -11    2.21    0.60 
   1  18  11    1.96    0.64 
   2  18 -11   21.50    1.22 
  -2  18  11   24.29    1.37 
   2 -18  11   22.20    1.20 
  -2  18 -11   20.18    1.27 
   2  18  11   19.79    1.35 
  -3  18  11    0.85    0.55 
  -3  18 -11    1.49    0.64 
   4  18  11   36.87    1.72 
   0 -19  11   40.46    1.49 
  -1  19  11    0.18    0.54 
   1 -19  11    0.45    0.45 
  -2  19  11   13.38    1.09 
  -3  19  11    0.25    0.50 
   0   0  12  207.23    5.32 
   0   0  12  213.42    5.43 
   0   0  12  211.07    5.47 
   0   0 -12  218.39    5.34 
   1   0 -12   26.79    0.89 
   1   0  12   26.03    0.92 
  -1   0  12   26.65    0.86 
   1   0  12   26.56    0.92 
  -1   0  12   27.04    0.92 
  -1   0 -12   25.41    0.91 
  -1   0  12   27.59    0.87 
   1   0  12   26.28    0.97 
   2   0 -12   78.05    2.06 
  -2   0  12   74.03    2.02 
   2   0  12   74.73    2.14 
   2   0  12   77.17    2.20 
  -2   0  12   72.92    2.08 
   2   0  12   78.46    2.13 
   2   0 -12   74.02    2.09 
  -2   0  12   75.20    2.00 
  -3   0  12   92.66    2.31 
   3   0  12   93.59    2.51 
   3   0 -12   85.99    2.43 
   3   0  12   87.16    2.52 
  -3   0  12   89.87    2.30 
   3   0  12   93.16    2.59 
  -3   0  12   87.77    2.41 
   3   0 -12   89.65    2.39 
   4   0  12    1.33    0.30 
   4   0 -12    2.02    0.25 
   4   0  12    1.92    0.35 
   4   0 -12    1.32    0.22 
   5   0  12   66.89    2.05 
   5   0  12   68.57    2.04 
   6   0  12   28.57    1.15 
   6   0  12   28.48    1.14 
   7   0  12   18.76    0.96 
   7   0  12   18.73    0.96 
   8   0  12   50.34    1.80 
   8   0  12   51.10    1.77 
   9   0  12    0.21    0.45 
   9   0  12   -0.05    0.42 
   0  -1  12   19.12    0.72 
   0  -1  12   21.27    0.79 
   0  -1 -12   19.34    0.75 
   0   1  12   18.83    0.72 
   0   1  12   19.37    0.78 
   0   1 -12   20.00    0.75 
   0   1  12   20.51    0.75 
   0  -1  12   19.52    0.73 
   1   1 -12   89.41    2.51 
   1  -1  12   95.59    2.59 
  -1   1  12   86.02    2.51 
   1  -1  12   91.15    2.48 
   1   1 -12   93.60    2.46 
   1  -1  12   91.53    2.51 
  -1  -1 -12   95.06    2.50 
  -1   1  12   94.26    2.48 
   1   1  12   75.89    2.04 
  -1  -1  12   72.20    2.06 
  -1   1 -12   74.20    2.04 
  -1  -1  12   70.23    1.99 
   1   1  12   71.21    2.05 
   1   1  12   76.47    2.13 
   1  -1 -12   74.87    2.02 
  -1  -1  12   71.56    1.97 
  -2   1  12   82.96    2.19 
  -2   1  12   82.21    2.17 
   2   1 -12   80.32    2.25 
   2  -1  12   82.49    2.27 
   2   1 -12   83.12    2.20 
   2  -1  12   83.56    2.30 
  -2   1  12   77.78    2.16 
  -2   1  12   84.53    2.27 
   2   1  12   99.30    2.74 
   2   1  12   95.69    2.64 
  -2  -1  12   98.91    2.55 
   2   1  12   97.12    2.67 
   2  -1 -12   95.39    2.63 
   2  -1 -12   99.16    2.59 
  -2  -1  12   96.67    2.62 
  -2  -1  12   98.09    2.51 
   3  -1  12    6.28    0.47 
   3  -1  12    5.61    0.45 
   3   1 -12    5.46    0.37 
  -3   1  12    6.01    0.33 
  -3   1  12    5.63    0.31 
   3   1 -12    5.58    0.38 
  -3   1  12    4.39    0.27 
  -3   1  12    5.66    0.37 
   3   1  12    3.96    0.43 
   3  -1 -12    4.20    0.34 
  -3  -1  12    3.38    0.20 
  -3  -1  12    4.27    0.23 
   3   1  12    3.93    0.39 
   3  -1 -12    4.09    0.33 
   3   1  12    5.31    0.44 
   4  -1  12  135.47    3.54 
   4   1 -12  132.71    3.40 
  -4   1  12  134.27    3.44 
   4   1 -12  130.43    3.45 
   4  -1  12  130.88    3.59 
   4   1  12  156.14    4.12 
   4  -1 -12  154.41    4.00 
   4   1  12  151.34    4.16 
   4   1  12  154.97    4.06 
   5  -1  12    3.12    0.41 
   5  -1  12    2.06    0.36 
   5   1 -12    2.42    0.27 
   5   1  12    6.28    0.53 
   5   1  12    6.16    0.53 
   6  -1  12   58.52    1.84 
   6  -1  12   56.79    1.85 
   6   1  12   61.86    2.00 
   6   1  12   66.28    1.99 
   7  -1  12   28.19    1.22 
   7  -1  12   30.52    1.22 
   7   1  12   38.02    1.41 
   7   1  12   38.41    1.43 
   8  -1  12    2.75    0.51 
   8  -1  12    2.55    0.51 
   8   1  12    3.01    0.50 
   8   1  12    2.52    0.49 
   9  -1  12   27.11    1.31 
   9  -1  12   27.25    1.32 
   9   1  12   25.31    1.22 
   9   1  12   24.69    1.24 
   0  -2 -12  251.42    6.35 
   0  -2  12  259.24    6.32 
   0   2  12  255.14    6.34 
   0   2  12  261.06    6.52 
   0   2 -12  250.63    6.34 
   0   2  12  253.86    6.46 
   0  -2  12  251.81    6.44 
  -1   2  12   30.23    0.97 
  -1   2  12   30.18    1.03 
   1   2 -12   30.42    1.00 
  -1  -2 -12   28.98    1.00 
   1  -2  12   29.80    1.01 
   1  -2  12   30.50    1.00 
   1   2 -12   29.15    0.97 
   1   2  12   29.41    1.05 
   1   2  12   28.62    0.99 
  -1   2 -12   28.29    0.98 
  -1  -2  12   28.93    0.91 
  -1  -2  12   29.15    0.92 
   1  -2 -12   28.98    0.97 
   1   2  12   29.83    0.99 
   2   2 -12  160.92    4.09 
   2   2 -12  159.73    4.01 
  -2   2  12  160.12    4.05 
  -2   2  12  160.93    4.12 
   2  -2  12  155.94    4.14 
   2  -2  12  158.02    4.07 
  -2   2  12  154.84    3.97 
  -2   2  12  150.13    4.01 
   2   2  12  158.88    4.12 
   2   2  12  160.71    4.19 
   2   2  12  159.22    4.24 
  -2  -2  12  164.38    3.99 
  -2  -2  12  153.49    4.04 
   2  -2 -12  155.74    4.14 
   2  -2 -12  162.37    4.08 
  -3   2  12   38.12    1.11 
  -3   2  12   40.17    1.21 
   3  -2  12   38.31    1.26 
  -3   2  12   38.36    1.12 
   3   2 -12   38.67    1.16 
   3  -2  12   39.25    1.29 
   3   2 -12   36.97    1.18 
   3   2  12   43.52    1.36 
   3  -2 -12   40.96    1.30 
   3   2  12   44.23    1.44 
   3   2  12   41.25    1.36 
  -4   2  12   33.79    1.06 
   4   2 -12   34.56    1.06 
   4   2 -12   33.66    1.04 
   4  -2  12   33.49    1.19 
   4  -2  12   33.84    1.21 
   4   2  12   36.47    1.22 
   4   2  12   34.11    1.27 
   4  -2 -12   34.45    1.12 
   4   2  12   34.73    1.23 
   5   2 -12   38.67    1.14 
   5  -2  12   37.78    1.33 
   5  -2  12   37.28    1.34 
   5   2  12   41.18    1.47 
   5   2  12   40.36    1.40 
   5   2  12   42.56    1.43 
   6  -2  12   47.45    1.62 
   6  -2  12   47.08    1.59 
   6   2  12   42.09    1.53 
   6   2  12   48.04    1.57 
   7  -2  12    5.52    0.58 
   7  -2  12    7.04    0.64 
   7   2  12    6.80    0.62 
   7   2  12    6.89    0.61 
   8  -2  12   52.22    1.84 
   8  -2  12   51.60    1.82 
   8   2  12   48.98    1.73 
   8   2  12   48.11    1.71 
   9  -2  12    3.95    0.62 
   9  -2  12    3.63    0.60 
   9   2  12    5.35    0.64 
   0   3  12   25.18    0.96 
   0  -3  12   25.91    0.88 
   0   3  12   25.46    0.90 
   0   3  12   26.95    0.91 
   0  -3  12   25.83    0.88 
   0   3 -12   24.96    0.89 
  -1   3  12  109.24    2.89 
   1   3 -12  109.15    2.93 
   1  -3  12  107.69    2.91 
  -1   3  12  109.25    2.95 
  -1  -3 -12  108.58    2.91 
  -1   3  12  105.80    2.84 
   1  -3  12  107.97    2.87 
   1   3 -12  107.69    2.84 
   1   3  12  118.15    3.22 
  -1   3 -12  114.87    3.09 
   1   3  12  118.02    3.11 
  -1  -3  12  118.04    3.07 
  -1  -3  12  117.47    3.03 
   1   3  12  117.28    3.16 
  -2   3  12  116.61    3.16 
   2  -3  12  120.25    3.13 
   2   3 -12  117.98    3.06 
  -2   3  12  115.92    3.05 
   2  -3  12  115.97    3.17 
   2   3 -12  115.44    3.13 
  -2   3  12  121.93    3.10 
  -2  -3  12  121.24    3.02 
   2   3  12  115.97    3.17 
   2   3  12  116.86    3.12 
  -2  -3  12  116.88    2.98 
   2   3  12  113.25    3.21 
  -3   3  12   61.70    1.72 
  -3   3  12   63.37    1.81 
   3  -3  12   61.38    1.87 
   3  -3  12   62.83    1.85 
   3   3 -12   64.85    1.78 
   3   3 -12   63.03    1.74 
  -3   3  12   62.34    1.71 
   3   3  12   54.14    1.63 
   3   3  12   51.81    1.69 
   3   3  12   54.87    1.65 
   3  -3 -12   51.56    1.57 
   4  -3  12  138.26    3.68 
  -4   3  12  142.93    3.43 
   4   3 -12  141.45    3.47 
   4   3 -12  138.37    3.53 
  -4   3  12  133.45    3.56 
  -4   3  12  114.54    3.41 
   4  -3  12  141.59    3.63 
   4   3  12  139.10    3.78 
   4   3  12  143.54    3.85 
   4   3  12  137.36    3.72 
   5  -3  12   39.69    1.37 
   5  -3  12   37.87    1.36 
   5   3 -12   38.42    1.14 
   5   3  12   37.39    1.31 
   5   3  12   37.14    1.32 
   5   3  12   37.48    1.38 
   6  -3  12   57.17    1.86 
   6  -3  12   57.75    1.86 
   6   3 -12   56.64    1.57 
   6   3  12   54.86    1.76 
   6   3  12   53.71    1.75 
   6   3  12   51.56    1.82 
   7  -3  12   17.57    0.97 
   7  -3  12   18.37    0.99 
   7   3  12   12.76    0.85 
   7   3  12   15.62    0.89 
   8  -3  12   10.86    0.86 
   8  -3  12    9.36    0.77 
   8   3  12    8.50    0.73 
   8   3  12    7.29    0.68 
   9  -3  12    8.65    0.80 
   9  -3  12    7.87    0.77 
   9   3  12    5.45    0.64 
   0  -4  12  121.49    3.17 
   0  -4  12  114.17    3.10 
   0   4  12  120.18    3.25 
   0   4  12  123.17    3.16 
   0   4  12  122.36    3.21 
   0   4 -12  115.03    3.14 
  -1   4  12   72.29    1.98 
  -1   4  12   69.15    2.02 
   1  -4  12   72.42    1.98 
  -1   4  12   70.93    1.96 
   1   4 -12   66.31    1.94 
   1  -4  12   67.35    1.98 
   1   4  12   70.03    2.04 
  -1  -4  12   74.82    1.96 
   1   4  12   69.31    2.08 
   1   4  12   70.51    2.02 
  -1   4 -12   70.15    2.01 
  -1  -4  12   70.25    1.93 
  -2   4  12   86.71    2.38 
   2  -4  12   88.78    2.45 
  -2   4  12   88.26    2.47 
   2   4 -12   90.21    2.44 
  -2   4  12   87.06    2.41 
   2  -4  12   89.71    2.48 
   2   4 -12   90.04    2.38 
   2   4  12   93.39    2.71 
  -2  -4  12   98.76    2.49 
   2   4  12   96.22    2.62 
   2   4  12   92.30    2.64 
  -2  -4  12   94.18    2.45 
   3  -4  12   31.85    1.12 
  -3   4  12   27.29    0.97 
   3   4 -12   31.05    1.03 
  -3   4  12   32.14    1.07 
  -3   4  12   30.82    0.99 
   3   4 -12   33.50    1.01 
   3  -4  12   33.71    1.14 
  -3   4  12   31.76    0.99 
   3   4  12   34.03    1.17 
   3   4  12   32.18    1.16 
   3   4  12   32.80    1.22 
   4  -4  12   17.79    0.85 
  -4   4  12   19.50    0.65 
   4  -4  12   18.80    0.87 
  -4   4  12   18.52    0.75 
   4   4 -12   19.51    0.70 
   4   4  12   15.20    0.76 
   4   4  12   14.95    0.81 
   4   4  12   14.75    0.76 
   5  -4  12   16.37    0.87 
   5   4 -12   17.48    0.65 
   5  -4  12   17.05    0.86 
   5   4  12   14.65    0.78 
   5   4  12   13.37    0.81 
   5   4  12   14.08    0.78 
   6  -4  12   49.72    1.70 
   6   4 -12   50.04    1.40 
   6   4 -12   49.51    1.33 
   6  -4  12   50.64    1.71 
   6   4  12   48.50    1.71 
   6   4  12   49.39    1.66 
   6   4  12   49.15    1.64 
   7  -4  12   23.66    1.14 
   7  -4  12   24.30    1.13 
   7   4  12   25.68    1.15 
   7   4  12   26.29    1.22 
   7   4  12   25.32    1.14 
   8  -4  12   43.25    1.64 
   8  -4  12   40.20    1.61 
   8   4  12   44.66    1.69 
   8   4  12   47.78    1.71 
   9  -4  12   10.44    0.87 
   9  -4  12   12.01    0.91 
   9   4  12   12.96    0.97 
   0   5  12   38.41    1.25 
   0   5  12   39.30    1.27 
   0   5 -12   40.06    1.26 
   0   5  12   38.28    1.31 
   0  -5  12   39.20    1.23 
  -1   5  12   23.66    0.86 
   1  -5  12   21.21    0.85 
  -1   5  12   22.60    0.89 
   1   5 -12   24.26    0.86 
   1  -5  12   22.94    0.86 
  -1   5  12   22.86    0.85 
   1   5  12   24.97    0.98 
  -1   5 -12   24.12    0.92 
  -1  -5  12   24.30    0.83 
   1   5  12   24.60    0.94 
  -1  -5  12   26.21    0.85 
   1   5  12   24.16    0.93 
  -2   5  12   87.50    2.45 
  -2   5  12   89.03    2.39 
   2   5 -12   86.84    2.35 
   2   5 -12   91.09    2.41 
   2  -5  12   87.25    2.41 
  -2   5  12   76.92    2.32 
   2  -5  12   86.77    2.44 
  -2  -5  12   76.03    2.06 
   2   5  12   80.71    2.27 
   2   5  12   79.87    2.24 
   2   5  12   77.70    2.31 
  -2  -5  12   77.72    2.07 
   3  -5  12   52.22    1.66 
   3   5 -12   52.59    1.57 
   3  -5  12   52.86    1.65 
   3   5 -12   54.36    1.54 
  -3   5  12   53.26    1.63 
  -3   5  12   52.64    1.54 
  -3   5  12   54.40    1.55 
   3   5  12   63.49    1.98 
   3   5  12   64.44    1.90 
   3   5  12   60.89    1.91 
  -4   5  12   97.27    2.61 
   4  -5  12   99.26    2.82 
   4   5 -12   98.33    2.60 
   4  -5  12  100.22    2.78 
  -4   5  12  100.08    2.73 
   4   5  12   98.11    2.76 
   4   5  12   99.24    2.80 
   4   5  12   97.75    2.86 
   5  -5  12   34.04    1.30 
   5   5 -12   33.63    1.06 
   5  -5  12   36.68    1.31 
   5   5  12   36.19    1.38 
   5   5  12   35.08    1.30 
   5   5  12   34.56    1.29 
   6   5 -12   61.38    1.69 
   6  -5  12   61.28    1.99 
   6   5 -12   62.24    1.62 
   6  -5  12   62.64    2.02 
  -6   5 -12   69.34    2.13 
   6   5  12   67.30    2.10 
   6   5  12   67.49    2.19 
   6   5  12   66.51    2.11 
   7   5 -12   13.29    0.53 
   7  -5  12   12.76    0.90 
   7  -5  12   13.17    0.91 
   7   5  12   15.06    0.90 
   7   5  12   16.54    0.93 
   7   5  12   13.40    0.90 
   8  -5  12   17.45    1.10 
   8  -5  12   17.59    1.06 
   8   5  12   20.44    1.12 
   8   5  12   21.74    1.11 
   9  -5  12    8.57    0.83 
   9  -5  12    7.26    0.78 
   9   5  12    7.37    0.74 
   0  -6  12   94.59    2.54 
   0   6  12   93.49    2.59 
   0   6 -12   90.47    2.54 
   0   6  12   92.05    2.56 
   0   6  12   93.39    2.65 
  -1   6  12  189.97    4.94 
  -1   6  12  193.75    5.02 
  -1   6  12  191.70    4.87 
   1  -6  12  189.86    4.86 
   1   6 -12  189.82    4.85 
   1  -6  12  186.93    4.95 
  -1   6 -12  196.78    4.97 
  -1  -6  12  192.54    4.85 
  -1  -6  12  194.53    4.93 
   1   6  12  193.89    5.04 
   1   6  12  183.98    4.95 
   1   6  12  195.01    5.10 
   2   6 -12   50.80    1.56 
  -2   6  12   52.15    1.55 
  -2   6  12   49.91    1.62 
   2   6 -12   51.88    1.52 
   2  -6  12   52.27    1.59 
   2  -6  12   51.11    1.60 
   2   6  12   62.41    1.92 
   2   6  12   68.76    2.02 
  -2  -6  12   66.04    1.76 
  -2  -6  12   63.96    1.75 
   2   6  12   63.37    1.94 
   3  -6  12   73.45    2.17 
  -3   6  12   72.34    2.04 
  -3   6  12   72.12    2.14 
   3  -6  12   74.68    2.15 
   3   6 -12   72.02    2.01 
  -3   6  12   72.71    2.06 
   3   6  12   69.24    2.14 
   3   6  12   67.80    2.08 
   3   6  12   71.75    2.07 
   4  -6  12   28.11    1.10 
  -4   6  12   25.97    0.90 
  -4   6  12   25.51    1.00 
   4  -6  12   27.57    1.10 
   4   6 -12   26.20    0.91 
   4   6  12   31.51    1.25 
   4   6  12   30.61    1.18 
   4   6  12   30.93    1.18 
   5  -6  12    9.74    0.76 
   5   6 -12   11.67    0.50 
  -5   6  12   12.07    0.49 
   5   6 -12   11.22    0.55 
   5  -6  12   11.75    0.78 
   5   6  12   12.01    0.83 
  -5   6 -12   13.22    0.79 
   5   6  12   13.12    0.78 
   5   6  12   12.60    0.78 
   6  -6  12    8.08    0.69 
   6   6 -12    9.90    0.49 
   6   6 -12    9.74    0.39 
   6  -6  12    9.23    0.72 
   6   6  12    7.76    0.71 
   6   6  12    8.07    0.66 
   6   6  12    7.51    0.64 
  -6   6 -12    8.40    0.69 
   7  -6  12   34.35    1.42 
   7   6 -12   35.08    1.04 
   7  -6  12   36.15    1.46 
   7   6  12   31.65    1.32 
   7   6  12   33.18    1.42 
   7   6  12   34.30    1.35 
   8  -6  12   15.73    1.07 
   8  -6  12   17.48    1.05 
   8   6  12   14.72    1.01 
   8   6  12   14.09    0.97 
   8   6  12   12.82    0.94 
   9  -6  12   31.26    1.53 
   9  -6  12   34.16    1.52 
   9   6  12   32.43    1.47 
   0   7 -12   11.51    0.62 
   0  -7  12   11.21    0.59 
   0   7  12   11.97    0.65 
   0   7  12   11.69    0.70 
   0   7  12   12.25    0.65 
   1  -7  12   41.88    1.33 
  -1   7  12   40.46    1.35 
  -1   7  12   43.36    1.36 
  -1   7  12   41.00    1.41 
   1  -7  12   41.84    1.34 
   1   7 -12   39.75    1.31 
   1   7  12   43.91    1.46 
  -1  -7  12   46.02    1.34 
   1   7  12   43.46    1.44 
  -1   7 -12   43.77    1.44 
   1   7  12   44.18    1.51 
  -1  -7  12   45.28    1.33 
   2  -7  12   25.95    1.00 
  -2   7  12   25.29    0.95 
   2   7 -12   25.32    0.91 
   2  -7  12   24.59    0.98 
  -2   7  12   25.26    0.94 
   2   7 -12   24.32    0.94 
  -2   7  12   25.21    1.00 
   2   7  12   26.13    1.01 
   2   7  12   25.17    1.06 
  -2  -7  12   25.47    0.82 
  -2  -7  12   25.90    0.85 
   2   7  12   25.44    1.01 
   3   7 -12  143.66    3.74 
  -3   7  12  145.43    3.91 
   3   7 -12  149.31    3.79 
  -3   7  12  139.62    3.81 
   3  -7  12  145.37    3.94 
   3  -7  12  144.01    3.88 
   3   7  12  145.83    3.88 
   3   7  12  144.86    3.93 
   3   7  12  143.23    3.98 
   4  -7  12    9.73    0.72 
   4  -7  12   10.30    0.73 
   4   7 -12   10.04    0.54 
   4   7 -12    9.81    0.52 
  -4   7  12   11.74    0.65 
  -4   7  12    9.06    0.55 
   4   7  12   10.80    0.69 
   4   7  12    8.72    0.66 
   4   7  12    9.73    0.72 
  -4   7 -12    9.93    0.70 
   5   7 -12  121.43    3.13 
   5  -7  12  123.11    3.43 
   5   7 -12  115.69    3.12 
  -5   7  12  123.26    3.15 
   5  -7  12  116.62    3.37 
  -5   7 -12  123.26    3.55 
   5   7  12  131.83    3.65 
   5   7  12  125.70    3.56 
   5   7  12  126.30    3.52 
   6  -7  12   20.88    1.09 
   6   7 -12   20.24    0.67 
   6  -7  12   19.87    1.09 
   6   7 -12   22.41    0.77 
  -6   7 -12   18.99    1.02 
   6   7  12   19.93    1.00 
   6   7  12   17.93    0.97 
   6   7  12   19.25    1.04 
   7  -7  12   36.24    1.50 
   7   7 -12   37.14    1.10 
   7  -7  12   35.78    1.52 
   7   7  12   35.47    1.42 
   7   7  12   37.49    1.53 
   7   7  12   34.09    1.41 
   8  -7  12    9.29    0.84 
   8  -7  12    8.91    0.82 
   8   7  12    9.50    0.80 
   8   7  12   10.16    0.83 
   8   7  12   10.07    0.87 
   9  -7  12    1.81    0.62 
   9  -7  12    2.18    0.61 
   9   7  12    1.61    0.56 
   0   8  12    0.13    0.26 
   0   8 -12    0.07    0.22 
   0   8  12    0.22    0.23 
   0   8  12    0.05    0.24 
   0  -8  12    0.10    0.06 
   0  -8  12    0.07    0.21 
   0   8 -12    0.32    0.27 
   1   8 -12   79.91    2.31 
  -1   8  12   83.02    2.35 
   1   8 -12   83.01    2.35 
  -1   8  12   85.27    2.39 
   1  -8  12   80.97    2.32 
  -1   8  12   83.29    2.43 
   1  -8  12   79.75    2.33 
  -1  -8  12   77.25    2.13 
   1   8  12   79.30    2.28 
   1   8  12   75.13    2.25 
  -1   8 -12   76.91    2.26 
  -1  -8  12   76.78    2.12 
   1   8  12   75.58    2.33 
   2   8 -12   26.01    0.99 
   2   8 -12   27.85    1.00 
  -2   8  12   28.70    1.05 
   2  -8  12   27.53    1.06 
  -2   8  12   26.85    1.02 
  -2   8  12   27.73    1.09 
   2  -8  12   28.59    1.06 
   2   8  12   28.20    1.15 
   2   8  12   26.22    1.08 
  -2   8 -12   28.69    1.10 
  -2  -8  12   28.84    0.88 
   2   8  12   26.95    1.09 
   3   8 -12   10.93    0.60 
  -3   8  12   11.78    0.70 
   3   8 -12   13.16    0.63 
   3  -8  12   10.80    0.71 
  -3   8  12   12.19    0.65 
   3  -8  12   11.94    0.73 
  -3   8 -12   16.68    0.86 
   3   8  12   16.79    0.86 
   3   8  12   17.05    0.86 
   3   8  12   18.58    0.92 
   4   8 -12   41.29    1.30 
   4   8 -12   41.69    1.28 
   4  -8  12   40.17    1.48 
  -4   8  12   41.24    1.42 
  -4   8  12   40.79    1.32 
   4  -8  12   41.40    1.46 
  -4   8 -12   45.45    1.54 
   4   8  12   41.57    1.50 
   4   8  12   44.19    1.57 
   4   8  12   40.17    1.48 
   5   8 -12   24.79    0.84 
  -5   8  12   23.57    0.88 
   5  -8  12   23.99    1.12 
   5  -8  12   24.44    1.14 
  -5   8 -12   21.70    1.03 
   5   8  12   20.33    1.02 
   5   8  12   20.67    1.01 
   5   8  12   21.02    1.10 
   6  -8  12   14.99    0.98 
   6  -8  12   15.73    0.94 
   6   8 -12   15.44    0.58 
   6   8  12   17.58    1.00 
   6   8  12   19.11    1.02 
  -6   8 -12   17.87    1.00 
   6   8  12   19.88    1.08 
   7  -8  12   55.96    1.96 
   7  -8  12   52.56    1.91 
   7   8  12   51.89    1.85 
   7   8  12   50.39    1.85 
   7   8  12   56.10    1.97 
   8  -8  12    0.66    0.50 
   8  -8  12    0.44    0.51 
   8   8  12    1.06    0.49 
   8   8  12    1.05    0.52 
   8   8  12    1.06    0.47 
   9  -8  12   30.92    1.49 
   9  -8  12   26.97    1.47 
   0   9  12   88.09    2.57 
   0   9  12   84.43    2.48 
   0   9  12   84.80    2.50 
   0  -9  12   85.00    2.39 
   0   9 -12   87.18    2.48 
   1  -9  12   21.73    0.90 
  -1   9  12   21.12    0.91 
   1  -9  12   20.94    0.89 
  -1   9  12   21.84    0.91 
  -1   9  12   21.86    0.98 
   1   9 -12   19.46    0.89 
   1   9  12   16.40    0.83 
   1   9  12   17.25    0.89 
  -1  -9  12   18.49    0.73 
   1   9  12   18.71    0.87 
  -1   9 -12   16.57    0.84 
   2  -9  12   26.68    1.06 
   2  -9  12   27.95    1.06 
   2   9 -12   26.99    1.01 
  -2   9  12   26.37    1.11 
  -2   9  12   25.01    1.03 
  -2   9 -12   27.43    1.12 
   2   9  12   28.02    1.13 
   2   9  12   29.36    1.19 
   2   9  12   27.04    1.11 
  -2  -9  12   28.13    0.90 
   3   9 -12   86.61    2.40 
  -3   9  12   80.18    2.43 
  -3   9  12   86.14    2.53 
   3  -9  12   86.12    2.51 
   3  -9  12   85.32    2.49 
   3   9  12   88.13    2.60 
   3   9  12   88.11    2.67 
   3   9  12   86.60    2.61 
  -3   9 -12   90.02    2.62 
   4   9 -12    0.12    0.22 
   4  -9  12   -0.23    0.32 
   4  -9  12    0.28    0.34 
  -4   9  12    0.14    0.26 
  -4   9  12    0.12    0.30 
  -4   9 -12    0.69    0.38 
   4   9  12    0.31    0.36 
   4   9  12    0.08    0.31 
   4   9  12    0.02    0.31 
   5  -9  12   55.02    1.87 
   5   9 -12   54.66    1.60 
   5  -9  12   52.98    1.87 
  -5   9  12   55.75    1.66 
   5   9  12   64.90    2.13 
  -5   9 -12   59.47    2.03 
   5   9  12   60.41    2.00 
   5   9  12   62.21    2.02 
   6  -9  12    4.63    0.61 
   6   9 -12    4.64    0.38 
   6  -9  12    5.12    0.65 
   6   9  12    3.30    0.53 
   6   9  12    2.60    0.51 
  -6   9 -12    5.07    0.62 
   6   9  12    4.31    0.63 
   7  -9  12   10.84    0.87 
   7  -9  12   10.15    0.85 
   7   9  12   15.79    1.01 
   7   9  12   15.36    1.00 
   7   9  12   15.89    1.08 
   8  -9  12   12.39    0.95 
   8  -9  12   11.88    0.95 
   8   9  12   15.13    1.06 
   8   9  12   12.08    1.02 
   9  -9  12    3.87    0.70 
   0 -10  12    0.79    0.28 
   0  10  12    0.99    0.31 
   0  10  12    0.92    0.35 
   0  10  12    1.20    0.32 
   0  10 -12    1.40    0.35 
  -1  10  12   98.13    2.82 
  -1  10  12   97.28    2.83 
   1  10 -12  104.37    2.84 
   1 -10  12  100.34    2.79 
  -1  10  12   96.94    2.91 
  -1 -10  12   98.90    2.77 
   1  10  12  106.04    3.03 
   1  10  12  104.22    2.94 
   1  10  12  102.03    2.92 
  -1  10 -12  101.27    2.93 
   2 -10  12   30.52    1.20 
  -2  10  12   30.68    1.26 
   2 -10  12   30.90    1.20 
   2  10 -12   35.02    1.19 
  -2  10  12   33.42    1.21 
   2  10  12   24.44    1.15 
   2  10  12   25.33    1.10 
  -2 -10  12   25.93    0.86 
  -2  10 -12   27.71    1.13 
   2  10  12   28.60    1.13 
   3  10 -12   26.03    1.01 
  -3  10  12   25.52    1.06 
  -3  10  12   25.39    1.12 
   3 -10  12   28.04    1.15 
   3 -10  12   27.87    1.13 
   3  10  12   27.02    1.19 
  -3  10 -12   28.20    1.20 
   3  10  12   28.08    1.19 
   3  10  12   30.20    1.27 
  -4  10  12   40.39    1.46 
   4 -10  12   39.95    1.48 
   4  10 -12   38.13    1.29 
   4 -10  12   40.17    1.50 
  -4  10  12   40.60    1.37 
   4  10  12   35.50    1.36 
  -4  10 -12   33.94    1.37 
   4  10  12   33.78    1.40 
   4  10  12   33.86    1.35 
   5 -10  12    2.95    0.52 
   5  10 -12    3.00    0.36 
   5 -10  12    3.78    0.55 
  -5  10  12    3.43    0.41 
  -5  10 -12    2.47    0.50 
   5  10  12    3.61    0.53 
   5  10  12    3.08    0.55 
   5  10  12    2.65    0.48 
   6 -10  12   12.41    0.93 
   6  10 -12   12.07    0.57 
   6 -10  12   11.98    0.96 
   6  10  12   12.03    0.87 
   6  10  12   13.32    0.90 
  -6  10 -12   13.50    0.92 
   6  10  12    9.95    0.87 
   7 -10  12   28.92    1.44 
   7 -10  12   29.81    1.42 
   7  10  12   28.73    1.36 
   7  10  12   29.80    1.37 
   7  10  12   29.99    1.45 
   8 -10  12    1.87    0.59 
   8 -10  12    1.04    0.58 
   8  10  12    1.57    0.55 
   8  10  12    1.70    0.57 
   0  11 -12   56.02    1.79 
   0  11  12   54.40    1.81 
   0  11  12   53.28    1.78 
   0  11  12   53.10    1.86 
   0 -11  12   56.59    1.70 
  -1  11  12    7.95    0.65 
   1  11 -12    7.38    0.61 
  -1  11  12    6.94    0.64 
   1 -11  12    7.21    0.56 
   1  11  12    5.09    0.54 
  -1  11 -12    3.50    0.47 
   1  11  12    4.53    0.53 
   1  11  12    4.02    0.53 
  -1 -11  12    4.70    0.41 
   2  11 -12   33.31    1.24 
  -2  11  12   34.67    1.27 
   2 -11  12   32.79    1.26 
  -2  11  12   35.72    1.38 
   2  11  12   34.25    1.38 
   2  11  12   34.16    1.31 
  -2 -11  12   31.28    1.03 
   2  11  12   31.78    1.30 
  -2  11 -12   34.45    1.33 
   3 -11  12   58.76    1.89 
  -3  11  12   57.62    1.95 
  -3  11  12   55.75    1.83 
   3  11 -12   57.71    1.78 
   3  11  12   45.30    1.60 
  -3  11 -12   41.61    1.59 
   3  11  12   42.41    1.57 
   3  11  12   45.23    1.66 
  -4  11  12   31.32    1.21 
   4  11 -12   31.10    1.12 
   4 -11  12   29.83    1.30 
  -4  11  12   31.53    1.29 
  -4  11 -12   31.89    1.34 
   4  11  12   31.93    1.33 
   4  11  12   32.66    1.40 
   4  11  12   31.79    1.35 
   5 -11  12   49.03    1.78 
   5  11 -12   47.84    1.50 
  -5  11  12   46.76    1.56 
  -5  11 -12   38.62    1.56 
   5  11  12   40.69    1.56 
   5  11  12   40.08    1.56 
   5  11  12   40.09    1.61 
   6  11 -12   18.60    0.77 
   6 -11  12   19.74    1.21 
   6 -11  12   19.74    1.16 
   6  11  12   16.53    1.12 
  -6  11 -12   15.62    1.02 
   6  11  12   16.97    1.04 
   6  11  12   16.11    1.01 
   7 -11  12   12.32    0.96 
   7 -11  12   12.61    1.03 
   7  11  12    9.81    0.86 
   7  11  12    9.73    0.92 
   7  11  12    9.86    0.85 
   8 -11  12   19.19    1.26 
   8  11  12   14.81    1.21 
   0  12  12   20.43    1.05 
   0 -12  12   17.90    0.85 
   0  12  12   18.31    0.95 
   0  12 -12   19.61    0.95 
   0  12  12   18.63    0.95 
  -1  12  12   33.92    1.31 
   1  12 -12   36.61    1.31 
   1 -12  12   33.44    1.26 
  -1  12  12   31.46    1.37 
   1  12  12   34.23    1.35 
  -1  12 -12   34.88    1.34 
  -1 -12  12   32.74    1.15 
   1  12  12   32.79    1.32 
   1  12  12   35.03    1.41 
  -2  12  12   18.34    1.01 
   2 -12  12   20.38    0.97 
   2  12 -12   17.68    0.90 
  -2  12  12   18.19    0.93 
   2  12  12   22.02    1.05 
  -2  12 -12   21.05    1.05 
  -2 -12  12   20.97    0.76 
   2  12  12   20.00    1.01 
   2  12  12   19.36    1.07 
   3  12 -12   18.41    0.89 
  -3  12  12   18.48    1.04 
  -3  12  12   20.43    0.96 
   3 -12  12   18.52    0.98 
  -3  12 -12   16.97    0.97 
   3  12  12   15.63    0.93 
   3  12  12   15.80    0.94 
   3  12  12   15.61    1.00 
  -4  12  12   28.17    1.24 
   4 -12  12   27.58    1.24 
  -4  12  12   26.49    1.14 
   4  12 -12   27.32    1.07 
   4  12  12   25.88    1.23 
  -4  12 -12   23.90    1.19 
   4  12  12   26.39    1.27 
   4  12  12   25.41    1.20 
   5 -12  12    6.94    0.70 
  -5  12  12    6.49    0.57 
   5  12 -12    6.45    0.52 
   5  12  12    8.49    0.77 
   5  12  12    6.73    0.69 
   5  12  12    7.01    0.76 
  -5  12 -12    7.24    0.75 
   6 -12  12   14.40    1.06 
  -6  12 -12   11.69    0.96 
   6  12  12   13.14    1.05 
   6  12  12   12.01    0.93 
   6  12  12   11.59    0.91 
   7 -12  12   14.75    1.15 
   7  12  12   13.76    1.13 
   7  12  12   15.45    1.07 
   7  12  12   15.06    1.06 
   0  13  12    8.48    0.75 
   0 -13  12    8.41    0.66 
   0  13  12    8.94    0.74 
   0  13 -12    9.64    0.75 
  -1  13  12   29.81    1.39 
  -1  13  12   34.29    1.35 
   1 -13  12   35.98    1.30 
   1  13 -12   34.20    1.34 
   1  13  12   39.23    1.52 
   1  13  12   38.48    1.49 
   1  13  12   38.19    1.56 
  -1  13 -12   39.76    1.50 
  -1 -13  12   40.41    1.30 
   2 -13  12   12.81    0.86 
  -2  13  12   13.89    0.85 
   2  13 -12   13.44    0.83 
  -2  13  12   14.70    0.94 
   2  13  12   12.83    0.96 
  -2 -13  12   14.42    0.64 
   2  13  12   13.29    0.88 
   2  13  12   13.94    0.91 
  -2  13 -12   15.38    0.93 
   3 -13  12   20.59    1.05 
  -3  13  12   19.99    1.09 
  -3  13  12   19.35    1.00 
   3  13 -12   20.27    0.96 
  -3  13 -12   27.70    1.25 
   3  13  12   26.27    1.29 
   3  13  12   25.13    1.20 
   3  13  12   24.40    1.20 
  -4  13  12   11.30    0.80 
   4  13 -12   12.87    0.75 
  -4  13  12   12.11    0.91 
   4 -13  12   11.17    0.91 
   4  13  12   15.64    1.07 
  -4  13 -12   13.56    1.00 
   4  13  12   14.94    0.98 
   4  13  12   15.42    0.99 
  -5  13  12   18.95    0.97 
   5  13 -12   19.30    0.89 
   5 -13  12   18.94    1.13 
   5  13  12   25.82    1.28 
  -5  13 -12   25.65    1.30 
   5  13  12   25.87    1.36 
   5  13  12   25.78    1.31 
   6 -13  12   12.98    1.06 
  -6  13 -12   13.05    1.08 
   6  13  12   15.72    1.06 
   6  13  12   16.50    1.09 
   6  13  12   14.91    1.13 
   7  13  12   10.28    0.90 
   7  13  12    9.39    0.86 
   0 -14  12   45.27    1.54 
   0  14  12   45.91    1.78 
   0  14 -12   47.12    1.69 
   1  14 -12   50.48    1.72 
   1 -14  12   45.33    1.62 
  -1  14  12   48.68    1.84 
   1  14  12   48.62    1.74 
  -1  14 -12   46.04    1.73 
  -1 -14  12   46.99    1.51 
   1  14  12   47.91    1.80 
   1  14  12   48.71    1.84 
  -2  14  12   37.63    1.45 
   2  14 -12   35.44    1.40 
  -2  14  12   36.43    1.53 
   2 -14  12   35.02    1.39 
  -2  14 -12   31.14    1.39 
   2  14  12   35.18    1.48 
   2  14  12   30.66    1.38 

   2  14  12   33.56    1.40 
   3 -14  12   22.63    1.13 
   3  14 -12   24.23    1.06 
  -3  14  12   23.01    1.20 
  -3  14  12   21.59    1.11 
   3  14  12   31.02    1.42 
  -3  14 -12   28.97    1.34 
   3  14  12   29.45    1.34 
   3  14  12   26.31    1.30 
  -4  14  12    2.32    0.47 
   4 -14  12    3.05    0.58 
   4  14 -12    2.60    0.45 
  -4  14 -12    1.84    0.52 
   4  14  12    2.21    0.53 
   4  14  12    1.93    0.56 
   4  14  12    2.47    0.52 
  -5  14  12    8.14    0.70 
   5  14 -12    8.25    0.68 
   5 -14  12    7.87    0.79 
   5  14  12    7.50    0.79 
   5  14  12    8.15    0.86 
   5  14  12    9.89    0.88 
  -5  14 -12    8.94    0.83 
   6 -14  12   13.55    1.02 
   6  14  12   11.44    0.93 
   6  14  12   12.05    1.01 
   6  14  12   10.93    0.93 
  -6  14 -12   12.26    0.99 
   0  15 -12    7.85    0.74 
   0 -15  12    7.71    0.60 
   0  15  12    6.78    0.75 
   1  15 -12   20.49    1.08 
  -1  15  12   20.50    1.20 
   1 -15  12   20.86    1.03 
  -1 -15  12   17.61    0.85 
   1  15  12   16.80    1.12 
  -1  15 -12   20.08    1.09 
   2 -15  12   26.14    1.20 
  -2  15  12   29.38    1.37 
   2  15 -12   26.79    1.21 
  -2  15  12   26.12    1.24 
  -2  15 -12   30.17    1.37 
   2  15  12   30.59    1.44 
   2  15  12   29.43    1.37 
   2  15  12   28.42    1.34 
   3  15 -12   19.95    1.03 
   3 -15  12   21.13    1.12 
  -3  15  12   21.11    1.12 
  -3  15  12   20.71    1.21 
   3  15  12   18.26    1.12 
  -3  15 -12   20.17    1.16 
   3  15  12   18.56    1.17 
   3  15  12   18.39    1.10 
   4  15 -12   43.46    1.57 
   4 -15  12   45.47    1.73 
  -4  15  12   42.11    1.63 
   4  15  12   44.57    1.83 
  -4  15 -12   43.21    1.79 
   4  15  12   41.97    1.74 
   4  15  12   42.67    1.71 
   5  15 -12   15.08    0.89 
   5 -15  12   14.80    1.12 
  -5  15  12   17.24    1.00 
  -5  15 -12   17.20    1.14 
   5  15  12   15.28    1.11 
   5  15  12   14.82    1.12 
   5  15  12   13.96    1.17 
   6  15  12   12.49    1.02 
  -6  15 -12   12.45    1.04 
   6  15  12   11.64    0.99 
   0 -16  12   47.79    1.59 
   0  16 -12   45.85    1.78 
   0  16  12   45.39    1.88 
   1  16 -12    3.68    0.58 
  -1  16  12    4.53    0.72 
   1 -16  12    3.49    0.52 
  -1  16 -12    4.90    0.66 
   1  16  12    5.11    0.71 
  -1 -16  12    5.57    0.51 
  -2  16  12   25.50    1.35 
   2  16 -12   24.46    1.20 
   2 -16  12   24.98    1.21 
  -2  16 -12   24.06    1.28 
   2  16  12   22.26    1.30 
   2  16  12   23.92    1.26 
   3  16 -12   11.12    0.85 
  -3  16  12   11.54    0.97 
  -3  16  12   11.35    0.93 
   3 -16  12   10.87    0.84 
   3  16  12   11.94    1.03 
   3  16  12   11.67    0.94 
   3  16  12   12.26    0.99 
  -3  16 -12   10.63    0.92 
   4 -16  12    0.68    0.52 
  -4  16  12    0.18    0.44 
   4  16 -12    0.86    0.42 
   4  16  12   -0.05    0.44 
   4  16  12    0.21    0.46 
   4  16  12    0.24    0.52 
  -4  16 -12    0.15    0.50 
  -5  16  12   15.90    1.01 
   5  16 -12   15.41    0.93 
   5  16  12   17.36    1.19 
  -5  16 -12   13.89    1.13 
   5  16  12   13.24    1.11 
  -6  16 -12   12.63    1.08 
   0 -17  12    0.70    0.41 
   0  17  12    1.17    0.58 
   0  17 -12    0.67    0.48 
  -1  17  12    7.83    0.88 
   1 -17  12    8.26    0.69 
   1  17 -12    7.35    0.76 
   1  17  12    6.53    0.81 
  -1  17 -12    6.88    0.78 
  -2  17  12   28.17    1.45 
   2 -17  12   27.57    1.28 
   2  17 -12   25.49    1.28 
  -2  17 -12   29.89    1.46 
   2  17  12   29.66    1.44 
   2  17  12   28.58    1.51 
   3  17 -12    4.13    0.60 
  -3  17  12    4.73    0.65 
   3 -17  12    4.10    0.64 
  -3  17  12    6.22    0.79 
  -3  17 -12    5.04    0.74 
   3  17  12    3.82    0.70 
   3  17  12    2.97    0.61 
   4  17 -12   29.33    1.31 
  -4  17  12   28.52    1.38 
   4  17  12   29.94    1.48 
   4  17  12   30.32    1.51 
  -4  17 -12   29.16    1.50 
  -5  17  12    5.00    0.69 
   5  17  12    7.67    0.89 
   0  18 -12   63.21    2.32 
   0 -18  12   63.98    2.05 
   0  18  12   67.90    2.47 
  -1  18  12    2.30    0.64 
   1  18 -12    2.95    0.63 
   1 -18  12    3.35    0.53 
   1  18  12    4.04    0.74 
  -1  18 -12    4.61    0.79 
   2 -18  12   33.03    1.45 
  -2  18  12   35.36    1.68 
  -3  18  12    5.51    0.78 
   1 -19  12    8.56    0.74 
   0   0 -13    0.12    0.19 
   0   0  13   -0.06    0.18 
   0   0  13    0.06    0.17 
   0   0  13   -0.02    0.17 
   1   0  13   60.77    1.82 
   1   0 -13   60.31    1.77 
  -1   0  13   64.00    1.83 
  -1   0 -13   62.28    1.80 
  -1   0  13   63.50    1.76 
   1   0  13   61.90    1.81 
   1   0  13   62.04    1.87 
  -1   0  13   64.85    1.75 
  -2   0  13   60.42    1.76 
  -2   0  13   65.99    1.76 
   2   0 -13   64.47    1.81 
   2   0  13   65.39    1.88 
  -2   0  13   67.21    1.85 
   2   0 -13   61.85    1.84 
   2   0  13   63.36    1.89 
   2   0  13   65.75    1.96 
   3   0  13    8.28    0.61 
  -3   0  13    7.90    0.44 
   3   0  13    8.81    0.57 
  -3   0  13    8.13    0.36 
  -3   0  13    7.85    0.38 
   3   0 -13    7.77    0.47 
   3   0 -13    7.01    0.45 
   3   0  13    7.23    0.55 
   4   0  13  108.55    2.93 
   4   0  13   99.60    2.94 
   4   0 -13  107.99    2.79 
   5   0  13   20.29    0.91 
   5   0  13   17.51    0.89 
   6   0  13   44.24    1.52 
   6   0  13   41.27    1.49 
   7   0  13   56.02    1.84 
   7   0  13   53.33    1.85 
   8   0  13    2.87    0.51 
   8   0  13    2.58    0.51 
   9   0  13   31.13    1.43 
   9   0  13   32.68    1.44 
   0   1 -13  106.63    2.88 
   0   1  13  107.63    2.91 
   0  -1  13  108.08    2.97 
   0   1  13  109.36    2.97 
   0  -1  13  106.50    2.85 
   0  -1 -13  109.93    2.89 
   0   1  13  105.12    2.87 
   0  -1  13  111.66    2.91 
   1   1 -13   14.24    0.63 
  -1   1  13   14.36    0.60 
   1  -1  13   13.70    0.64 
  -1  -1 -13   14.35    0.66 
   1  -1  13   14.20    0.70 
   1  -1  13   14.20    0.65 
  -1   1  13   13.64    0.64 
  -1  -1  13   16.56    0.70 
  -1  -1  13   17.46    0.65 
   1   1  13   16.66    0.70 
  -1   1 -13   15.48    0.69 
   1  -1 -13   14.41    0.66 
  -1  -1  13   15.81    0.63 
   1   1  13   16.60    0.70 
   1   1  13   16.75    0.76 
  -2   1  13   30.43    0.94 
  -2   1  13   30.90    0.98 
   2   1 -13   31.85    1.05 
   2  -1  13   31.42    1.08 
  -2   1  13   32.00    1.05 
   2   1 -13   31.91    1.03 
  -2   1  13   30.66    0.98 
   2  -1  13   32.43    1.09 
  -2  -1  13   33.78    1.01 
   2   1  13   35.65    1.22 
   2   1  13   31.41    1.13 
  -2  -1  13   34.97    1.02 
   2  -1 -13   33.34    1.09 
   2   1  13   32.56    1.14 
   2  -1 -13   33.65    1.15 
  -3   1  13   94.98    2.49 
   3  -1  13   96.66    2.70 
   3  -1  13   96.29    2.67 
  -3   1  13  100.54    2.52 
   3   1 -13   96.08    2.57 
   3   1 -13   95.99    2.61 
  -3   1  13   94.88    2.61 
   3   1  13   98.13    2.74 
  -3  -1  13   97.75    2.50 
   3   1  13  100.76    2.80 
   3   1  13   96.60    2.70 
   3  -1 -13   95.81    2.65 
   3  -1 -13   96.41    2.61 
   4  -1  13    4.09    0.43 
  -4   1  13    4.53    0.35 
   4  -1  13    5.03    0.46 
   4   1 -13    4.87    0.37 
   4   1  13    3.02    0.45 
   4   1  13    4.06    0.45 
   4   1  13    4.40    0.47 
   5  -1  13   98.53    2.84 
   5   1 -13  102.21    2.67 
   5  -1  13  101.99    2.89 
   5   1  13   82.30    2.43 
   5   1  13   83.63    2.46 
   6  -1  13   15.12    0.86 
   6  -1  13   15.74    0.88 
   6   1  13   14.45    0.84 
   6   1  13   13.36    0.83 
   7  -1  13   22.43    1.07 
   7  -1  13   20.97    1.08 
   7   1  13   18.56    1.00 
   7   1  13   18.26    0.95 
   8  -1  13   22.87    1.19 
   8  -1  13   26.32    1.22 
   8   1  13   24.25    1.19 
   8   1  13   24.83    1.19 
   9  -1  13    1.31    0.51 
   9  -1  13    0.79    0.49 
   9   1  13    1.22    0.50 
   9   1  13    1.35    0.50 
   0  -2  13   18.21    0.71 
   0  -2  13   17.76    0.71 
   0  -2 -13   18.91    0.75 
   0   2  13   16.77    0.77 
   0   2  13   17.26    0.73 
   0   2  13   18.09    0.72 
   0   2 -13   20.10    0.75 
   1   2 -13  157.40    4.06 
  -1   2  13  154.32    4.16 
  -1   2  13  160.26    4.11 
  -1  -2 -13  160.70    4.11 
   1  -2  13  158.15    4.07 
   1  -2  13  157.59    4.15 
   1   2  13  152.97    3.96 
   1   2  13  152.58    4.03 
  -1   2 -13  149.45    3.96 
   1  -2 -13  155.47    3.95 
   1   2  13  152.23    4.09 
  -1  -2  13  153.88    3.88 
  -1  -2  13  152.68    3.95 
   2  -2  13   36.74    1.23 
  -2   2  13   37.05    1.13 
   2   2 -13   36.08    1.15 
   2  -2  13   37.78    1.22 
  -2   2  13   36.39    1.13 
  -2   2  13   36.59    1.20 
   2   2 -13   37.00    1.19 
   2  -2 -13   43.51    1.37 
   2   2  13   45.15    1.42 
  -2  -2  13   47.29    1.30 
   2   2  13   43.91    1.49 
   2   2  13   46.38    1.45 
  -2  -2  13   44.59    1.29 
   3  -2  13   61.00    1.86 
   3   2 -13   59.93    1.76 
   3  -2  13   60.45    1.83 
  -3   2  13   61.21    1.77 
   3   2 -13   60.64    1.72 
  -3   2  13   62.57    1.68 
  -3   2  13   62.43    1.68 
   3   2  13   47.42    1.54 
   3   2  13   49.36    1.53 
   3  -2 -13   48.05    1.47 
   3   2  13   47.14    1.59 
  -3  -2  13   48.99    1.28 
   4   2 -13   80.66    2.13 
   4  -2  13   79.27    2.27 
  -4   2  13   79.13    2.17 
   4  -2  13   74.09    2.30 
   4   2  13   81.15    2.42 
   4   2  13   88.89    2.53 
   4   2  13   83.69    2.45 
   5  -2  13    6.80    0.57 
   5   2 -13    6.82    0.44 
   5  -2  13    6.41    0.57 
   5   2  13    5.26    0.51 
   5   2  13    6.60    0.57 
   5   2  13    5.64    0.58 
   6  -2  13   24.58    1.09 
   6  -2  13   22.61    1.03 
   6   2  13   31.12    1.24 
   6   2  13   29.27    1.22 
   7  -2  13   25.15    1.15 
   7  -2  13   23.38    1.14 
   7   2  13   26.71    1.19 
   7   2  13   28.26    1.22 
   8  -2  13    1.46    0.48 
   8  -2  13    1.12    0.46 
   8   2  13    2.02    0.49 
   8   2  13    1.61    0.46 
   9  -2  13   26.56    1.31 
   9  -2  13   25.92    1.30 
   9   2  13   23.82    1.23 
   9   2  13   21.56    1.22 
   0   3  13  166.19    4.50 
   0  -3  13  175.16    4.42 
   0  -3 -13  165.96    4.44 
   0  -3  13  177.93    4.49 
   0   3  13  172.90    4.44 
   0   3 -13  176.29    4.44 
   0   3  13  177.09    4.59 
  -1   3  13    8.00    0.47 
  -1   3  13    8.24    0.53 
   1   3 -13    8.35    0.49 
  -1   3  13    8.55    0.49 
   1  -3  13    8.98    0.52 
   1  -3  13    7.53    0.50 
  -1  -3  13   17.91    0.68 
   1   3  13   17.29    0.81 
  -1   3 -13   18.53    0.77 
   1   3  13   18.35    0.76 
   1   3  13   18.29    0.77 
  -1  -3  13   19.26    0.70 
   2  -3  13   94.76    2.61 
  -2   3  13   95.38    2.65 
   2  -3  13   93.59    2.65 
  -2   3  13   94.91    2.53 
   2   3 -13   95.02    2.61 
  -2   3  13   99.60    2.58 
   2   3 -13   94.03    2.55 
  -2  -3  13  102.42    2.64 
   2   3  13  101.52    2.88 
   2   3  13   99.84    2.82 
   2   3  13  103.05    2.79 
  -2  -3  13  102.51    2.67 
   3  -3  13   81.04    2.27 
   3  -3  13   79.65    2.30 
  -3   3  13   82.26    2.26 
  -3   3  13   77.28    2.14 
   3   3 -13   79.09    2.16 
  -3   3  13   80.43    2.13 
   3   3 -13   76.27    2.20 
   3   3  13   97.84    2.70 
   3   3  13   97.72    2.80 
   3   3  13   95.67    2.73 
   4  -3  13   14.23    0.76 
   4   3 -13   14.03    0.62 
  -4   3  13   15.52    0.52 
   4  -3  13   14.91    0.78 
  -4   3  13   14.53    0.64 
   4   3  13   18.02    0.85 
   4   3  13   17.31    0.82 
   4   3  13   17.34    0.89 
   5   3 -13   57.99    1.64 
   5  -3  13   58.89    1.87 
   5  -3  13   58.57    1.86 
   5   3  13   59.11    1.93 
   5   3  13   59.09    1.86 
   5   3  13   57.88    1.87 
   6  -3  13   27.62    1.19 
   6   3 -13   27.22    0.91 
   6  -3  13   28.16    1.19 
   6   3  13   29.45    1.27 
   6   3  13   30.70    1.22 
   6   3  13   28.91    1.22 
   7  -3  13    7.46    0.68 
   7  -3  13    6.96    0.66 
   7   3  13    4.76    0.57 
   7   3  13    6.55    0.64 
   8  -3  13   32.25    1.39 
   8  -3  13   31.85    1.40 
   8   3  13   35.17    1.45 
   8   3  13   33.99    1.42 
   9  -3  13    3.94    0.63 
   9  -3  13    3.96    0.63 
   9   3  13    4.03    0.61 
   0  -4  13   35.33    1.12 
   0   4  13   37.18    1.22 
   0   4  13   31.26    1.13 
   0   4  13   33.24    1.13 
   0  -4  13   32.34    1.08 
   0   4 -13   34.57    1.14 
  -1   4  13  100.43    2.78 
   1  -4  13  103.05    2.77 
   1  -4  13  103.46    2.80 
  -1   4  13  100.90    2.83 
   1   4 -13  102.76    2.74 
  -1   4  13  102.19    2.74 
   1   4  13   91.04    2.64 
   1   4  13   94.39    2.56 
  -1  -4  13   92.09    2.49 
   1   4  13   92.95    2.58 
  -1  -4  13   89.95    2.45 
  -2   4  13   64.59    1.92 
   2   4 -13   64.53    1.84 
  -2   4  13   63.22    1.83 
   2  -4  13   68.73    1.95 
  -2   4  13   65.19    1.85 
   2  -4  13   64.75    1.92 
   2   4 -13   64.91    1.89 
  -2  -4  13   50.43    1.43 
   2   4  13   48.93    1.60 
  -2  -4  13   51.90    1.43 
   2   4  13   54.72    1.69 
   2   4  13   49.62    1.58 
  -3   4  13   39.93    1.22 
   3   4 -13   40.28    1.27 
   3   4 -13   39.74    1.23 
  -3   4  13   40.26    1.23 
  -3   4  13   40.05    1.30 
   3  -4  13   42.10    1.38 
   3  -4  13   40.92    1.37 
   3   4  13   37.80    1.34 
   3   4  13   41.19    1.42 
   3   4  13   40.05    1.35 
   4   4 -13   62.44    1.78 
   4  -4  13   65.28    1.98 
  -4   4  13   62.87    1.73 
  -4   4  13   63.28    1.85 
   4  -4  13   63.51    1.96 
   4   4  13   61.87    1.89 
   4   4  13   62.43    1.98 
   4   4  13   59.64    1.90 
   5  -4  13   31.32    1.24 
   5  -4  13   31.45    1.24 
   5   4 -13   32.32    1.02 
   5   4  13   34.35    1.33 
   5   4  13   31.88    1.25 
   5   4  13   32.51    1.23 
   6  -4  13   58.29    1.87 
   6   4 -13   54.17    1.55 
   6  -4  13   53.50    1.84 
   6   4  13   62.18    1.99 
   6   4  13   59.52    1.99 
   6   4  13   63.98    2.09 
   7  -4  13   29.76    1.31 
   7  -4  13   31.63    1.33 
   7   4  13   31.30    1.32 
   7   4  13   30.75    1.30 
   7   4  13   32.87    1.41 
   8  -4  13   29.37    1.36 
   8  -4  13   29.30    1.37 
   8   4  13   29.98    1.36 
   8   4  13   31.08    1.35 
   9  -4  13   14.69    1.06 
   9  -4  13   15.24    1.13 
   9   4  13   12.20    0.98 
   0   5  13   58.87    1.78 
   0   5  13   56.56    1.70 
   0  -5  13   56.01    1.67 
   0   5 -13   56.69    1.70 
   0   5  13   54.91    1.71 
  -1   5  13  118.16    3.15 
  -1   5  13  117.42    3.21 
   1  -5  13  114.30    3.15 
   1  -5  13  117.45    3.11 
  -1   5  13  112.17    3.09 
   1   5 -13  117.05    3.10 
  -1  -5  13  117.15    3.01 
  -1   5 -13  115.66    3.11 
   1   5  13  113.96    3.20 
   1   5  13  115.61    3.11 
   1   5  13  110.39    3.14 
  -1  -5  13  115.53    3.04 
   2   5 -13   82.97    2.30 
  -2   5  13   85.13    2.33 
  -2   5  13   79.06    2.38 
  -2   5  13   83.22    2.30 
   2   5 -13   83.88    2.36 
   2  -5  13   88.23    2.37 
   2  -5  13   81.31    2.38 
   2   5  13   92.45    2.68 
  -2  -5  13   92.37    2.41 
   2   5  13   90.84    2.62 
   2   5  13   87.22    2.57 
  -2  -5  13   95.63    2.43 
  -3   5  13   58.71    1.87 
  -3   5  13   63.82    1.81 
   3  -5  13   64.04    1.94 
   3  -5  13   64.73    1.92 
   3   5 -13   64.79    1.80 
   3   5  13   60.81    1.86 
   3   5  13   60.75    1.94 
   3   5  13   60.11    1.87 
  -4   5  13   63.50    1.78 
   4  -5  13   66.15    2.00 
  -4   5  13   62.84    1.89 
   4  -5  13   62.95    1.96 
   4   5 -13   63.90    1.79 
   4   5  13   58.50    1.87 
   4   5  13   59.58    1.87 
   4   5  13   59.53    1.94 
   5  -5  13   43.82    1.55 
   5  -5  13   43.34    1.52 
   5   5 -13   43.70    1.31 
   5   5  13   42.89    1.54 
   5   5  13   39.64    1.46 
   5   5  13   41.69    1.47 
   6   5 -13   36.60    1.10 
   6  -5  13   35.67    1.38 
   6  -5  13   33.74    1.38 
   6   5 -13   34.29    1.01 
   6   5  13   30.50    1.25 
  -6   5 -13   28.63    1.26 
   6   5  13   30.40    1.25 
   6   5  13   32.18    1.33 
   7  -5  13   24.79    1.22 
   7  -5  13   26.04    1.22 
   7   5 -13   24.28    0.82 
   7   5  13   25.88    1.25 
   7   5  13   22.62    1.15 
   7   5  13   25.20    1.17 
   8  -5  13   21.35    1.19 
   8  -5  13   20.81    1.16 
   8   5  13   22.88    1.19 
   8   5  13   19.92    1.13 
   9  -5  13   13.49    1.01 
   9  -5  13   13.45    1.07 
   9   5  13   11.34    0.89 
   0  -6  13  136.19    3.47 
   0   6 -13  125.87    3.46 
   0   6  13  128.06    3.58 
   0   6  13  125.98    3.51 
   0   6  13  133.83    3.48 
  -1   6  13   59.90    1.89 
  -1   6  13   62.91    1.82 
  -1   6  13   59.25    1.82 
   1  -6  13   61.94    1.84 
   1  -6  13   63.73    1.82 
   1   6 -13   60.05    1.81 
   1   6  13   62.32    1.98 
  -1  -6  13   63.45    1.80 
   1   6  13   62.82    1.93 
  -1  -6  13   65.37    1.82 
   1   6  13   64.93    1.92 
  -1   6 -13   65.27    1.93 
   2   6 -13   70.65    2.11 
  -2   6  13   76.60    2.23 
  -2   6  13   73.83    2.15 
   2  -6  13   80.15    2.22 
   2   6 -13   74.27    2.19 
   2  -6  13   76.09    2.19 
  -2  -6  13   70.07    1.90 
   2   6  13   71.79    2.08 
  -2  -6  13   69.40    1.89 
   2   6  13   70.32    2.15 
   2   6  13   67.62    2.09 
   3  -6  13   47.40    1.57 
   3  -6  13   43.99    1.55 
   3   6 -13   47.20    1.44 
  -3   6  13   49.33    1.55 
  -3   6  13   49.24    1.46 
   3   6  13   49.86    1.66 
   3   6  13   50.68    1.73 
   3   6  13   52.20    1.66 
   4  -6  13   33.92    1.31 
   4  -6  13   35.85    1.31 
  -4   6  13   36.51    1.13 
   4   6 -13   33.71    1.13 
  -4   6  13   34.53    1.22 
   4   6  13   34.18    1.29 
   4   6  13   33.70    1.28 
   4   6  13   34.53    1.34 
   5   6 -13   38.69    1.16 
  -5   6  13   38.12    1.12 
   5  -6  13   39.76    1.45 
   5  -6  13   37.97    1.44 
   5   6 -13   37.66    1.19 
   5   6  13   40.78    1.46 
   5   6  13   40.93    1.54 
   5   6  13   40.16    1.45 
  -5   6 -13   37.74    1.45 
   6  -6  13   27.30    1.24 
   6   6 -13   26.56    0.84 
   6  -6  13   28.61    1.22 
   6   6 -13   28.31    0.93 
   6   6  13   28.12    1.20 
   6   6  13   25.94    1.18 
  -6   6 -13   27.65    1.22 
   6   6  13   27.81    1.28 
   7  -6  13   15.47    0.99 
   7  -6  13   15.03    1.01 
   7   6 -13   15.48    0.62 
   7   6  13   17.90    1.09 
   7   6  13   18.20    1.02 
   7   6  13   17.71    1.01 
   8  -6  13   34.72    1.54 
   8  -6  13   32.64    1.50 
   8   6  13   30.33    1.40 
   8   6  13   34.75    1.47 
   8   6  13   31.71    1.49 
   9  -6  13    9.81    0.90 
   9  -6  13    8.30    0.86 
   9   6  13   12.31    0.97 
   0   7  13   24.33    0.97 
   0   7  13   25.58    0.99 
   0  -7  13   24.93    0.92 
   0   7  13   25.39    1.05 
   0   7 -13   24.81    1.03 
   1  -7  13   70.87    2.05 
  -1   7  13   70.37    2.07 
   1   7 -13   68.63    2.03 
   1  -7  13   73.73    2.08 
  -1   7  13   69.13    2.14 
  -1   7  13   70.39    2.06 
   1   7  13   76.57    2.22 
  -1  -7  13   75.42    2.10 
  -1  -7  13   73.95    2.10 
   1   7  13   75.46    2.23 
   1   7  13   77.77    2.31 
   2   7 -13   62.02    1.84 
   2  -7  13   62.41    1.93 
   2  -7  13   64.78    1.93 
  -2   7  13   59.77    1.94 
  -2   7  13   64.99    1.88 
  -2   7  13   64.06    1.87 
   2   7  13   61.35    1.95 
  -2  -7  13   66.71    1.77 
   2   7  13   64.21    1.98 
   2   7  13   65.64    2.05 
   3   7 -13   20.76    0.85 
   3  -7  13   23.54    0.99 
  -3   7  13   21.74    0.88 
  -3   7  13   22.75    0.96 
   3  -7  13   23.51    1.00 
   3   7  13   22.72    0.99 
   3   7  13   22.25    0.98 
   3   7  13   22.43    1.04 
  -4   7  13   85.11    2.34 
  -4   7  13   83.87    2.45 
   4   7 -13   84.29    2.31 
   4  -7  13   88.24    2.50 
   4  -7  13   81.41    2.51 
   4   7 -13   80.32    2.35 
  -4   7 -13   81.73    2.47 
   4   7  13   80.49    2.43 
   4   7  13   84.13    2.47 
   4   7  13   81.43    2.54 
   5  -7  13    8.64    0.71 
   5   7 -13    8.59    0.48 
  -5   7  13    8.73    0.49 
   5  -7  13    9.37    0.75 
   5   7  13   10.29    0.84 
   5   7  13   11.04    0.78 
  -5   7 -13   10.43    0.78 
   5   7  13   10.86    0.79 
   6  -7  13   31.91    1.37 
   6  -7  13   34.07    1.42 
   6   7 -13   32.50    0.98 
   6   7  13   31.05    1.33 
   6   7  13   34.53    1.46 
   6   7  13   33.43    1.36 
  -6   7 -13   34.06    1.37 
   7  -7  13   22.78    1.23 
   7  -7  13   22.17    1.21 
   7   7  13   26.39    1.23 
   7   7  13   25.22    1.22 
   7   7  13   25.82    1.30 
   8  -7  13    2.96    0.61 
   8  -7  13    3.66    0.65 
   8   7  13    3.57    0.61 
   8   7  13    3.23    0.63 
   8   7  13    2.76    0.57 
   9  -7  13   17.84    1.22 
   9  -7  13   19.68    1.29 
   0   8  13  161.62    4.37 
   0   8  13  158.97    4.29 
   0  -8  13  157.85    4.20 
   0   8  13  159.50    4.23 
   1  -8  13    3.30    0.39 
  -1   8  13    3.83    0.43 
  -1   8  13    4.02    0.49 
   1  -8  13    3.70    0.40 
   1   8 -13    3.44    0.41 
  -1   8  13    3.20    0.40 
  -1  -8  13    6.59    0.47 
   1   8  13    6.94    0.62 
   1   8  13    6.77    0.56 
   1   8  13    5.42    0.50 
  -2   8  13   55.88    1.86 
   2   8 -13   58.29    1.76 
  -2   8  13   58.15    1.80 
   2  -8  13   59.13    1.83 
   2  -8  13   60.61    1.82 
   2   8  13   64.19    1.96 
  -2  -8  13   63.62    1.71 
   2   8  13   61.48    1.93 
   2   8  13   58.46    1.99 
  -2   8 -13   60.57    1.94 
   3  -8  13   77.65    2.36 
  -3   8  13   82.15    2.38 
  -3   8  13   73.63    2.25 
   3   8 -13   80.48    2.23 
   3  -8  13   79.77    2.34 
  -3   8 -13   80.29    2.51 
   3   8  13   83.69    2.52 
   3   8  13   90.02    2.52 
   3   8  13   85.40    2.59 
  -4   8  13    0.78    0.31 
   4  -8  13    0.55    0.36 
   4  -8  13    0.43    0.34 
  -4   8  13    1.05    0.30 
   4   8 -13    0.98    0.26 
   4   8  13    1.23    0.38 
  -4   8 -13    1.45    0.41 
   4   8  13    1.16    0.40 
   4   8  13    0.64    0.36 
   5  -8  13   59.29    1.94 
   5   8 -13   57.79    1.67 
  -5   8  13   58.98    1.70 
   5  -8  13   55.18    1.94 
  -5   8 -13   62.11    2.09 
   5   8  13   63.90    2.08 
   5   8  13   66.55    2.18 
   5   8  13   64.47    2.10 
   6  -8  13   27.77    1.31 
   6   8 -13   27.51    0.88 
   6  -8  13   27.79    1.26 
  -6   8 -13   28.25    1.27 
   6   8  13   29.35    1.28 
   6   8  13   26.49    1.24 
   6   8  13   27.90    1.31 
   7  -8  13   16.06    1.10 
   7  -8  13   13.57    1.03 
   7   8  13   13.91    0.99 
   7   8  13   16.49    1.03 
   7   8  13   17.23    1.08 
   8  -8  13   34.08    1.56 
   8  -8  13   35.02    1.57 
   8   8  13   31.14    1.46 
   8   8  13   35.50    1.59 
   8   8  13   33.07    1.49 
   9  -8  13    1.42    0.61 
   0   9  13    6.42    0.54 
   0   9  13    6.10    0.53 
   0   9  13    6.83    0.61 
   0   9 -13    6.78    0.56 
   0  -9  13    6.25    0.51 
  -1   9  13   67.92    2.09 
   1  -9  13   64.86    2.03 
  -1   9  13   70.50    2.17 
  -1   9  13   70.56    2.09 
   1   9 -13   68.98    2.06 
   1   9  13   74.80    2.26 
   1   9  13   67.63    2.15 
  -1   9 -13   71.64    2.16 
  -1  -9  13   69.37    2.00 
   1   9  13   70.18    2.18 
   2  -9  13   76.63    2.26 
  -2   9  13   77.10    2.25 
   2  -9  13   74.52    2.23 
  -2   9  13   76.66    2.32 
   2   9 -13   71.89    2.19 
  -2  -9  13   64.36    1.79 
   2   9  13   65.04    2.12 
   2   9  13   65.33    2.04 
  -2   9 -13   66.25    2.05 
   2   9  13   64.18    2.05 
   3   9 -13    8.27    0.58 
  -3   9  13    7.99    0.61 
   3  -9  13    7.84    0.62 
  -3   9  13    9.55    0.71 
   3  -9  13    9.16    0.72 
  -3   9 -13    5.86    0.57 
   3   9  13    6.30    0.62 
   3   9  13    8.05    0.66 
   3   9  13    7.57    0.63 
   4  -9  13   84.55    2.52 
   4   9 -13   85.81    2.35 
  -4   9  13   82.37    2.50 
  -4   9  13   81.68    2.39 
   4  -9  13   82.79    2.54 
  -4   9 -13   79.26    2.43 
   4   9  13   78.91    2.41 
   4   9  13   79.67    2.49 
   4   9  13   74.93    2.39 
   5  -9  13    2.02    0.49 
  -5   9  13    1.46    0.31 
   5  -9  13    1.20    0.44 
   5   9 -13    1.49    0.29 
   5   9  13    1.54    0.43 
   5   9  13    2.28    0.51 
   5   9  13    2.41    0.47 
  -5   9 -13    1.29    0.44 
   6  -9  13   34.52    1.46 
   6   9 -13   32.86    1.06 
   6  -9  13   35.37    1.47 
  -6   9 -13   36.89    1.48 
   6   9  13   31.71    1.40 
   6   9  13   32.77    1.41 
   6   9  13   31.56    1.47 
   7  -9  13   16.46    1.12 
   7  -9  13   17.01    1.12 
   7   9  13   15.73    1.04 
   7   9  13   16.94    1.04 
   7   9  13   14.44    1.09 
   8  -9  13    0.59    0.56 
   8  -9  13   -0.44    0.50 
   8   9  13    0.44    0.52 
   8   9  13    0.98    0.51 
   9  -9  13   18.66    1.35 
   0  10 -13  134.40    3.65 
   0 -10  13  129.77    3.54 
   0  10  13  129.81    3.73 
   0  10  13  132.28    3.67 
   0  10  13  132.38    3.63 
   1  10 -13    3.75    0.46 
  -1  10  13    5.04    0.57 
   1 -10  13    4.98    0.49 
  -1  10  13    4.36    0.51 
  -1 -10  13    5.10    0.42 
   1  10  13    3.40    0.49 
   1  10  13    4.30    0.52 
  -1  10 -13    2.72    0.44 
   1  10  13    3.75    0.48 
  -2  10  13   69.62    2.23 
   2  10 -13   69.79    2.12 
  -2  10  13   72.18    2.17 
   2 -10  13   71.63    2.17 
  -2  10 -13   72.94    2.26 
   2  10  13   69.93    2.32 
   2  10  13   74.32    2.26 
   2  10  13   74.76    2.28 
  -2 -10  13   71.00    1.98 
  -3  10  13   16.93    0.91 
   3  10 -13   16.26    0.80 
  -3  10  13   16.60    0.85 
   3 -10  13   16.28    0.90 
   3  10  13   17.24    0.97 
   3  10  13   16.41    0.92 
  -3  10 -13   14.94    0.92 
   3  10  13   15.84    0.91 
  -4  10  13   12.29    0.79 
   4 -10  13   10.99    0.85 
  -4  10  13   11.72    0.71 
   4  10 -13   10.62    0.63 
   4 -10  13   11.14    0.85 
   4  10  13    7.09    0.66 
  -4  10 -13    8.18    0.71 
   4  10  13    9.15    0.79 
   4  10  13   10.20    0.80 
   5  10 -13   26.76    1.01 
   5 -10  13   29.00    1.30 
  -5  10  13   28.97    1.08 
   5 -10  13   28.25    1.30 
   5  10  13   19.75    1.07 
   5  10  13   20.15    1.06 
   5  10  13   18.69    1.10 
  -5  10 -13   19.67    1.09 
   6  10 -13   14.62    0.68 
   6 -10  13   15.17    1.06 
   6 -10  13   16.50    1.08 
  -6  10 -13   11.85    0.97 
   6  10  13   12.46    1.01 
   6  10  13   11.56    0.91 
   6  10  13   12.94    0.95 
   7 -10  13    6.44    0.75 
   7 -10  13    6.01    0.72 
   7  10  13    4.86    0.66 
   7  10  13    4.03    0.68 
   7  10  13    6.26    0.71 
   8 -10  13   22.72    1.35 
   8 -10  13   19.61    1.30 
   8  10  13   19.87    1.28 
   8  10  13   17.49    1.18 
   0  11  13    6.31    0.62 
   0 -11  13    7.71    0.55 
   0  11 -13    6.47    0.59 
   0  11  13    7.64    0.65 
   0  11  13    6.88    0.59 
  -1  11  13   30.00    1.27 
   1 -11  13   27.77    1.12 
  -1  11  13   29.59    1.19 
   1  11 -13   30.29    1.19 
   1  11  13   29.13    1.20 
   1  11  13   28.85    1.26 
  -1 -11  13   28.13    1.01 
  -1  11 -13   26.50    1.17 
   1  11  13   28.34    1.19 
   2  11 -13   27.96    1.12 
  -2  11  13   29.60    1.24 
  -2  11  13   27.75    1.15 
   2 -11  13   26.93    1.14 
   2  11  13   28.64    1.29 
   2  11  13   28.38    1.23 
  -2 -11  13   29.88    0.95 
   2  11  13   30.32    1.25 
  -2  11 -13   27.69    1.23 
   3 -11  13   16.60    0.93 
   3  11 -13   15.31    0.81 
  -3  11  13   15.78    0.92 
  -3  11  13   15.84    0.87 
   3  11  13   10.39    0.84 
   3  11  13   11.91    0.88 
   3  11  13   12.87    0.86 
  -3  11 -13   11.79    0.86 
   4 -11  13   43.66    1.65 
   4  11 -13   43.48    1.44 
  -4  11  13   44.29    1.61 
  -4  11  13   43.38    1.51 
   4  11  13   49.79    1.80 
   4  11  13   52.26    1.90 
   4  11  13   51.22    1.81 
  -4  11 -13   49.46    1.82 
  -5  11  13    7.34    0.58 
   5 -11  13    7.17    0.71 
   5  11 -13    7.18    0.55 
   5  11  13    8.56    0.77 
   5  11  13    9.42    0.85 
   5  11  13    9.08    0.79 
  -5  11 -13    9.72    0.83 
   6 -11  13   28.22    1.38 
   6  11  13   27.32    1.40 
  -6  11 -13   28.41    1.37 
   6  11  13   28.81    1.35 
   6  11  13   27.08    1.31 
   7 -11  13    9.03    0.86 
   7  11  13    8.15    0.82 
   7  11  13    7.71    0.86 
   7  11  13    8.11    0.81 
   0  12 -13   29.62    1.22 
   0  12  13   29.30    1.29 
   0 -12  13   27.13    1.08 
   0  12  13   26.63    1.18 
   1 -12  13   13.05    0.80 
   1  12 -13   13.50    0.83 
  -1  12  13   13.19    0.83 
  -1  12  13   12.50    0.88 
  -1 -12  13   14.33    0.71 
   1  12  13   14.27    0.88 
   1  12  13   15.57    0.97 
  -1  12 -13   15.11    0.90 
   1  12  13   14.13    0.89 
   2 -12  13   17.88    0.94 
   2  12 -13   17.47    0.90 
  -2  12  13   18.53    1.05 
  -2  12  13   18.03    0.94 
  -2 -12  13   16.16    0.67 
   2  12  13   16.36    1.02 
   2  12  13   15.64    0.94 
   2  12  13   18.19    0.97 
  -2  12 -13   17.33    0.97 
  -3  12  13   29.35    1.20 
   3 -12  13   27.42    1.21 
   3  12 -13   25.71    1.11 
  -3  12  13   29.50    1.28 
   3  12  13   26.96    1.24 
   3  12  13   25.54    1.25 
  -3  12 -13   23.03    1.18 
   3  12  13   25.78    1.20 
  -4  12  13    8.24    0.67 
   4 -12  13    7.19    0.68 
  -4  12  13    8.13    0.74 
   4  12 -13    7.91    0.61 
   4  12  13   10.34    0.85 
   4  12  13    9.43    0.78 
   4  12  13    9.76    0.85 
  -4  12 -13   10.17    0.81 
   5 -12  13   26.25    1.29 
  -5  12  13   26.49    1.10 
   5  12 -13   25.13    1.01 
   5  12  13   26.00    1.32 
   5  12  13   26.51    1.27 
  -5  12 -13   23.74    1.24 
   5  12  13   26.38    1.28 
   6 -12  13   16.95    1.17 
   6  12  13   22.49    1.23 
   6  12  13   20.40    1.29 
  -6  12 -13   20.73    1.19 
   6  12  13   21.17    1.18 
   7 -12  13   12.08    0.97 
   7  12  13   11.08    0.94 
   7  12  13   10.09    0.99 
   7  12  13   11.05    0.94 
   0 -13  13   24.20    1.00 
   0  13 -13   21.14    1.08 
   0  13  13   23.20    1.11 
   0  13  13   22.02    1.16 
  -1  13  13   21.04    1.05 
   1  13 -13   21.20    1.05 
  -1  13  13   20.90    1.14 
   1 -13  13   20.09    0.99 
  -1 -13  13   21.24    0.87 
   1  13  13   20.31    1.06 
  -1  13 -13   19.18    1.07 
   1  13  13   19.74    1.12 
   1  13  13   21.79    1.09 
   2 -13  13   21.58    1.05 
   2  13 -13   20.97    1.02 
  -2  13  13   20.45    1.04 
  -2  13  13   19.48    1.11 
  -2  13 -13   20.17    1.08 
   2  13  13   20.24    1.07 
   2  13  13   21.51    1.11 
   2  13  13   19.75    1.13 
  -3  13  13   14.22    0.97 
   3 -13  13   13.48    0.94 
   3  13 -13   14.25    0.83 
  -3  13  13   14.41    0.90 
   3  13  13   12.49    0.94 
   3  13  13   15.05    1.02 
  -3  13 -13   14.70    1.00 
   3  13  13   13.76    0.98 
   4 -13  13   32.29    1.43 
  -4  13  13   36.94    1.40 
   4  13 -13   33.82    1.28 
   4  13  13   33.36    1.45 
   4  13  13   30.60    1.40 
   4  13  13   30.27    1.45 
  -4  13 -13   30.72    1.41 
   5 -13  13   10.81    0.86 
  -5  13  13    9.54    0.76 
   5  13 -13   10.48    0.70 
   5  13  13    9.12    0.82 
   5  13  13    9.27    0.85 
   5  13  13    9.31    0.89 
  -5  13 -13    9.13    0.84 
   6 -13  13   20.14    1.26 
   6  13  13   14.76    1.07 
   6  13  13   13.83    1.08 
   6  13  13   16.03    1.20 
  -6  13 -13   13.92    1.06 
   7  13  13    6.72    0.78 
   0  14  13   16.76    1.08 
   0 -14  13   17.53    0.88 
   0  14  13   17.89    1.00 
   0  14 -13   16.39    0.99 
  -1  14  13   34.89    1.43 
   1  14 -13   35.08    1.42 
  -1  14  13   32.94    1.50 
   1 -14  13   36.55    1.35 
   1  14  13   30.43    1.44 
   1  14  13   32.51    1.38 
  -1  14 -13   31.23    1.40 
  -1 -14  13   33.74    1.16 
   2 -14  13   20.97    1.06 
   2  14 -13   21.24    1.05 
  -2  14  13   20.17    1.15 
  -2  14  13   20.42    1.08 
  -2  14 -13   17.13    1.03 
   2  14  13   13.61    1.03 
   2  14  13   16.27    1.00 
   2  14  13   15.11    0.98 
  -3  14  13   12.07    0.89 
   3 -14  13   11.08    0.90 
  -3  14  13    9.27    0.87 
   3  14 -13   12.71    0.84 
   3  14  13   13.87    0.98 
   3  14  13   15.00    1.03 
   3  14  13   13.92    1.05 
  -3  14 -13   13.56    1.01 
  -4  14  13   14.52    0.93 
   4 -14  13   13.17    1.01 
   4  14 -13   14.17    0.84 
   4  14  13   12.25    0.97 
   4  14  13   12.26    1.01 
  -4  14 -13   11.69    0.95 
   4  14  13   11.69    0.94 
  -5  14  13   11.22    0.84 
   5 -14  13    9.23    0.85 
   5  14 -13   10.87    0.74 
  -5  14 -13   12.09    0.99 
   5  14  13   12.34    1.05 
   5  14  13   12.89    1.05 
   5  14  13   10.76    0.91 
   6  14  13    6.80    0.80 
  -6  14 -13    7.11    0.83 
   6  14  13    5.89    0.75 
   0  15 -13   18.80    1.07 
   0 -15  13   18.73    0.93 
   0  15  13   17.72    1.06 
   0  15  13   18.11    1.16 
  -1  15  13   14.64    1.07 
  -1  15  13   14.89    0.98 
   1 -15  13   14.79    0.91 
   1  15 -13   15.59    0.98 
  -1  15 -13   16.33    1.04 
  -1 -15  13   16.43    0.82 
   1  15  13   17.10    1.13 
   1  15  13   17.40    1.06 
   2 -15  13    7.73    0.70 
  -2  15  13    8.76    0.75 
  -2  15  13    8.21    0.85 
   2  15 -13    7.91    0.71 
   2  15  13   10.46    0.86 
  -2  15 -13    9.32    0.83 
   2  15  13    9.71    0.92 
  -3  15  13   27.66    1.39 
   3  15 -13   28.19    1.23 
  -3  15  13   23.62    1.25 
   3 -15  13   29.74    1.33 
  -3  15 -13   32.44    1.46 
   3  15  13   29.94    1.42 
   3  15  13   29.50    1.51 
   3  15  13   27.80    1.38 
   4  15 -13    7.92    0.67 
   4 -15  13    6.91    0.74 
  -4  15  13    7.63    0.72 
   4  15  13    6.96    0.82 
  -4  15 -13    7.80    0.83 
   4  15  13    9.04    0.85 
   4  15  13    7.33    0.77 
  -5  15  13   20.74    1.10 
   5  15 -13   21.07    1.02 
   5  15  13   20.21    1.25 
  -5  15 -13   21.82    1.27 
   5  15  13   19.65    1.45 
   5  15  13   20.10    1.28 
   6  15  13    7.80    0.84 
   6  15  13    9.28    1.01 
  -6  15 -13    8.00    0.87 
   0  16 -13    4.80    0.66 
   0 -16  13    5.32    0.56 
   0  16  13    4.42    0.71 
   0  16  13    5.80    0.69 
  -1  16  13   20.07    1.29 
  -1  16  13   19.11    1.13 
   1 -16  13   20.28    1.05 
   1  16 -13   20.07    1.14 
   1  16  13   16.62    1.12 
  -1  16 -13   19.92    1.20 
  -1 -16  13   20.78    0.92 
   1  16  13   17.96    1.21 
  -2  16  13   17.82    1.11 
  -2  16  13   20.41    1.27 
   2  16 -13   19.28    1.05 
   2 -16  13   17.04    1.05 
   2  16  13   16.90    1.19 
  -2  16 -13   18.44    1.16 
   2  16  13   17.29    1.14 
  -3  16  13    7.96    0.78 
   3 -16  13    9.44    0.80 
  -3  16  13    8.57    0.88 
   3  16 -13    8.70    0.73 
  -3  16 -13    4.82    0.72 
   3  16  13    3.70    0.62 
   3  16  13    6.33    0.79 
   4 -16  13   27.18    1.40 
  -4  16  13   26.85    1.32 
   4  16 -13   28.39    1.25 
  -4  16 -13   29.50    1.48 
   4  16  13   27.65    1.44 
   4  16  13   27.06    1.44 
  -5  16  13   11.23    0.92 
   5  16 -13   11.51    0.85 
   5  16  13   10.66    1.00 
  -5  16 -13   13.05    1.06 
   0  17 -13   36.16    1.56 
   0  17  13   36.67    1.71 
   0  17  13   34.90    1.55 
   0 -17  13   32.09    1.32 
   1  17 -13    5.06    0.66 
   1 -17  13    4.58    0.57 
  -1  17  13    3.97    0.64 
  -1  17  13    4.77    0.75 
   1  17  13    4.46    0.74 
   1  17  13    4.20    0.64 
  -1  17 -13    4.89    0.70 
  -2  17  13   20.77    1.33 
   2  17 -13   17.68    1.11 
   2 -17  13   18.79    1.11 
  -2  17  13   19.02    1.16 
  -2  17 -13   22.68    1.29 
   2  17  13   20.41    1.32 
   2  17  13   17.80    1.20 
  -3  17  13   24.59    1.29 
  -3  17  13   22.61    1.35 
   3 -17  13   24.36    1.31 
   3  17 -13   24.37    1.22 
   3  17  13   24.96    1.43 
  -3  17 -13   27.61    1.45 
   0 -18  13    0.85    0.42 
   0  18  13    0.20    0.56 
   1 -18  13   30.00    1.32 
  -1  18  13   30.28    1.60 
  -2  18  13   12.27    1.11 
   0   0  14    9.33    0.56 
   0   0 -14    8.36    0.53 
   0   0  14    9.21    0.52 
   0   0  14    8.99    0.50 
  -1   0 -14   25.63    0.95 
   1   0  14   26.73    0.96 
   1   0  14   26.00    1.01 
  -1   0  14   26.32    0.89 
   1   0  14   26.24    0.95 
  -1   0  14   25.10    0.88 
  -1   0  14   24.17    0.94 
   1   0 -14   24.31    0.91 
  -2   0  14   17.32    0.72 
  -2   0  14   17.47    0.65 
   2   0  14   17.60    0.78 
  -2   0  14   15.52    0.64 
   2   0 -14   17.95    0.72 
   2   0  14   17.54    0.83 
   2   0  14   15.65    0.75 
  -3   0  14  105.72    2.87 
  -3   0  14  108.00    2.78 
   3   0  14  111.50    3.08 
   3   0  14  107.95    2.99 
   3   0  14  104.56    2.94 
  -3   0  14  108.96    2.76 
   3   0 -14   99.79    2.90 
   3   0 -14  106.68    2.84 
   4   0  14    0.38    0.30 
   4   0  14    0.09    0.27 
   4   0 -14    0.15    0.20 
   5   0  14   65.80    2.01 
   5   0  14   62.65    2.01 
   6   0  14   10.53    0.74 
   6   0  14    9.63    0.76 
   7   0  14   25.33    1.18 
   7   0  14   24.50    1.16 
   8   0  14    9.03    0.76 
   8   0  14    8.74    0.79 
   9   0  14    1.19    0.53 
   9   0  14    1.40    0.50 
   0   1  14    6.27    0.45 
   0  -1  14    5.24    0.41 
   0  -1  14    4.89    0.44 
   0   1  14    6.69    0.50 
   0   1 -14    6.00    0.46 
   0   1  14    5.91    0.45 
   0  -1  14    6.87    0.46 
   0  -1 -14    6.31    0.46 
   1  -1  14  105.12    2.90 
   1   1 -14  106.66    2.85 
  -1   1  14  106.25    2.93 
  -1  -1 -14  107.72    2.91 
   1  -1  14  106.57    2.87 
   1  -1  14  107.73    2.99 
  -1   1  14  104.81    2.86 
   1   1  14   97.76    2.73 
   1   1  14  102.92    2.78 
  -1  -1  14  103.02    2.70 
  -1  -1  14   97.71    2.65 
  -1   1 -14  100.05    2.74 
  -1  -1  14  101.52    2.78 
   1   1  14  101.24    2.84 
   1  -1 -14   98.06    2.71 
  -2   1  14   22.25    0.78 
  -2   1  14   21.15    0.76 
   2  -1  14   21.18    0.87 
  -2   1  14   20.99    0.84 
   2  -1  14   22.07    0.89 
   2   1 -14   21.81    0.82 
   2   1  14   26.61    0.98 
   2  -1 -14   22.94    0.89 
   2   1  14   24.17    1.02 
   2   1  14   25.11    0.97 
  -2  -1  14   26.04    0.84 
  -2  -1  14   25.08    0.83 
  -3   1  14   23.62    0.87 
   3   1 -14   23.52    0.86 
   3   1 -14   22.35    0.91 
  -3   1  14   23.14    0.76 
   3  -1  14   23.70    0.96 
   3  -1  14   24.30    0.96 
  -3   1  14   23.17    0.78 
   3   1  14   22.27    0.98 
   3   1  14   23.22    0.93 
   3   1  14   23.56    0.95 
   3  -1 -14   20.78    0.83 
  -3  -1  14   21.44    0.68 
   3  -1 -14   20.16    0.83 
  -4   1  14   29.26    0.96 
   4  -1  14   27.29    1.11 
   4   1 -14   28.90    0.98 
   4  -1  14   27.90    1.10 
   4   1  14   34.63    1.29 
   4   1  14   34.76    1.35 
   4   1  14   37.79    1.33 
   5   1 -14   10.57    0.57 
   5  -1  14   10.36    0.70 
   5  -1  14    9.61    0.72 
   5   1  14   14.46    0.82 
   5   1  14   14.97    0.84 
   6  -1  14   16.91    0.94 
   6  -1  14   15.98    0.89 
   6   1  14   23.07    1.08 
   6   1  14   22.68    1.05 
   7  -1  14   43.30    1.64 
   7  -1  14   44.76    1.62 
   7   1  14   44.72    1.61 
   7   1  14   42.31    1.60 
   8  -1  14    2.98    0.55 
   8  -1  14    3.32    0.59 
   8   1  14    5.10    0.63 
   8   1  14    4.94    0.63 
   9  -1  14   34.78    1.53 
   9  -1  14   33.42    1.52 
   9   1  14   38.74    1.61 
   9   1  14   38.44    1.64 
   0   2  14   70.85    2.15 
   0  -2  14   72.29    2.03 
   0   2  14   75.38    2.09 
   0  -2  14   76.16    2.07 
   0   2 -14   69.41    2.07 
   0   2  14   71.84    2.05 
   0  -2 -14   73.87    2.08 
  -1   2  14   24.87    0.88 
   1  -2  14   22.52    0.90 
   1   2 -14   24.22    0.89 
  -1   2  14   23.92    0.93 
   1  -2  14   23.47    0.89 
   1   2  14   22.42    0.88 
  -1   2 -14   20.16    0.87 
   1   2  14   24.74    0.97 
  -1  -2  14   22.07    0.81 
   1  -2 -14   25.87    0.91 
  -1  -2  14   23.25    0.83 
   1   2  14   24.11    0.91 
   2   2 -14   31.46    1.08 
  -2   2  14   32.64    1.10 
   2  -2  14   31.51    1.13 
  -2   2  14   32.14    1.03 
  -2   2  14   29.99    1.02 
   2  -2  14   33.36    1.13 
   2   2 -14   30.54    1.06 
  -2  -2  14   39.08    1.19 
   2   2  14   41.81    1.35 
  -2  -2  14   40.14    1.19 
   2   2  14   38.92    1.31 
   2  -2 -14   40.28    1.28 
   2   2  14   40.47    1.41 
  -3   2  14   78.36    2.13 
   3   2 -14   78.29    2.18 
  -3   2  14   76.51    2.23 
   3  -2  14   80.43    2.33 
   3  -2  14   82.46    2.30 
   3   2  14   81.29    2.42 
   3   2  14   79.73    2.34 
   3   2  14   78.77    2.31 
  -3  -2  14   80.52    2.07 
   4  -2  14    3.00    0.43 
   4  -2  14    3.78    0.46 
  -4   2  14    3.15    0.32 
   4   2 -14    3.12    0.33 
   4   2  14   11.39    0.70 
   4   2  14   10.89    0.74 
   4   2  14   11.23    0.70 
   5  -2  14   59.44    1.91 
   5   2 -14   58.41    1.68 
   5  -2  14   57.44    1.87 
   5   2  14   57.94    1.88 
   5   2  14   57.98    1.95 
   5   2  14   58.99    1.89 
   6  -2  14    4.87    0.55 
   6  -2  14    5.23    0.59 
   6   2  14    4.87    0.55 
   6   2  14    4.78    0.57 
   7  -2  14   11.38    0.88 
   7  -2  14   10.12    0.83 
   7   2  14    9.87    0.77 
   7   2  14    9.25    0.74 
   8  -2  14   14.36    1.03 
   8  -2  14   15.75    1.04 
   8   2  14   13.07    0.94 
   8   2  14   12.87    0.94 
   9  -2  14    3.36    0.62 
   9  -2  14    3.13    0.61 
   9   2  14    4.51    0.67 
   9   2  14    2.63    0.59 
   0   3  14   10.50    0.58 
   0  -3  14   10.38    0.55 
   0  -3 -14    9.07    0.57 
   0  -3  14   10.74    0.56 
   0   3  14   10.58    0.58 
   0   3  14   11.91    0.65 
   0   3 -14    9.92    0.59 
  -1   3  14  174.69    4.45 
   1  -3  14  177.15    4.48 
   1  -3  14  175.81    4.56 
  -1   3  14  174.46    4.53 
  -1   3  14  170.22    4.59 
   1   3 -14  170.15    4.46 
   1   3  14  174.34    4.60 
  -1  -3  14  181.10    4.52 
   1   3  14  174.41    4.67 
   1   3  14  177.91    4.53 
  -1  -3  14  172.43    4.44 
  -1   3 -14  169.40    4.52 
  -2   3  14   48.60    1.48 
   2   3 -14   50.28    1.51 
  -2   3  14   49.20    1.47 
   2   3 -14   50.59    1.55 
   2  -3  14   51.78    1.57 
   2  -3  14   50.06    1.58 
  -2   3  14   50.67    1.57 
   2   3  14   43.33    1.49 
   2   3  14   44.38    1.42 
  -2  -3  14   43.00    1.26 
   2   3  14   43.87    1.43 
  -2  -3  14   41.01    1.26 
   3  -3  14   27.10    1.05 
  -3   3  14   27.75    0.90 
   3  -3  14   26.19    1.03 
  -3   3  14   25.54    0.97 
   3   3 -14   27.16    0.95 
   3   3  14   24.82    1.00 
   3   3  14   23.33    1.04 
   3   3  14   23.84    0.99 
   4   3 -14   15.01    0.67 
  -4   3  14   16.25    0.56 
   4  -3  14   15.70    0.82 
  -4   3  14   14.51    0.67 
   4  -3  14   14.71    0.81 
   4   3  14   13.60    0.78 
   4   3  14   14.36    0.83 
   4   3  14   14.38    0.80 
   5  -3  14    6.55    0.59 
   5   3 -14    6.65    0.47 
   5  -3  14    7.16    0.61 
   5   3  14    3.35    0.50 
   5   3  14    3.21    0.46 
   5   3  14    3.88    0.49 
   6  -3  14   16.83    0.96 
   6  -3  14   16.08    0.95 
   6   3 -14   16.68    0.69 
   6   3  14   15.57    0.93 
   6   3  14   16.58    0.98 
   6   3  14   17.27    0.93 
   7  -3  14   36.19    1.47 
   7  -3  14   35.30    1.47 
   7   3  14   37.01    1.47 
   7   3  14   37.34    1.48 
   8  -3  14   12.83    0.99 
   8  -3  14   11.77    0.95 
   8   3  14   13.32    0.95 
   8   3  14   10.60    0.86 
   9  -3  14   26.69    1.37 
   9  -3  14   26.68    1.36 
   9   3  14   28.26    1.36 
   0   4  14   32.82    1.12 
   0  -4  14   32.67    1.08 
   0   4  14   32.95    1.11 
   0   4  14   30.90    1.18 
   0  -4  14   32.23    1.07 
   0   4 -14   29.80    1.09 
   1   4 -14   19.04    0.80 
  -1   4  14   21.94    0.90 
   1  -4  14   20.26    0.84 
   1  -4  14   20.62    0.85 
  -1   4  14   22.64    0.84 
  -1   4  14   21.39    0.83 
  -1  -4  14   30.76    1.03 
   1   4  14   32.74    1.14 
   1   4  14   29.86    1.11 
   1   4  14   34.32    1.22 
  -1  -4  14   30.73    1.03 
  -1   4 -14   32.54    1.13 
   2  -4  14   32.85    1.16 
  -2   4  14   31.80    1.07 
   2   4 -14   31.48    1.07 
  -2   4  14   30.78    1.07 
   2   4 -14   29.83    1.13 
   2  -4  14   32.79    1.15 
  -2   4  14   34.24    1.16 
   2   4  14   39.06    1.37 
  -2  -4  14   41.53    1.22 
   2   4  14   40.64    1.39 
   2   4  14   42.94    1.47 
  -2  -4  14   41.86    1.22 
  -3   4  14  121.23    3.20 
   3  -4  14  120.24    3.31 
  -3   4  14  121.55    3.30 
   3  -4  14  122.65    3.35 
   3   4 -14  119.01    3.18 
   3   4  14  115.14    3.26 
   3   4  14  121.38    3.32 
   3   4  14  120.81    3.38 
  -4   4  14   67.60    1.99 
  -4   4  14   67.41    1.84 
   4  -4  14   69.15    2.09 
   4  -4  14   68.03    2.09 
   4   4 -14   66.48    1.91 
   4   4  14   67.66    2.06 
   4   4  14   65.19    2.06 
   4   4  14   68.31    2.15 
   5  -4  14   94.73    2.82 
   5  -4  14   95.78    2.80 
   5   4 -14   97.16    2.57 
   5   4  14   99.07    2.84 
   5   4  14   98.17    2.96 
   5   4  14   99.00    2.88 
   6  -4  14   25.38    1.18 
   6   4 -14   25.14    0.90 
   6  -4  14   24.70    1.17 
   6   4  14   22.12    1.14 
   6   4  14   22.63    1.10 
   6   4  14   22.60    1.08 
   7  -4  14   25.84    1.24 
   7  -4  14   26.69    1.25 
   7   4  14   26.04    1.22 
   7   4  14   25.41    1.20 
   8  -4  14    6.50    0.72 
   8  -4  14    6.26    0.70 
   8   4  14    7.65    0.76 
   8   4  14    7.78    0.74 
   9  -4  14    3.11    0.63 
   9  -4  14    2.81    0.63 
   9   4  14    2.62    0.56 
   0   5  14  103.27    2.85 
   0  -5  14  104.36    2.81 
   0   5  14  101.99    2.82 
   0   5 -14  102.77    2.81 
   0   5  14   99.93    2.91 
  -1   5  14   56.20    1.69 
   1  -5  14   55.67    1.68 
   1   5 -14   55.36    1.67 
  -1   5  14   57.14    1.76 
   1  -5  14   55.99    1.70 
  -1   5  14   52.79    1.66 
   1   5  14   46.87    1.51 
   1   5  14   47.22    1.57 
   1   5  14   47.82    1.50 
  -1  -5  14   47.29    1.39 
  -1   5 -14   43.07    1.47 
  -1  -5  14   44.33    1.38 
   2  -5  14   64.11    1.90 
  -2   5  14   66.62    1.87 
  -2   5  14   60.48    1.91 
   2   5 -14   62.78    1.83 
  -2   5  14   63.17    1.84 
   2  -5  14   61.81    1.92 
   2   5  14   59.63    1.97 
  -2  -5  14   61.97    1.71 
   2   5  14   63.22    1.91 
   2   5  14   62.45    1.90 
   3  -5  14   21.89    0.94 
  -3   5  14   20.81    0.80 
   3  -5  14   20.78    0.93 
  -3   5  14   20.81    0.88 
   3   5 -14   20.51    0.81 
   3   5  14   18.92    0.89 
   3   5  14   20.06    0.96 
   3   5  14   18.63    0.90 
   4  -5  14   25.42    1.08 
  -4   5  14   23.89    0.84 
   4   5 -14   23.62    0.89 
   4  -5  14   26.28    1.09 
  -4   5  14   24.95    0.97 
   4   5  14   24.17    1.04 
   4   5  14   25.00    1.07 
   4   5  14   22.07    1.08 
   5  -5  14   11.57    0.81 
   5   5 -14   12.79    0.64 
   5  -5  14   12.40    0.83 
   5   5  14   19.04    1.01 
   5   5  14   17.16    0.93 
   5   5  14   18.56    0.94 
   6   5 -14   35.81    1.05 
   6  -5  14   32.92    1.41 
   6  -5  14   37.32    1.45 
   6   5  14   36.04    1.40 
   6   5  14   34.42    1.39 
   6   5  14   35.47    1.47 
   7  -5  14   23.75    1.22 
   7  -5  14   25.24    1.24 
   7   5  14   33.08    1.45 
   7   5  14   30.12    1.36 
   7   5  14   29.57    1.33 
   8  -5  14   35.44    1.52 
   8  -5  14   33.98    1.55 
   8   5  14   34.84    1.52 
   8   5  14   33.81    1.49 
   9  -5  14   15.25    1.19 
   9  -5  14   16.52    1.20 
   9   5  14   17.64    1.14 
   0   6  14    6.66    0.53 
   0   6  14    6.40    0.57 
   0  -6  14    5.55    0.45 
   0   6  14    6.80    0.53 
  -1   6  14   26.16    1.05 
   1  -6  14   25.78    0.98 
   1  -6  14   24.11    0.98 
  -1   6  14   25.16    0.99 
  -1   6  14   26.90    0.99 
   1   6  14   25.45    1.02 
  -1  -6  14   26.40    0.91 
   1   6  14   25.15    1.03 
   1   6  14   25.32    1.07 
   2  -6  14   97.62    2.66 
   2  -6  14   93.62    2.67 
  -2   6  14   92.51    2.69 
  -2   6  14   90.36    2.60 
   2   6  14   83.29    2.55 
   2   6  14   90.00    2.63 
   2   6  14   87.38    2.53 
  -2  -6  14   89.84    2.34 
  -3   6  14   31.79    1.08 
  -3   6  14   32.10    1.17 
   3  -6  14   30.09    1.19 
   3  -6  14   30.21    1.18 
   3   6  14   32.26    1.22 
   3   6  14   30.59    1.20 
   3   6  14   30.54    1.27 
  -4   6  14  116.29    3.24 
  -4   6  14  119.00    3.11 
   4  -6  14  115.92    3.32 
   4  -6  14  115.54    3.28 
   4   6  14  111.11    3.22 
   4   6  14  106.41    3.13 
   4   6  14  110.93    3.11 
   5  -6  14   23.14    1.07 
   5   6 -14   21.13    0.78 
   5  -6  14   20.43    1.06 
   5   6  14   21.67    1.14 
   5   6  14   23.14    1.07 
   5   6  14   23.68    1.10 
   6   6 -14   50.30    1.43 
   6  -6  14   49.26    1.82 
   6  -6  14   53.15    1.83 
   6   6  14   45.85    1.68 
  -6   6 -14   48.29    1.71 
   6   6  14   44.65    1.68 
   6   6  14   48.56    1.78 
   7  -6  14    4.27    0.63 
   7  -6  14    4.05    0.61 
   7   6  14    7.23    0.76 
   7   6  14    7.61    0.73 
   7   6  14    8.05    0.74 
   8  -6  14    1.42    0.55 
   8  -6  14    1.07    0.52 
   8   6  14    0.94    0.48 
   8   6  14    0.26    0.46 
   9  -6  14    7.65    0.84 
   9  -6  14    6.86    0.82 
   0   7  14  200.67    5.27 
   0   7  14  208.49    5.36 
   0  -7  14  200.19    5.27 
   0   7  14  205.28    5.43 
   1  -7  14   22.43    0.92 
  -1   7  14   21.38    0.92 
  -1   7  14   21.03    0.97 
   1  -7  14   23.49    0.93 
  -1   7  14   22.83    0.94 
   1   7  14   26.63    1.06 
   1   7  14   26.87    1.12 
  -1  -7  14   25.45    0.92 
   1   7  14   26.11    1.05 
   2  -7  14   83.64    2.41 
  -2   7  14   78.13    2.36 
   2  -7  14   82.74    2.42 
  -2   7  14   84.37    2.46 
   2   7  14   81.55    2.39 
   2   7  14   78.70    2.40 
   2   7  14   81.67    2.48 
  -2  -7  14   81.22    2.18 
   3  -7  14   15.94    0.88 
  -3   7  14   17.12    0.85 
  -3   7  14   17.21    0.78 
   3  -7  14   18.91    0.90 
   3   7  14   19.26    0.99 
   3   7  14   19.25    0.94 
   3   7  14   17.88    0.91 
  -4   7  14    0.90    0.32 
   4   7 -14    0.75    0.26 
   4  -7  14    0.99    0.37 
   4  -7  14    0.22    0.35 
  -4   7  14    0.58    0.26 
  -4   7 -14    1.11    0.38 
   4   7  14    1.03    0.41 
   4   7  14    1.39    0.39 
   4   7  14    0.96    0.40 
   5   7 -14   16.52    0.70 
   5  -7  14   19.22    1.00 
   5  -7  14   18.14    1.00 
  -5   7  14   17.28    0.69 
   5   7  14   17.03    1.00 
   5   7  14   16.44    0.95 
   5   7  14   15.75    0.93 
  -5   7 -14   16.01    0.94 
   6  -7  14   41.32    1.61 
   6   7 -14   41.72    1.22 
   6  -7  14   41.40    1.63 
  -6   7 -14   39.07    1.54 
   6   7  14   38.62    1.53 
   6   7  14   39.38    1.60 
   6   7  14   38.17    1.52 
   7  -7  14   14.51    1.10 
   7  -7  14   17.08    1.10 
   7   7  14   14.98    0.99 
   7   7  14   13.41    1.03 
   7   7  14   12.27    0.94 
   8  -7  14   62.73    2.24 
   8  -7  14   61.01    2.20 
   8   7  14   58.24    2.09 
   8   7  14   57.69    2.18 
   8   7  14   57.34    2.09 
   9  -7  14    3.12    0.67 
   0  -8  14    1.45    0.31 
   0   8  14    1.43    0.37 
   0   8  14    1.09    0.32 
   0   8  14    1.30    0.32 
  -1   8  14   17.07    0.81 
  -1   8  14   16.71    0.82 
  -1   8  14   17.00    0.87 
   1  -8  14   14.80    0.78 
   1   8  14   18.74    0.89 
   1   8  14   17.98    0.88 
   1   8  14   17.81    0.93 
  -1  -8  14   17.99    0.74 
  -2   8  14   80.30    2.33 
   2  -8  14   79.22    2.34 
   2  -8  14   82.14    2.37 
  -2   8  14   81.01    2.43 
   2   8 -14   76.06    2.29 
   2   8  14   70.98    2.19 
  -2  -8  14   73.09    1.97 
   2   8  14   72.41    2.21 
   2   8  14   70.38    2.27 
   3  -8  14    3.97    0.48 
  -3   8  14    3.08    0.45 
   3  -8  14    3.88    0.49 
  -3   8  14    3.92    0.43 
   3   8 -14    4.28    0.43 
   3   8  14    1.97    0.44 
   3   8  14    2.18    0.42 
   3   8  14    2.27    0.42 
  -3   8 -14    2.39    0.44 
   4  -8  14  156.09    4.23 
  -4   8  14  154.38    4.11 
   4   8 -14  155.88    4.07 
  -4   8  14  156.08    4.24 
   4  -8  14  151.34    4.27 
   4   8  14  149.00    4.15 
  -4   8 -14  151.24    4.16 
   4   8  14  144.59    4.23 
   4   8  14  151.96    4.11 
  -5   8  14    0.58    0.25 
   5  -8  14    1.06    0.44 
   5  -8  14    0.87    0.43 
   5   8 -14    1.00    0.26 
   5   8  14    1.93    0.50 
   5   8  14    1.52    0.44 
  -5   8 -14    1.40    0.42 
   5   8  14    1.48    0.43 
   6  -8  14   46.67    1.78 
   6  -8  14   49.08    1.82 
   6   8 -14   48.13    1.40 
  -6   8 -14   48.98    1.79 
   6   8  14   49.13    1.87 
   6   8  14   50.16    1.80 
   6   8  14   46.08    1.76 
   7  -8  14    6.97    0.79 
   7  -8  14    9.80    0.83 
   7   8  14    7.91    0.83 
   7   8  14    8.58    0.80 
   7   8  14    7.03    0.74 
   8  -8  14    2.92    0.65 
   8  -8  14    4.05    0.68 
   8   8  14    2.65    0.60 
   8   8  14    3.27    0.68 
   8   8  14    2.27    0.58 
   9  -8  14    1.15    0.65 
   0   9  14  143.64    4.00 
   0  -9  14  146.90    3.89 
   0   9  14  143.30    3.96 
   0   9  14  150.29    4.10 
   0   9 -14  145.67    3.98 
   1  -9  14   16.28    0.81 
   1   9 -14   17.10    0.85 
  -1   9  14   16.93    0.93 
  -1   9  14   16.47    0.85 
   1   9  14   20.26    0.98 
   1   9  14   22.19    1.06 
  -1  -9  14   21.20    0.84 
   1   9  14   21.67    1.00 
  -1   9 -14   20.23    0.97 
  -2   9  14   87.79    2.55 
   2   9 -14   88.03    2.52 
   2  -9  14   87.39    2.57 
  -2   9  14   87.17    2.65 
   2   9  14   91.93    2.74 
   2   9  14   85.74    2.63 
   2   9  14   87.76    2.62 
  -2  -9  14   88.05    2.37 
  -2   9 -14   88.76    2.64 
   3   9 -14   20.18    0.88 
  -3   9  14   20.43    0.91 
   3  -9  14   18.19    0.98 
  -3   9  14   21.88    1.02 
  -3   9 -14   23.40    1.09 
   3   9  14   23.10    1.09 
   3   9  14   21.97    1.12 
   3   9  14   23.90    1.09 
   4   9 -14    2.90    0.37 
   4  -9  14    2.42    0.48 
   4  -9  14    3.03    0.49 
  -4   9  14    2.99    0.45 
  -4   9  14    2.21    0.38 
   4   9  14    2.97    0.49 
  -4   9 -14    1.97    0.48 
   4   9  14    2.90    0.53 
   4   9  14    2.91    0.50 
   5  -9  14   11.57    0.91 
   5  -9  14   10.37    0.80 
  -5   9  14   11.20    0.64 
   5   9 -14   10.69    0.60 
   5   9  14   13.56    0.93 
   5   9  14   13.90    0.94 
  -5   9 -14   13.75    0.94 
   5   9  14   13.14    0.97 
   6  -9  14   26.83    1.33 
   6  -9  14   26.69    1.30 
   6   9  14   27.82    1.30 
   6   9  14   25.39    1.27 
   6   9  14   25.54    1.35 
  -6   9 -14   26.20    1.28 
   7  -9  14    2.78    0.61 
   7  -9  14    3.12    0.63 
   7   9  14    1.36    0.56 
   7   9  14    1.16    0.49 
   7   9  14    0.90    0.46 
   8  -9  14   29.63    1.50 
   8  -9  14   28.88    1.44 
   8   9  14   27.08    1.42 
   8   9  14   28.59    1.48 
   8   9  14   30.17    1.56 
   0  10  14   -0.06    0.31 
   0  10 -14    0.05    0.33 
   0  10  14    0.23    0.30 
   0  10  14    0.21    0.29 
   0 -10  14   -0.15    0.26 
   1  10 -14   28.14    1.15 
  -1  10  14   30.34    1.26 
   1 -10  14   27.34    1.10 
  -1  10  14   28.92    1.17 
   1  10  14   25.43    1.16 
   1  10  14   23.07    1.08 
  -1  10 -14   23.52    1.07 
   1  10  14   23.34    1.08 
  -1 -10  14   22.67    0.90 
  -2  10  14   47.23    1.66 
  -2  10  14   44.57    1.56 
   2  10 -14   44.94    1.53 
   2 -10  14   45.35    1.58 
  -2 -10  14   48.17    1.43 
   2  10  14   49.53    1.80 
  -2  10 -14   53.19    1.75 
   2  10  14   48.12    1.71 
   2  10  14   49.44    1.73 
  -3  10  14   23.24    0.99 
   3  10 -14   20.36    0.93 
   3 -10  14   22.87    1.07 
  -3  10  14   20.86    1.06 
   3  10  14   21.90    1.09 
   3  10  14   21.68    1.13 
   3  10  14   20.45    1.06 
  -3  10 -14   24.38    1.11 
   4  10 -14   55.11    1.69 
  -4  10  14   51.12    1.72 
   4 -10  14   57.71    1.90 
  -4  10  14   52.78    1.92 
   4  10  14   60.58    2.00 
  -4  10 -14   55.05    1.98 
   4  10  14   56.72    1.96 
   4  10  14   58.70    2.06 
  -5  10  14    6.92    0.54 
   5  10 -14    6.78    0.54 
   5 -10  14    6.79    0.70 
  -5  10 -14    7.68    0.74 
   5  10  14    6.77    0.70 
   5  10  14    6.21    0.73 
   5  10  14    7.06    0.70 
   6 -10  14   34.93    1.54 
   6  10  14   30.86    1.43 
   6  10  14   30.97    1.42 
   6  10  14   31.58    1.49 
  -6  10 -14   31.73    1.43 
   7 -10  14    2.39    0.61 
   7  10  14    3.28    0.61 
   7  10  14    3.14    0.60 
   7  10  14    3.43    0.68 
   0  11 -14   72.85    2.22 
   0  11  14   70.10    2.22 
   0 -11  14   69.76    2.08 
   0  11  14   67.18    2.29 
   1 -11  14    8.29    0.62 
  -1  11  14    8.43    0.68 
  -1  11  14    7.91    0.75 
   1  11 -14    9.06    0.72 
  -1 -11  14    5.32    0.45 
   1  11  14    6.08    0.61 
  -1  11 -14    6.16    0.63 
   1  11  14    6.40    0.64 
   1  11  14    7.02    0.72 
  -2  11  14   45.05    1.64 
   2  11 -14   45.54    1.52 
  -2  11  14   41.56    1.54 
   2 -11  14   41.47    1.51 
  -2 -11  14   48.08    1.40 
   2  11  14   48.00    1.78 
   2  11  14   48.33    1.73 
   2  11  14   44.83    1.70 
  -2  11 -14   49.81    1.74 
   3  11 -14    7.95    0.64 
   3 -11  14    8.26    0.70 
  -3  11  14    9.00    0.68 
  -3  11  14    8.30    0.72 
   3  11  14    4.41    0.59 
  -3  11 -14    2.91    0.52 
   3  11  14    3.60    0.53 
   3  11  14    5.04    0.64 
   4 -11  14    2.41    0.52 
  -4  11  14    3.08    0.45 
   4  11 -14    3.27    0.44 
   4  11  14    3.91    0.56 
   4  11  14    2.63    0.55 
  -4  11 -14    2.81    0.55 
   4  11  14    3.78    0.57 
   5 -11  14   18.06    1.11 
  -5  11  14   16.58    0.85 
   5  11 -14   15.97    0.78 
   5  11  14    9.90    0.82 
   5  11  14   10.01    0.84 
  -5  11 -14   12.03    0.92 
   5  11  14   10.33    0.90 
   6 -11  14   19.40    1.19 
   6  11  14   16.83    1.10 
  -6  11 -14   18.09    1.11 
   6  11  14   15.77    1.09 
   6  11  14   17.02    1.20 
   7 -11  14   10.16    0.91 
   7  11  14    9.62    0.96 
   7  11  14    9.29    0.86 
   7  11  14   11.70    0.95 
   0  12 -14    3.42    0.51 
   0 -12  14    3.65    0.45 
   0  12  14    3.93    0.59 
   0  12  14    3.55    0.51 
   1 -12  14   11.83    0.78 
   1  12 -14   14.34    0.86 
  -1  12  14   11.69    0.83 
  -1  12  14   12.77    0.91 
  -1  12 -14   11.37    0.86 
   1  12  14   10.77    0.87 
   1  12  14    9.55    0.80 
  -1 -12  14   10.47    0.64 
   1  12  14    9.26    0.84 
  -2  12  14   28.31    1.28 
   2  12 -14   26.52    1.16 
  -2  12  14   29.09    1.22 
   2 -12  14   26.86    1.16 
  -2  12 -14   33.45    1.38 
   2  12  14   29.76    1.35 
   2  12  14   30.93    1.40 
   2  12  14   32.00    1.36 
  -2 -12  14   31.08    1.03 
  -3  12  14   14.44    0.96 
   3  12 -14   15.25    0.85 
  -3  12  14   15.60    0.91 
   3 -12  14   15.39    0.96 
  -3  12 -14   12.27    0.91 
   3  12  14   11.68    0.89 
   3  12  14   10.48    0.85 
   3  12  14   11.28    0.93 
  -4  12  14   46.67    1.60 
   4 -12  14   46.91    1.71 
   4  12 -14   41.98    1.50 
   4  12  14   42.48    1.69 
   4  12  14   45.32    1.78 
   4  12  14   46.40    1.72 
  -4  12 -14   41.17    1.69 
   5 -12  14    8.80    0.81 
  -5  12  14    8.06    0.64 
   5  12 -14    9.16    0.64 
  -5  12 -14   10.22    0.86 
   5  12  14    7.71    0.77 
   5  12  14    7.05    0.75 
   5  12  14    7.20    0.81 
   6 -12  14   25.48    1.38 
  -6  12 -14   22.64    1.26 
   6  12  14   20.83    1.24 
   6  12  14   22.75    1.27 
   6  12  14   23.24    1.37 
   7  12  14    4.38    0.71 
   7  12  14    3.96    0.69 
   0  13 -14   32.47    1.32 
   0  13  14   31.82    1.33 
   0 -13  14   28.40    1.17 
   0  13  14   31.13    1.41 
   1 -13  14   28.52    1.18 
  -1  13  14   28.68    1.33 
   1  13 -14   26.69    1.22 
  -1  13  14   27.72    1.25 
   1  13  14   23.16    1.27 
   1  13  14   26.40    1.24 
  -1  13 -14   26.60    1.23 
  -1 -13  14   28.11    1.02 
   2 -13  14   14.41    0.91 
  -2  13  14   15.27    0.93 
   2  13 -14   14.02    0.88 
  -2  13  14   14.74    0.99 
  -2  13 -14   13.08    0.93 
   2  13  14   13.66    0.92 
   2  13  14   12.17    0.97 
   2  13  14   13.47    0.94 
   3  13 -14   11.63    0.80 
  -3  13  14   11.25    0.91 
  -3  13  14   11.05    0.84 
   3 -13  14   11.00    0.88 
   3  13  14   14.42    1.03 
  -3  13 -14   13.57    0.98 
   3  13  14   14.46    0.99 
   3  13  14   13.71    1.06 
  -4  13  14    0.74    0.39 
   4  13 -14    0.64    0.35 
   4 -13  14    0.86    0.47 
  -4  13 -14    1.96    0.54 
   4  13  14    2.12    0.58 
   4  13  14    2.39    0.54 
   4  13  14    2.82    0.56 
   5  13 -14    4.87    0.49 
  -5  13  14    4.06    0.52 
   5 -13  14    4.38    0.65 
  -5  13 -14    6.86    0.78 
   5  13  14    6.31    0.81 
   5  13  14    6.25    0.72 
   5  13  14    6.72    0.75 
   6 -13  14    6.69    0.81 
   6  13  14    9.55    0.90 
  -6  13 -14    8.25    0.87 
   6  13  14    8.96    0.96 
   6  13  14    8.82    0.85 
   7  13  14   10.64    0.95 
   0  14 -14   11.06    0.90 
   0 -14  14   10.44    0.75 
   0  14  14   10.93    0.88 
   0  14  14   12.01    0.96 
   1 -14  14    8.86    0.69 
   1  14 -14    9.81    0.81 
  -1  14  14   10.28    0.88 
  -1  14  14   10.63    0.86 
  -1 -14  14   10.51    0.68 
  -1  14 -14   10.79    0.88 
   1  14  14   10.04    0.83 
   1  14  14    9.01    0.85 
  -2  14  14   19.71    1.20 
   2 -14  14   20.23    1.09 
  -2  14  14   21.02    1.11 
   2  14 -14   19.30    1.04 
   2  14  14   16.68    1.12 
  -2  14 -14   15.71    1.07 
   2  14  14   17.40    1.07 
   3  14 -14   21.35    1.04 
  -3  14  14   19.84    1.11 
  -3  14  14   20.21    1.17 
   3 -14  14   19.60    1.13 
   3  14  14   29.10    1.40 
   3  14  14   25.74    1.34 
   3  14  14   30.30    1.46 
  -3  14 -14   28.28    1.40 
  -4  14  14   20.33    1.07 
   4  14 -14   18.92    0.97 
   4 -14  14   18.71    1.17 
   4  14  14   17.38    1.14 
   4  14  14   19.30    1.24 
  -4  14 -14   17.09    1.18 
   4  14  14   18.56    1.19 
   5  14 -14   16.92    0.90 
  -5  14  14   16.68    0.96 
   5 -14  14   16.79    1.15 
   5  14  14   17.05    1.15 
   5  14  14   19.26    1.25 
   5  14  14   17.41    1.15 
  -5  14 -14   16.82    1.16 
   6  14  14    8.26    0.86 
   6  14  14   10.01    0.91 
  -6  14 -14    9.80    0.93 
   0 -15  14   35.75    1.33 
   0  15  14   34.83    1.60 
   0  15 -14   36.35    1.54 
   0  15  14   36.77    1.52 
   1 -15  14   25.52    1.15 
  -1  15  14   24.45    1.33 
   1  15 -14   25.90    1.23 
  -1  15  14   26.17    1.27 
   1  15  14   28.93    1.49 
   1  15  14   27.55    1.35 
  -1 -15  14   28.28    1.09 
  -1  15 -14   30.19    1.40 
  -2  15  14   25.81    1.29 
   2 -15  14   27.13    1.26 
  -2  15  14   27.98    1.42 
   2  15 -14   28.19    1.28 
  -2  15 -14   25.36    1.30 
   2  15  14   23.35    1.34 
   2  15  14   23.74    1.27 
  -3  15  14    8.48    0.77 
   3 -15  14    8.43    0.78 
  -3  15  14    8.51    0.85 
   3  15 -14    8.50    0.71 
   3  15  14    6.72    0.76 
  -3  15 -14    6.69    0.77 
   3  15  14    7.08    0.81 
   4 -15  14    7.85    0.80 
  -4  15  14    9.42    0.78 
   4  15 -14    9.38    0.78 
  -4  15 -14    6.35    0.78 
   4  15  14    6.12    0.75 
   4  15  14    6.27    0.74 
   4  15  14    5.47    0.77 
   5  15 -14    3.12    0.49 
  -5  15  14    3.42    0.56 
  -5  15 -14    3.44    0.70 
   5  15  14    3.55    0.66 
   5  15  14    3.75    0.67 
  -6  15 -14    4.04    0.78 
   0  16  14    3.94    0.61 
   0 -16  14    4.43    0.52 
   0  16 -14    4.35    0.66 
   0  16  14    5.37    0.75 
   1 -16  14    5.40    0.60 
  -1  16  14    3.66    0.67 
   1  16 -14    4.67    0.64 
  -1  16  14    4.23    0.63 
   1  16  14    5.31    0.78 
   1  16  14    5.98    0.71 
  -1  16 -14    5.85    0.75 
   2 -16  14    3.73    0.58 
   2  16 -14    4.44    0.61 
  -2  16  14    4.69    0.65 
  -2  16  14    5.61    0.77 
  -2  16 -14    6.94    0.81 
   2  16  14    7.57    0.88 
   2  16  14    7.68    0.79 
   3  16 -14   32.33    1.40 
  -3  16  14   35.34    1.67 
  -3  16  14   32.41    1.48 
   3 -16  14   33.27    1.47 
   3  16  14   31.68    1.60 
  -3  16 -14   34.42    1.59 
   3  16  14   30.22    1.52 
  -4  16  14    6.22    0.70 
   4  16 -14    7.76    0.70 
   4  16  14    8.60    0.96 
  -4  16 -14    7.43    0.86 
   5  16 -14   27.43    1.29 
   5  16  14   26.96    1.44 
   0  17 -14    0.35    0.51 
   0 -17  14    0.65    0.41 
   0  17  14    0.77    0.48 
   0  17  14    0.17    0.56 
   1  17 -14   50.41    1.96 
   1 -17  14   53.08    1.80 
  -1  17  14   50.96    1.97 
  -1  17  14   51.95    2.11 
   1  17  14   49.40    2.08 
  -1  17 -14   55.11    2.06 
   1  17  14   48.92    1.99 
  -2  17  14    1.92    0.58 
  -2  17  14    3.98    0.71 
   2 -17  14    2.78    0.56 
   1 -18  14    5.75    0.63 
  -1  18  14    4.50    0.77 
  -2  18  14    4.58    0.77 
   0   0  15    0.08    0.19 
   0   0 -15   -0.19    0.21 
   0   0  15   -0.19    0.19 
   0   0  15    0.28    0.23 
   1   0  15   73.14    2.13 
   1   0 -15   71.58    2.09 
  -1   0  15   73.92    2.15 
   1   0  15   74.93    2.12 
   1   0  15   73.30    2.20 
  -1   0  15   71.75    2.04 
  -1   0  15   74.35    2.07 
   2   0  15   10.94    0.65 
  -2   0  15   11.66    0.61 
  -2   0  15   10.79    0.53 
  -2   0  15   11.72    0.54 
   2   0  15   11.92    0.68 
   2   0  15   11.50    0.71 
   2   0 -15   11.78    0.61 
   3   0  15    5.39    0.50 
   3   0 -15    5.24    0.43 
  -3   0  15    6.37    0.36 
  -3   0  15    6.19    0.46 
   3   0  15    6.31    0.52 
   3   0  15    6.11    0.55 
   4   0  15   20.13    0.96 
   4   0  15   22.12    0.98 
   5   0  15   11.51    0.76 
   5   0  15   11.90    0.80 
   6   0  15   12.50    0.86 
   6   0  15   13.17    0.86 
   7   0  15   53.14    1.86 
   7   0  15   50.77    1.83 
   8   0  15    2.83    0.56 
   8   0  15    1.72    0.52 
   9   0  15   32.88    1.55 
   9   0  15   33.73    1.54 
   0   1  15    4.45    0.45 
   0  -1 -15    3.14    0.36 
   0   1  15    3.55    0.37 
   0  -1  15    3.82    0.42 
   0   1  15    3.59    0.37 
   0  -1  15    4.77    0.40 
   0  -1  15    3.47    0.36 
   0   1 -15    3.07    0.37 
  -1   1  15   21.44    0.89 
  -1   1  15   21.20    0.81 
   1   1 -15   19.26    0.83 
   1  -1  15   21.85    0.86 
   1  -1  15   21.16    0.86 
   1   1  15   15.94    0.79 
  -1  -1  15   15.94    0.67 
   1   1  15   16.01    0.74 
  -1  -1  15   14.52    0.64 
   1   1  15   15.93    0.74 
  -1   1 -15   14.60    0.73 
   1  -1 -15   15.19    0.71 
  -2   1  15    5.48    0.42 
  -2   1  15    5.57    0.40 
   2  -1  15    5.73    0.47 
   2   1 -15    6.04    0.48 
   2  -1  15    5.87    0.49 
  -2   1  15    5.62    0.47 
   2   1  15    7.39    0.61 
   2  -1 -15    8.92    0.55 
   2   1  15    8.12    0.58 
  -2  -1  15    8.55    0.46 
  -2  -1  15    8.19    0.46 
   2   1  15    8.47    0.60 
   3   1 -15  100.09    2.77 
  -3   1  15   99.86    2.69 
  -3   1  15  104.92    2.82 
   3  -1  15  104.02    2.87 
   3  -1  15  103.65    2.90 
   3   1  15   93.61    2.69 
   3  -1 -15   93.47    2.69 
   3   1  15   99.16    2.80 
   3   1  15   96.29    2.73 
  -3  -1  15   90.01    2.45 
   4  -1  15    2.32    0.40 
   4  -1  15    1.56    0.37 
   4   1  15    2.59    0.43 
   4   1  15    1.84    0.38 
   4   1  15    2.60    0.47 
   5  -1  15   94.15    2.80 
   5  -1  15   99.95    2.87 
   5   1  15   86.10    2.62 
   5   1  15   89.10    2.59 
   6  -1  15    1.80    0.46 
   6  -1  15    1.94    0.45 
   6   1  15    0.89    0.39 
   6   1  15    0.23    0.37 
   7  -1  15   14.67    0.93 
   7  -1  15   12.80    0.96 
   7   1  15   14.87    0.97 
   7   1  15   14.64    0.96 
   8  -1  15    3.55    0.59 
   8  -1  15    2.76    0.58 
   8   1  15    3.40    0.57 
   8   1  15    4.00    0.63 
   9  -1  15    2.68    0.63 
   9  -1  15    2.93    0.64 
   9   1  15    3.08    0.59 
   9   1  15    1.47    0.57 
   0   2  15   31.58    1.10 
   0  -2  15   31.17    1.08 
   0   2 -15   31.25    1.13 
   0  -2 -15   31.68    1.12 
   0   2  15   33.27    1.12 
   0   2  15   32.68    1.18 
   0  -2  15   31.29    1.07 
   1  -2  15  183.81    4.75 
   1  -2  15  186.50    4.85 
   1   2 -15  186.96    4.75 
  -1   2  15  176.65    4.79 
  -1   2  15  189.63    4.88 
   1  -2 -15  182.38    4.90 
  -1  -2  15  194.67    4.93 
   1   2  15  192.02    5.08 
  -1   2 -15  191.09    4.94 
   1   2  15  192.42    4.93 
  -1  -2  15  192.15    4.84 
   1   2  15  191.81    5.01 
  -2   2  15   13.08    0.61 
   2  -2  15   13.49    0.71 
  -2   2  15   13.66    0.69 
   2  -2  15   13.23    0.72 
  -2   2  15   13.33    0.61 
   2   2 -15   13.43    0.66 
  -2  -2  15   15.83    0.64 
   2  -2 -15   16.55    0.76 
   2   2  15   17.24    0.87 
   2   2  15   16.70    0.79 
   2   2  15   16.27    0.79 
  -3   2  15   46.16    1.41 
   3  -2  15   43.73    1.46 
   3  -2  15   41.17    1.47 
  -3   2  15   43.49    1.28 
   3   2 -15   41.96    1.35 
   3   2  15   44.51    1.53 
   3   2  15   45.27    1.52 
   3   2  15   46.20    1.59 
  -3  -2  15   44.64    1.24 
  -4   2  15    1.73    0.18 
   4  -2  15    2.13    0.40 
   4  -2  15    1.14    0.37 
   4   2  15    1.45    0.37 
   4   2  15    2.52    0.42 
   4   2  15    1.97    0.43 
   5  -2  15    4.21    0.52 
   5  -2  15    4.78    0.53 
   5   2  15    5.08    0.56 
   5   2  15    5.09    0.61 
   5   2  15    6.29    0.61 
   6  -2  15    1.64    0.44 
   6  -2  15    2.08    0.47 
   6   2  15    2.97    0.49 
   6   2  15    3.18    0.49 
   7  -2  15   39.45    1.55 
   7  -2  15   37.77    1.55 
   7   2  15   39.79    1.57 
   7   2  15   39.37    1.55 
   8  -2  15    3.40    0.60 
   8  -2  15    4.51    0.65 
   8   2  15    3.88    0.61 
   8   2  15    2.85    0.54 
   9  -2  15   30.45    1.49 
   9  -2  15   30.80    1.48 
   9   2  15   32.85    1.53 
   9   2  15   34.90    1.54 
   0   3 -15   10.32    0.60 
   0  -3  15    9.31    0.55 
   0  -3  15    9.07    0.55 
   0   3  15    8.85    0.62 
   0   3  15    9.80    0.59 
   0   3  15    9.32    0.57 
   1   3 -15   17.58    0.76 
  -1   3  15   16.64    0.73 
  -1   3  15   17.86    0.75 
  -1   3  15   16.95    0.80 
   1  -3  15   17.30    0.78 
   1  -3  15   18.14    0.79 
  -1   3 -15   19.46    0.83 
  -1  -3  15   18.32    0.73 
   1   3  15   18.70    0.89 
   1   3  15   18.48    0.82 
   1   3  15   17.12    0.81 
  -1  -3  15   17.91    0.73 
   2  -3  15   37.47    1.27 
   2   3 -15   36.33    1.22 
  -2   3  15   34.84    1.17 
   2  -3  15   37.36    1.28 
  -2   3  15   36.19    1.26 
   2   3  15   44.38    1.42 
   2   3  15   42.66    1.49 
   2   3  15   40.72    1.41 
  -2  -3  15   39.59    1.24 
  -3   3  15  112.21    3.03 
   3  -3  15  107.25    3.04 
   3   3 -15  109.87    2.95 
   3  -3  15  109.94    3.09 
  -3   3  15  109.09    2.91 
  -3  -3  15  109.52    2.75 
   3   3  15  109.71    3.02 
   3   3  15  107.86    3.13 
   3   3  15  104.33    3.05 
   4  -3  15   32.64    1.25 
   4  -3  15   32.68    1.24 
  -4   3  15   30.66    0.95 
   4   3  15   37.03    1.36 
   4   3  15   37.98    1.44 
   4   3  15   36.08    1.36 
   5  -3  15   81.44    2.49 
   5  -3  15   82.44    2.50 
   5   3  15   85.98    2.73 
   5   3  15   93.40    2.68 
   5   3  15   88.60    2.67 
   6  -3  15   18.87    1.05 
   6  -3  15   21.15    1.08 
   6   3  15   24.21    1.15 
   6   3  15   25.63    1.16 
   6   3  15   23.51    1.22 
   7  -3  15   11.77    0.95 
   7  -3  15   11.98    0.93 
   7   3  15   12.84    0.93 
   7   3  15   12.56    0.94 
   8  -3  15    0.90    0.49 
   8  -3  15    0.91    0.50 
   8   3  15    0.83    0.47 
   8   3  15    1.86    0.51 
   9  -3  15    2.98    0.62 
   9  -3  15    2.43    0.62 
   9   3  15    2.46    0.61 
   9   3  15    2.38    0.59 
   0   4  15   71.97    2.09 
   0  -4  15   66.98    2.00 
   0   4  15   69.17    2.16 
   0   4  15   72.28    2.07 
   0  -4  15   73.34    2.05 
  -1   4  15   91.71    2.55 
  -1   4  15   92.67    2.68 
   1  -4  15   92.69    2.58 
  -1   4  15   94.43    2.59 
   1  -4  15   89.86    2.59 
   1   4  15   94.84    2.59 
  -1  -4  15   88.82    2.49 
  -1  -4  15   91.80    2.49 
   1   4  15   90.96    2.68 
   1   4  15   88.96    2.59 
  -2   4  15   20.23    0.83 
   2  -4  15   21.04    0.92 
  -2   4  15   20.55    0.90 
   2  -4  15   21.58    0.91 
   2   4  15   23.44    1.05 
   2   4  15   23.64    0.98 
  -2  -4  15   24.02    0.81 
   2   4  15   21.69    0.97 
   3  -4  15    8.86    0.65 
   3  -4  15    7.88    0.64 
  -3   4  15    9.04    0.59 
  -3   4  15    8.45    0.51 
   3   4  15   12.05    0.74 
   3   4  15   10.69    0.71 
   3   4  15   10.87    0.77 
   4  -4  15    3.02    0.46 
   4  -4  15    2.23    0.42 
  -4   4  15    3.23    0.29 
   4   4  15    2.52    0.42 
   4   4  15    2.10    0.41 
   4   4  15    2.71    0.47 
   5  -4  15    7.88    0.67 
   5  -4  15    9.25    0.74 
   5   4  15    7.93    0.67 
   5   4  15    7.80    0.66 
   5   4  15    8.94    0.76 
   6  -4  15   16.62    1.01 
   6  -4  15   15.21    0.96 
   6   4  15   18.25    1.04 
   6   4  15   17.33    1.00 
   6   4  15   15.40    0.95 
   7  -4  15   39.69    1.56 
   7  -4  15   37.94    1.58 
   7   4  15   35.46    1.47 
   7   4  15   33.51    1.44 
   8  -4  15   23.84    1.29 
   8  -4  15   24.93    1.31 
   8   4  15   24.20    1.25 
   8   4  15   23.39    1.26 
   9  -4  15   20.70    1.28 
   9  -4  15   18.49    1.23 
   0  -5  15    0.19    0.14 
   0   5  15   -0.05    0.23 
   0   5  15   -0.01    0.27 
   0   5  15    0.18    0.25 
   0  -5  15    0.32    0.24 
  -1   5  15   11.21    0.69 
   1  -5  15   12.81    0.66 
  -1   5  15   12.37    0.65 
   1  -5  15   11.07    0.66 
  -1   5  15   11.17    0.64 
   1   5  15   14.77    0.76 
   1   5  15   13.82    0.73 
   1   5  15   13.74    0.80 
  -1  -5  15   13.75    0.64 
   2  -5  15   54.44    1.72 
  -2   5  15   56.39    1.67 
  -2   5  15   54.20    1.74 
   2  -5  15   52.06    1.72 
   2   5  15   41.42    1.46 
  -2  -5  15   42.84    1.27 
   2   5  15   45.17    1.57 
   2   5  15   42.91    1.48 
   3  -5  15   57.88    1.84 
  -3   5  15   57.60    1.81 
  -3   5  15   57.37    1.72 
   3  -5  15   59.00    1.86 
   3   5  15   71.96    2.22 
   3   5  15   73.86    2.30 
   3   5  15   71.81    2.21 
   4  -5  15  107.40    3.03 
   4  -5  15  107.12    3.01 
  -4   5  15   99.56    2.78 
   4   5  15  104.86    3.09 
   4   5  15  101.50    3.00 
   4   5  15  104.01    2.98 
   5  -5  15   62.21    2.05 
   5  -5  15   62.07    2.02 
   5   5  15   60.94    1.99 
   5   5  15   60.71    2.00 
   5   5  15   59.93    2.09 
   6  -5  15   33.78    1.43 
   6   5 -15   35.47    1.07 
   6  -5  15   34.54    1.44 
   6   5  15   37.95    1.56 
   6   5  15   37.47    1.50 
   6   5  15   38.27    1.48 
   7  -5  15   11.17    0.88 
   7  -5  15   12.43    0.99 
   7   5  15   14.84    0.99 
   7   5  15   12.93    1.03 
   7   5  15   12.84    0.97 
   8  -5  15    1.15    0.53 
   8  -5  15    1.40    0.53 
   8   5  15    2.13    0.55 
   8   5  15    1.13    0.51 
   9  -5  15    0.50    0.55 
   9  -5  15    1.06    0.60 
   0   6  15  217.73    5.73 
   0   6  15  221.64    5.65 
   0   6  15  215.97    5.79 
   0  -6  15  220.42    5.67 
  -1   6  15   72.96    2.14 
   1  -6  15   72.55    2.13 
  -1   6  15   74.56    2.16 
  -1   6  15   73.80    2.23 
   1  -6  15   69.60    2.14 
   1   6  15   70.50    2.12 
   1   6  15   68.44    2.13 
   1   6  15   72.97    2.22 
  -1  -6  15   69.75    2.00 
  -2   6  15  108.75    3.14 
  -2   6  15  108.10    3.05 
   2  -6  15  118.00    3.14 
   2  -6  15  109.32    3.08 
  -2  -6  15  113.14    2.91 
   2   6  15  110.60    3.11 
   2   6  15  108.76    3.13 
   2   6  15  108.94    3.22 
   3  -6  15   19.39    0.95 
  -3   6  15   20.53    0.92 
  -3   6  15   19.23    0.82 
   3  -6  15   20.96    0.96 
   3   6  15   19.46    1.00 
   3   6  15   17.70    0.91 
   3   6  15   17.33    0.91 
   4  -6  15    1.94    0.43 
   4  -6  15    3.57    0.51 
  -4   6  15    3.01    0.34 
   4   6  15    3.20    0.53 
   4   6  15    3.76    0.51 
   4   6  15    4.02    0.53 
   5   6 -15    0.09    0.22 
   5  -6  15   -0.32    0.33 
   5  -6  15    0.12    0.39 
   5   6  15    1.04    0.41 
   5   6  15    0.69    0.43 
   5   6  15    0.86    0.40 
   6   6 -15   26.80    0.90 
   6  -6  15   29.17    1.32 
   6  -6  15   28.52    1.28 
   6   6  15   22.36    1.14 
   6   6  15   22.99    1.20 
  -6   6 -15   21.46    1.12 
   6   6  15   20.99    1.09 
   7  -6  15    7.65    0.75 
   7  -6  15    8.33    0.80 
   7   6  15   14.48    1.01 
   7   6  15   14.11    1.07 
   7   6  15   13.58    0.98 
   8  -6  15   48.95    1.93 
   8  -6  15   50.71    1.97 
   8   6  15   45.08    1.82 
   8   6  15   48.03    1.85 
   9  -6  15   14.38    1.16 
   0   7  15    0.15    0.27 
   0   7  15    0.59    0.32 
   0   7  15    0.17    0.28 
   0  -7  15    0.23    0.27 
   1  -7  15   -0.15    0.27 
  -1   7  15   -0.07    0.26 
  -1   7  15    0.36    0.30 
   1   7  15    0.04    0.28 
  -1  -7  15    0.21    0.23 
   1   7  15    0.62    0.36 
   1   7  15    0.11    0.27 
  -2   7  15   75.16    2.25 
   2  -7  15   74.81    2.30 
   2  -7  15   77.90    2.30 
  -2   7  15   78.38    2.35 
   2   7  15   75.70    2.35 
  -2  -7  15   77.35    2.11 
   2   7  15   77.56    2.33 
   2   7  15   78.43    2.43 
   3  -7  15    2.77    0.45 
  -3   7  15    2.34    0.36 
   3  -7  15    2.83    0.44 
  -3   7  15    2.39    0.40 
   3   7  15    2.37    0.47 
   3   7  15    3.88    0.52 
   3   7  15    4.46    0.54 
   4  -7  15  143.13    3.96 
   4  -7  15  148.32    4.02 
   4   7 -15  138.25    3.79 
  -4   7  15  144.12    3.80 
   4   7  15  133.36    3.75 
   4   7  15  135.38    3.88 
   4   7  15  134.16    3.79 
   5  -7  15    2.53    0.51 
   5   7 -15    2.13    0.31 
   5  -7  15    2.68    0.51 
   5   7  15    1.50    0.45 
   5   7  15    1.51    0.42 
   5   7  15    1.56    0.48 
  -5   7 -15    1.71    0.47 
   6   7 -15   64.93    1.88 
   6  -7  15   73.72    2.32 
   6  -7  15   68.59    2.31 
   6   7  15   60.87    2.11 
  -6   7 -15   64.53    2.15 
   6   7  15   61.78    2.20 
   6   7  15   61.93    2.11 
   7  -7  15    1.39    0.55 
   7  -7  15    0.99    0.50 
   7   7  15    0.34    0.51 
   7   7  15    0.77    0.46 
   7   7  15    0.63    0.46 
   8  -7  15    1.51    0.58 
   8  -7  15    1.92    0.62 
   8   7  15    2.35    0.60 
   8   7  15    2.30    0.64 
   8   7  15    1.71    0.56 
   0   8  15  189.22    4.94 
   0   8  15  185.96    5.09 
   0  -8  15  183.86    4.91 
   0   8  15  191.14    5.02 
  -1   8  15    0.62    0.33 
  -1   8  15    0.64    0.31 
   1  -8  15    0.91    0.33 
   1   8  15    1.52    0.37 
   1   8  15    1.01    0.39 
   1   8  15    1.10    0.35 
  -1  -8  15    1.64    0.30 
  -2   8  15   76.31    2.31 
   2  -8  15   74.77    2.24 
  -2   8  15   70.05    2.20 
   2   8  15   64.05    2.19 
  -2  -8  15   67.39    1.89 
   2   8  15   71.42    2.18 
   2   8  15   70.48    2.16 
   3   8 -15    0.13    0.27 
  -3   8  15    0.28    0.29 
   3  -8  15    0.50    0.36 
  -3   8  15    0.33    0.32 
   3   8  15    0.75    0.36 
  -3   8 -15    0.36    0.37 
   3   8  15    0.43    0.36 
   3   8  15    0.92    0.41 
   4  -8  15    0.64    0.39 
   4   8 -15    0.83    0.28 
  -4   8  15    0.80    0.31 
   4  -8  15    0.37    0.39 
  -4   8 -15    0.72    0.41 
   4   8  15   -0.01    0.39 
   4   8  15    0.65    0.39 
   4   8  15    0.20    0.36 
   5  -8  15    0.57    0.45 
   5   8 -15    1.42    0.29 
   5  -8  15    0.43    0.41 
   5   8  15    0.67    0.41 
   5   8  15    0.59    0.46 
  -5   8 -15    0.85    0.44 
   5   8  15    0.59    0.40 
   6  -8  15   35.62    1.55 
   6  -8  15   40.26    1.57 
   6   8 -15   34.83    1.17 
   6   8  15   38.63    1.62 
   6   8  15   41.32    1.65 
   6   8  15   43.21    1.73 
  -6   8 -15   43.15    1.66 
   7  -8  15    1.00    0.52 
   7  -8  15    0.71    0.52 
   7   8  15    0.28    0.45 
   7   8  15    0.57    0.52 
   7   8  15   -0.26    0.41 
   8  -8  15   64.86    2.33 
   8  -8  15   62.61    2.31 
   8   8  15   62.41    2.22 
   8   8  15   58.16    2.42 
   8   8  15   60.18    2.21 
   0   9  15    0.22    0.31 
   0   9  15   -0.26    0.33 
   0   9 -15    0.06    0.32 
   0  -9  15   -0.19    0.27 
  -1   9  15    8.69    0.72 
   1  -9  15    7.90    0.64 
  -1   9  15    8.30    0.67 
   1   9 -15    7.94    0.64 
   1   9  15    9.20    0.73 
  -1  -9  15    8.03    0.56 
   1   9  15    9.21    0.77 
  -1   9 -15    9.51    0.73 
   1   9  15    9.74    0.73 
  -2   9  15   59.64    1.90 
   2   9 -15   59.72    1.88 
   2  -9  15   60.90    1.93 
  -2   9  15   60.59    2.00 
   2   9  15   55.47    1.88 
   2   9  15   55.08    1.88 
  -2   9 -15   58.46    1.90 
  -2  -9  15   56.22    1.61 
   2   9  15   57.01    1.97 
  -3   9  15    1.28    0.35 
   3  -9  15    1.47    0.42 
  -3   9  15    1.42    0.39 
   3   9 -15    1.42    0.35 
   3   9  15    1.47    0.45 
  -3   9 -15    1.76    0.45 
   3   9  15    1.17    0.42 
   3   9  15    1.54    0.42 
   4  -9  15  103.71    3.04 
   4   9 -15   98.88    2.83 
  -4   9  15  103.20    2.87 
   4   9  15   93.12    2.85 
   4   9  15   95.53    2.97 
   4   9  15   93.14    2.86 
  -4   9 -15   94.32    2.86 
   5  -9  15    0.11    0.43 
   5   9 -15    0.62    0.27 
   5   9  15    0.62    0.47 
   5   9  15   -0.06    0.39 
  -5   9 -15    0.06    0.43 
   5   9  15    1.16    0.44 
   6  -9  15   40.71    1.67 
   6   9  15   40.95    1.73 
  -6   9 -15   40.30    1.64 
   6   9  15   39.16    1.61 
   6   9  15   36.71    1.59 
   7  -9  15    1.68    0.58 
   7   9  15    0.89    0.50 
   7   9  15    0.24    0.48 
   7   9  15    1.10    0.57 
   8   9  15   -0.67    0.49 
   0 -10  15  135.64    3.75 
   0  10  15  140.91    4.00 
   0  10  15  136.96    3.89 
   0  10 -15  144.45    3.89 
  -1  10  15    6.59    0.60 
  -1  10  15    7.57    0.72 
   1 -10  15    6.96    0.58 
   1  10 -15    7.01    0.61 
   1  10  15    4.44    0.53 
  -1  10 -15    5.75    0.59 
  -1 -10  15    6.05    0.47 
   1  10  15    5.34    0.60 
   1  10  15    6.29    0.60 
   2  10 -15   85.50    2.49 
   2 -10  15   82.70    2.51 
  -2  10  15   85.19    2.51 
  -2  10  15   81.42    2.61 
  -2  10 -15   85.37    2.53 
   2  10  15   80.99    2.49 
   2  10  15   78.93    2.58 
  -2 -10  15   77.53    2.19 
   2  10  15   79.94    2.50 
   3  10 -15    2.15    0.39 
  -3  10  15    2.36    0.41 
  -3  10  15    2.85    0.50 
   3 -10  15    2.03    0.46 
   3  10  15    3.18    0.54 
   3  10  15    3.38    0.53 
   3  10  15    2.97    0.51 
  -3  10 -15    2.68    0.50 
  -4  10  15    2.44    0.42 
   4  10 -15    2.70    0.40 
   4 -10  15    2.61    0.53 
   4  10  15    2.42    0.51 
  -4  10 -15    2.75    0.55 
   4  10  15    3.49    0.57 
   4  10  15    2.57    0.54 
   5  10 -15    3.78    0.42 
   5 -10  15    4.21    0.62 
  -5  10  15    4.18    0.47 
  -5  10 -15    3.90    0.63 
   5  10  15    5.04    0.66 
   5  10  15    3.45    0.63 
   5  10  15    4.22    0.60 
   6 -10  15   17.82    1.17 
  -6  10 -15   15.41    1.07 
   6  10  15   15.55    1.08 
   6  10  15   16.19    1.08 
   6  10  15   15.11    1.17 
   7 -10  15    3.32    0.67 
   7  10  15    4.55    0.68 
   7  10  15    3.66    0.72 
   7  10  15    3.61    0.64 
   0  11 -15   -0.39    0.35 
   0  11  15    0.02    0.33 
   0  11  15    0.71    0.42 
   0 -11  15   -0.29    0.29 
   1 -11  15    5.93    0.55 
  -1  11  15    4.66    0.54 
   1  11 -15    5.51    0.57 
  -1  11  15    6.49    0.70 
   1  11  15    7.26    0.68 
  -1  11 -15    6.89    0.65 
   1  11  15    6.10    0.67 
  -1 -11  15    6.90    0.51 
  -2  11  15   28.99    1.28 
   2 -11  15   26.77    1.17 
   2  11 -15   25.63    1.13 
  -2  11  15   27.11    1.17 
  -2 -11  15   33.98    1.10 
   2  11  15   36.38    1.51 
   2  11  15   35.61    1.43 
  -2  11 -15   35.40    1.46 
   2  11  15   34.28    1.42 
  -3  11  15   14.55    0.94 
  -3  11  15   12.65    0.81 
   3 -11  15   12.25    0.91 
   3  11 -15   13.03    0.79 
   3  11  15   14.31    1.03 
   3  11  15   14.81    0.97 
   3  11  15   14.19    0.94 
  -3  11 -15   15.11    0.97 
   4 -11  15   67.60    2.22 
  -4  11  15   64.68    2.07 
   4  11 -15   66.11    2.02 
   4  11  15   74.53    2.54 
   4  11  15   76.46    2.46 
   4  11  15   78.00    2.48 
  -4  11 -15   73.96    2.47 
   5  11 -15   14.44    0.76 
   5 -11  15   14.70    1.08 
   5  11  15   11.20    0.92 
   5  11  15   12.63    1.05 
   5  11  15   13.40    0.99 
  -5  11 -15   13.30    0.99 
   6 -11  15   29.66    1.45 
   6  11  15   32.30    1.53 
  -6  11 -15   34.21    1.55 
   6  11  15   34.73    1.67 
   6  11  15   35.44    1.57 
   7  11  15    2.83    0.61 
   7  11  15    3.15    0.62 
   0  12 -15   32.64    1.34 
   0 -12  15   31.40    1.20 
   0  12  15   32.30    1.45 
   0  12  15   32.09    1.36 
   1 -12  15   17.93    0.93 
  -1  12  15   18.03    1.07 
   1  12 -15   17.59    0.96 
  -1  12  15   17.68    0.99 
  -1 -12  15   16.49    0.79 
  -1  12 -15   18.26    1.01 
   1  12  15   16.68    1.01 
   1  12  15   16.14    1.04 
  -2  12  15   13.57    0.89 
   2 -12  15   12.49    0.86 
  -2  12  15   14.62    1.01 
   2  12 -15   14.13    0.86 
  -2  12 -15   18.68    1.05 
   2  12  15   15.80    1.01 
   2  12  15   16.75    1.02 
   2  12  15   16.62    1.07 
   3 -12  15    9.05    0.74 
  -3  12  15   10.67    0.88 
  -3  12  15   10.71    0.80 
   3  12 -15   11.57    0.76 
  -3  12 -15    5.79    0.69 
   3  12  15    6.82    0.71 
   3  12  15    6.40    0.72 
   3  12  15    6.70    0.70 
   4 -12  15    0.42    0.45 
  -4  12  15   -0.20    0.34 
   4  12 -15    0.76    0.36 
   4  12  15    0.97    0.47 
  -4  12 -15    1.13    0.53 
   4  12  15    1.61    0.54 
   4  12  15    0.95    0.47 
   5  12 -15    5.34    0.50 
   5 -12  15    5.84    0.72 
   5  12  15    7.84    0.86 
  -5  12 -15    8.13    0.82 
   5  12  15    7.11    0.79 
   5  12  15    8.21    0.82 
   6 -12  15   12.01    0.98 
  -6  12 -15   11.93    0.99 
   6  12  15   14.20    1.10 
   6  12  15   12.79    1.09 
   6  12  15   13.68    1.04 
   7  12  15   14.46    1.16 
   0  13 -15    2.30    0.51 
   0  13  15    3.00    0.59 
   0 -13  15    2.47    0.43 
   0  13  15    3.03    0.54 
  -1  13  15    3.37    0.54 
   1  13 -15    3.65    0.54 
   1 -13  15    4.59    0.53 
  -1  13  15    3.94    0.65 
  -1  13 -15    2.20    0.52 
   1  13  15    2.20    0.55 
   1  13  15    2.29    0.50 
  -1 -13  15    2.46    0.38 
   2 -13  15   27.42    1.23 
  -2  13  15   27.12    1.37 
   2  13 -15   27.20    1.21 
  -2  13  15   28.79    1.28 
  -2  13 -15   21.95    1.18 
   2  13  15   23.66    1.21 
   2  13  15   21.59    1.24 
  -3  13  15   16.95    1.00 
   3 -13  15   17.80    1.05 
   3  13 -15   17.28    0.96 
  -3  13  15   17.75    1.09 
   3  13  15   17.73    1.16 
   3  13  15   19.56    1.13 
   3  13  15   18.24    1.11 
  -3  13 -15   18.81    1.14 
   4 -13  15   42.21    1.64 
   4  13 -15   39.59    1.47 
  -4  13  15   40.60    1.53 
   4  13  15   40.21    1.65 
   4  13  15   36.68    1.60 
  -4  13 -15   35.45    1.58 
   4  13  15   36.96    1.66 
   5  13 -15   13.66    0.80 
   5 -13  15   14.59    1.09 
  -5  13 -15   14.77    1.08 
   5  13  15   11.63    0.95 
   5  13  15   12.49    1.07 
   5  13  15   12.85    1.05 
  -6  13 -15   27.68    1.43 
   6  13  15   27.17    1.45 
   6  13  15   26.53    1.44 
   0  14  15   49.07    1.96 
   0  14 -15   54.02    1.88 
   0 -14  15   50.95    1.68 
   0  14  15   49.93    1.88 
  -1  14  15   34.57    1.57 
  -1  14  15   37.39    1.52 
   1 -14  15   33.44    1.36 
   1  14 -15   36.01    1.47 
   1  14  15   39.77    1.74 
  -1  14 -15   40.98    1.66 
  -1 -14  15   42.18    1.37 
   1  14  15   39.36    1.64 
   2  14 -15   27.06    1.22 
  -2  14  15   23.23    1.24 
   2 -14  15   25.91    1.22 
  -2  14  15   26.21    1.34 
  -2  14 -15   27.37    1.35 
   2  14  15   28.40    1.37 
   2  14  15   27.22    1.42 
   3  14 -15    7.06    0.67 
  -3  14  15    9.24    0.85 
  -3  14  15    8.56    0.74 
   3 -14  15    7.82    0.74 
   3  14  15    9.07    0.84 
   3  14  15    9.65    0.92 
  -3  14 -15    9.13    0.86 
   4  14 -15    2.69    0.47 
  -4  14  15    2.70    0.51 
   4 -14  15    2.80    0.60 
  -4  14 -15    2.36    0.60 
   4  14  15    2.12    0.57 
   4  14  15    2.22    0.62 
   4  14  15    2.81    0.60 
   5  14 -15    3.47    0.48 
   5  14  15    3.31    0.65 
   5  14  15    3.89    0.67 
  -5  14 -15    3.32    0.65 
  -6  14 -15    4.70    0.73 
   6  14  15    5.73    0.77 
   0  15  15    1.12    0.53 
   0 -15  15    1.15    0.39 
   0  15 -15    0.53    0.46 
   0  15  15    0.43    0.45 
  -1  15  15    5.21    0.67 
   1 -15  15    6.12    0.62 
   1  15 -15    6.66    0.71 
  -1  15  15    5.77    0.76 
   1  15  15    6.60    0.81 
  -1  15 -15    7.65    0.77 
   1  15  15    6.85    0.77 
   2 -15  15    6.22    0.66 
  -2  15  15    5.49    0.70 
   2  15 -15    4.92    0.62 
  -2  15  15    5.85    0.78 
   2  15  15    5.93    0.77 
  -2  15 -15    7.75    0.81 
   2  15  15    7.15    0.79 
  -3  15  15   48.99    1.85 
   3 -15  15   48.14    1.84 
   3  15 -15   50.18    1.79 
  -3  15 -15   51.49    2.01 
   3  15  15   50.56    2.05 
   3  15  15   48.58    1.95 
   4  15 -15   12.10    0.88 
  -4  15  15   15.58    1.01 
   4  15  15   15.43    1.14 
  -4  15 -15   16.19    1.19 
   5  15 -15   38.51    1.46 
   5  15  15   42.93    1.86 
  -5  15 -15   44.15    2.00 
   0  16  15    9.57    0.93 
   0  16 -15    8.02    0.80 
   0  16  15    7.18    0.77 
   0 -16  15    8.66    0.66 
   1  16 -15   44.16    1.79 
  -1  16  15   43.70    1.80 
   1 -16  15   45.80    1.65 
  -1  16  15   48.69    1.95 
   1  16  15   49.70    2.03 
   1  16  15   43.85    1.87 
  -1  16 -15   51.44    1.92 
  -2  16  15    6.05    0.80 
   2 -16  15    6.42    0.69 
  -2  16  15    7.69    0.79 
   2  16 -15    5.42    0.67 
   2  16  15    4.35    0.71 
   2  16  15    4.47    0.74 
  -2  16 -15    5.71    0.76 
   3 -16  15    4.77    0.74 
   3  16 -15    4.21    0.60 
  -3  16  15    4.39    0.65 
  -3  16 -15    5.15    0.79 
  -4  16  15    1.72    0.52 
   0  17  15    1.03    0.60 
   0 -17  15    0.36    0.40 
   1 -17  15   10.75    0.79 
  -1  17  15    9.80    0.97 
   1  17  15    9.07    1.08 
  -2  17  15    0.64    0.58 
   0   0  16    8.58    0.55 
   0   0  16    7.32    0.58 
   0   0  16    8.25    0.55 
  -1   0  16   21.51    0.91 
  -1   0  16   21.10    0.84 
   1   0  16   21.63    0.97 
   1   0  16   22.60    0.92 
  -1   0  16   23.45    0.86 
   1   0  16   20.27    0.89 
  -2   0  16    7.44    0.47 
   2   0  16    7.44    0.57 
   2   0  16    6.24    0.58 
   2   0  16    6.86    0.55 
  -2   0  16    6.29    0.51 
   3   0  16  149.63    3.98 
  -3   0  16  143.79    3.87 
  -3   0  16  143.56    3.73 
   3   0  16  143.86    3.92 
   4   0  16    4.12    0.49 
   4   0  16    3.36    0.45 
   5   0  16  100.14    2.94 
   5   0  16   98.89    2.90 
   6   0  16    0.87    0.41 
   6   0  16    1.66    0.42 
   7   0  16    9.09    0.80 
   7   0  16    7.57    0.73 
   8   0  16    0.65    0.50 
   8   0  16   -0.02    0.45 
   9   0  16    0.57    0.54 
   9   0  16    0.66    0.54 
   0   1  16   49.01    1.54 
   0  -1  16   51.17    1.56 
   0  -1  16   47.81    1.52 
   0   1  16   47.52    1.62 
   0   1  16   51.15    1.56 
  -1   1  16  149.74    4.16 
  -1   1  16  152.18    4.08 
   1  -1  16  160.15    4.16 
   1  -1  16  158.11    4.08 
  -1  -1  16  148.31    3.82 
  -1  -1  16  144.68    3.82 
   1   1  16  140.28    3.96 
   1   1  16  148.68    3.87 
   1   1  16  141.15    3.90 
   2  -1  16   11.09    0.67 
   2  -1  16   10.58    0.66 
  -2   1  16   10.73    0.62 
  -2   1  16    9.87    0.55 
   2   1  16    7.78    0.64 
   2   1  16    7.99    0.61 
   2   1  16    7.72    0.60 
  -2  -1  16    8.03    0.47 
  -3   1  16   23.72    0.93 
   3  -1  16   24.08    1.03 
  -3   1  16   23.42    0.81 
   3  -1  16   24.00    1.02 
  -3  -1  16   24.46    0.79 
   3   1  16   25.27    1.12 
   3   1  16   23.97    1.04 
   3   1  16   23.54    1.04 
   4  -1  16   10.25    0.74 
   4  -1  16   11.10    0.73 
   4   1  16    7.27    0.68 
   4   1  16    6.17    0.58 
   4   1  16    6.70    0.60 
   5  -1  16   13.90    0.89 
   5  -1  16   14.16    0.89 
   5   1  16   12.01    0.84 
   5   1  16   13.75    0.85 
   6  -1  16    0.13    0.37 
   6  -1  16    0.55    0.41 
   6   1  16    0.22    0.38 
   6   1  16    0.52    0.39 
   7  -1  16   54.32    1.93 
   7  -1  16   52.07    1.89 
   7   1  16   50.73    1.82 
   7   1  16   50.13    1.85 
   8  -1  16    4.65    0.69 
   8  -1  16    5.49    0.71 
   8   1  16    5.50    0.69 
   8   1  16    5.13    0.69 
   9  -1  16   28.52    1.48 
   9  -1  16   31.97    1.54 
   9   1  16   33.90    1.60 
   9   1  16   32.50    1.55 
   0   2  16    0.77    0.31 
   0   2  16    0.80    0.28 
   0  -2  16    0.93    0.27 
   0  -2  16    1.13    0.27 
   0   2  16    0.71    0.26 
   1  -2  16   38.55    1.29 
  -1   2  16   38.68    1.26 
  -1   2  16   36.00    1.31 
   1  -2  16   37.10    1.29 
   1   2  16   26.32    1.12 
   1   2  16   26.15    1.04 
   1   2  16   28.06    1.07 
  -1  -2  16   27.67    0.97 
   2  -2  16    9.26    0.63 
  -2   2  16    9.61    0.61 
  -2   2  16    9.60    0.54 
   2  -2  16    9.82    0.66 
   2   2  16   12.37    0.72 
   2   2  16   12.78    0.79 
  -2  -2  16   12.50    0.58 
   3  -2  16   88.87    2.58 
  -3   2  16   92.52    2.43 
   3  -2  16   87.92    2.62 
  -3   2  16   87.72    2.54 
  -3  -2  16   69.69    1.87 
   3   2  16   69.52    2.14 
   3   2  16   68.29    2.15 
   3   2  16   73.45    2.25 
   4  -2  16   16.14    0.88 
   4  -2  16   14.78    0.84 
  -4   2  16   15.46    0.54 
   4   2  16   18.80    0.95 
   4   2  16   17.41    0.98 
   4   2  16   19.14    0.96 
   5  -2  16   57.53    1.95 
   5  -2  16   59.03    1.93 
   5   2  16   59.99    2.11 
   5   2  16   65.32    2.05 
   5   2  16   58.76    2.01 
   6  -2  16    7.21    0.68 
   6  -2  16    8.78    0.76 
   6   2  16    8.84    0.74 
   6   2  16    9.33    0.77 
   7  -2  16    9.24    0.81 
   7  -2  16    9.10    0.80 
   7   2  16    9.26    0.80 
   7   2  16    9.48    0.81 
   8  -2  16    1.42    0.52 
   8  -2  16    0.69    0.49 
   8   2  16    1.28    0.52 
   8   2  16    1.11    0.48 
   9  -2  16    2.74    0.64 
   9  -2  16    3.85    0.69 
   9   2  16    2.42    0.67 
   9   2  16    3.07    0.65 
   0   3  16   38.23    1.38 
   0   3  16   37.64    1.28 
   0  -3  16   37.49    1.26 
   0   3  16   37.74    1.29 
   0  -3  16   37.73    1.26 
  -1   3  16   92.63    2.67 
  -1   3  16   92.41    2.58 
  -1   3  16   91.36    2.59 
   1  -3  16   91.89    2.59 
   1  -3  16   90.77    2.61 
   1   3  16   97.34    2.76 
  -1  -3  16   97.82    2.70 
   1   3  16  101.15    2.82 
   1   3  16   99.90    2.89 
   2  -3  16   26.57    1.05 
   2  -3  16   27.53    1.06 
  -2   3  16   24.77    0.95 
  -2   3  16   24.96    1.01 
   2   3  16   29.70    1.14 
  -2  -3  16   28.74    0.97 
   2   3  16   28.32    1.14 
   2   3  16   31.64    1.24 
  -3   3  16   21.64    0.92 
   3  -3  16   23.33    1.01 
  -3   3  16   22.27    0.82 
   3  -3  16   21.57    0.99 
   3   3  16   29.00    1.12 
   3   3  16   26.06    1.10 
   3   3  16   25.78    1.17 
  -3  -3  16   25.61    0.79 
  -4   3  16    5.81    0.37 
   4  -3  16    5.78    0.57 
   4  -3  16    5.78    0.56 
   4   3  16    7.60    0.66 
   4   3  16    6.29    0.65 
   4   3  16    7.37    0.64 
   5  -3  16    5.92    0.62 
   5  -3  16    4.77    0.58 
   5   3  16    2.83    0.48 
   5   3  16    2.17    0.46 
   5   3  16    1.76    0.48 
   6  -3  16   24.15    1.20 
   6  -3  16   24.20    1.17 
   6   3  16   20.76    1.11 
   6   3  16   21.34    1.17 
   6   3  16   22.72    1.15 
   7  -3  16   32.90    1.44 
   7  -3  16   32.89    1.47 
   7   3  16   29.73    1.35 
   7   3  16   28.62    1.35 
   8  -3  16   15.01    1.09 
   8  -3  16   12.74    1.04 
   8   3  16   13.13    1.00 
   8   3  16   12.53    1.03 
   9  -3  16   24.56    1.36 
   9  -3  16   20.42    1.32 
   9   3  16   25.06    1.39 
   0   4  16   36.30    1.25 
   0   4  16   35.87    1.24 
   0  -4  16   33.80    1.19 
   0   4  16   33.11    1.29 
  -1   4  16   16.50    0.85 
   1  -4  16   18.19    0.81 
  -1   4  16   15.75    0.77 
   1  -4  16   17.05    0.80 
   1   4  16   21.64    0.94 
  -1  -4  16   21.45    0.84 
   1   4  16   20.55    0.93 
   1   4  16   22.93    1.03 
   2  -4  16   69.35    2.05 
  -2   4  16   63.16    1.94 
   2  -4  16   67.41    2.03 
  -2   4  16   67.34    2.05 
   2   4  16   58.51    1.95 
  -2  -4  16   59.13    1.68 
   2   4  16   58.86    1.86 
   2   4  16   58.97    1.88 
   3  -4  16   69.63    2.20 
  -3   4  16   72.21    2.06 
   3  -4  16   71.79    2.20 
  -3   4  16   75.18    2.18 
   3   4  16   80.80    2.43 
  -3  -4  16   79.93    2.07 
   3   4  16   80.71    2.41 
   3   4  16   79.82    2.50 
  -4   4  16   79.55    2.17 
   4  -4  16   81.54    2.44 
   4  -4  16   79.92    2.45 
   4   4  16   77.32    2.39 
   4   4  16   76.78    2.47 
   4   4  16   76.51    2.35 
   5  -4  16   71.66    2.31 
   5  -4  16   73.79    2.32 
   5   4  16   62.19    2.08 
   5   4  16   62.47    2.08 
   5   4  16   65.18    2.17 
   6  -4  16   31.25    1.38 
   6  -4  16   33.07    1.41 
   6   4  16   35.31    1.46 
   6   4  16   39.32    1.58 
   6   4  16   34.77    1.46 
   7  -4  16   24.44    1.23 
   7  -4  16   22.61    1.24 
   7   4  16   26.68    1.31 
   7   4  16   25.69    1.29 
   8  -4  16   11.81    0.95 
   8  -4  16    9.74    0.89 
   8   4  16   10.27    0.88 
   8   4  16   11.11    0.92 
   9  -4  16    0.07    0.51 
   0   5  16  180.27    4.85 
   0   5  16  179.45    4.78 
   0   5  16  185.28    4.96 
   0  -5  16  185.84    4.80 
   1  -5  16   32.06    1.15 
  -1   5  16   30.63    1.12 
  -1   5  16   27.90    1.18 
  -1  -5  16   25.61    0.93 
   1   5  16   25.40    1.12 
   1   5  16   23.91    1.02 
   1   5  16   25.26    1.05 
   2  -5  16   88.82    2.63 
  -2   5  16   90.07    2.66 
   2  -5  16   92.35    2.61 
  -2   5  16   90.99    2.56 
  -2  -5  16   95.27    2.56 
   2   5  16   94.50    2.86 
   2   5  16   96.21    2.75 
   2   5  16   95.61    2.78 
  -3   5  16   17.08    0.86 
   3  -5  16   17.30    0.91 
  -3   5  16   17.01    0.76 
   3  -5  16   18.45    0.91 
   3   5  16   15.70    0.88 
   3   5  16   17.64    0.91 
   3   5  16   16.48    0.96 
   4  -5  16   13.97    0.88 
  -4   5  16   13.74    0.63 
   4  -5  16   14.17    0.86 
   4   5  16   12.72    0.89 
   4   5  16   11.96    0.84 
   4   5  16   12.28    0.83 
   5  -5  16    9.43    0.75 
   5  -5  16    7.50    0.68 
   5   5  16    7.73    0.69 
   5   5  16    9.21    0.81 
   5   5  16    7.95    0.70 
   6  -5  16   17.25    1.05 
   6  -5  16   15.42    1.03 
   6   5  16   17.16    1.04 
   6   5  16   18.34    1.05 
   6   5  16   17.87    1.10 
   7  -5  16   13.79    1.03 
   7  -5  16   13.69    1.05 
   7   5  16   15.66    1.10 
   7   5  16   16.15    1.07 
   7   5  16   16.37    1.06 
   8  -5  16   28.15    1.40 
   8  -5  16   25.16    1.42 
   8   5  16   31.64    1.49 
   8   5  16   29.87    1.45 
   9  -5  16   14.34    1.17 
   0   6  16   -0.28    0.26 
   0  -6  16   -0.23    0.26 
   0   6  16   -0.09    0.27 
   0   6  16    0.67    0.34 
  -1   6  16   16.33    0.80 
  -1   6  16   14.30    0.83 
   1  -6  16   15.93    0.80 
   1   6  16   18.90    1.00 
   1   6  16   20.45    0.96 
  -1  -6  16   19.98    0.81 
   1   6  16   20.74    0.95 
  -2   6  16   69.02    2.17 
   2  -6  16   71.41    2.16 
  -2   6  16   71.02    2.10 
  -2  -6  16   66.42    1.88 
   2   6  16   71.31    2.24 
   2   6  16   66.56    2.10 
   2   6  16   67.13    2.13 
   3  -6  16   16.97    0.93 
  -3   6  16   18.08    0.88 
  -3   6  16   19.03    0.82 
   3  -6  16   18.56    0.94 
   3   6  16   20.05    1.00 
   3   6  16   19.17    0.99 
   3   6  16   20.28    1.07 
   4  -6  16   70.53    2.26 
  -4   6  16   72.04    2.05 
   4  -6  16   73.18    2.29 
   4   6  16   69.33    2.23 
   4   6  16   69.03    2.30 
   4   6  16   69.61    2.22 
   5  -6  16   12.37    0.91 
   5  -6  16   11.89    0.87 
   5   6  16   17.03    1.07 
   5   6  16   14.68    0.94 
   5   6  16   13.69    0.94 
   6  -6  16   40.17    1.63 
   6  -6  16   38.87    1.63 
   6   6 -16   42.64    1.25 
   6   6  16   39.49    1.59 
   6   6  16   42.38    1.63 
  -6   6 -16   40.27    1.61 
   6   6  16   39.25    1.69 
   7  -6  16    9.15    0.87 
   7  -6  16   10.38    0.86 
   7   6  16    9.75    0.86 
   7   6  16    6.92    0.75 
   7   6  16    7.75    0.84 
   8  -6  16    1.22    0.59 
   8  -6  16    0.75    0.52 
   8   6  16    1.53    0.56 
   8   6  16    1.09    0.55 
   0   7  16   93.13    2.75 
   0  -7  16   88.58    2.57 
   0   7  16   91.37    2.67 
   1  -7  16   42.79    1.44 
  -1   7  16   42.42    1.45 
  -1   7  16   39.79    1.50 
   1   7  16   39.85    1.51 
   1   7  16   37.50    1.42 
  -1  -7  16   39.48    1.28 
   1   7  16   41.62    1.46 
  -2   7  16   57.33    1.86 
  -2   7  16   56.16    1.77 
   2  -7  16   53.03    1.81 
   2   7  16   63.91    2.06 
  -2  -7  16   65.37    1.80 
   2   7  16   63.12    2.04 
   2   7  16   62.66    2.14 
  -3   7  16   22.74    0.95 
   3  -7  16   23.05    1.07 
  -3   7  16   23.08    1.04 
   3   7  16   23.00    1.16 
   3   7  16   22.76    1.10 
   3   7  16   24.44    1.11 
  -4   7  16    2.83    0.36 
   4  -7  16    2.70    0.50 
   4   7  16    3.35    0.52 
   4   7  16    3.78    0.53 
   4   7  16    3.68    0.59 
   5  -7  16    3.78    0.58 
   5   7 -16    2.97    0.36 
   5  -7  16    4.34    0.61 
   5   7  16    5.88    0.66 
  -5   7 -16    6.56    0.70 
   5   7  16    5.63    0.65 
   5   7  16    5.73    0.72 
   6   7 -16   32.65    1.08 
   6  -7  16   34.22    1.48 
   6  -7  16   34.34    1.52 
   6   7  16   28.46    1.33 
   6   7  16   29.07    1.32 
   6   7  16   28.75    1.44 
  -6   7 -16   27.19    1.32 
   7  -7  16    4.01    0.67 
   7  -7  16    4.04    0.65 
   7   7  16    5.20    0.76 
   7   7  16    5.12    0.69 
   7   7  16    7.36    0.77 
   8  -7  16   43.10    1.84 
   8   7  16   37.71    1.69 
   8   7  16   35.33    1.63 
   0   8  16    6.98    0.60 
   0   8  16    8.81    0.72 
   0  -8  16    7.42    0.60 
  -1   8  16    9.72    0.70 
   1  -8  16    9.76    0.68 
  -1   8  16    9.66    0.75 
   1   8  16    8.82    0.70 
  -1  -8  16    9.22    0.57 
   1   8  16   10.11    0.80 
   1   8  16   10.07    0.75 
   2  -8  16   59.88    1.90 
  -2   8  16   54.98    1.93 
  -2   8  16   60.13    1.87 
   2   8  16   59.14    1.99 
  -2  -8  16   62.61    1.73 
   2   8  16   61.29    2.02 
   2   8  16   59.91    2.07 
  -3   8  16    7.12    0.63 
  -3   8  16    6.25    0.53 
   3   8 -16    6.33    0.55 
   3  -8  16    4.57    0.55 
   3   8  16    5.82    0.61 
   3   8  16    5.81    0.60 
   3   8  16    4.31    0.58 
   4   8 -16  110.26    3.10 
  -4   8  16  115.19    3.13 
   4  -8  16  114.91    3.34 
   4   8  16  107.40    3.23 
  -4   8 -16  112.61    3.28 
   4   8  16  110.64    3.35 
   4   8  16  109.17    3.25 
   5   8 -16    5.84    0.47 
   5  -8  16    5.65    0.67 
   5   8  16    6.11    0.73 
   5   8  16    5.82    0.68 
   5   8  16    6.01    0.68 
  -5   8 -16    6.80    0.70 
   6  -8  16   65.48    2.28 
   6   8  16   58.29    2.16 
   6   8  16   55.43    2.01 
   6   8  16   57.48    2.04 
  -6   8 -16   55.00    2.02 
   7  -8  16    5.30    0.74 
   7   8  16    6.46    0.75 
   7   8  16    5.35    0.71 
   7   8  16    5.46    0.78 
   8   8  16    6.47    0.81 
   8   8  16    6.38    0.89 
   0  -9  16   96.49    2.76 
   0   9 -16   97.50    2.88 
   0   9  16  100.35    2.89 
   0   9  16   97.81    2.98 
   1  -9  16    1.95    0.40 
  -1   9  16    1.67    0.39 
   1   9 -16    2.25    0.42 
  -1   9  16    2.27    0.44 
   1   9  16    1.02    0.42 
  -1   9 -16    1.39    0.44 
  -1  -9  16    1.18    0.30 
   1   9  16    1.19    0.41 
   1   9  16    1.33    0.38 
  -2   9  16   72.48    2.29 
   2  -9  16   76.48    2.31 
   2   9 -16   74.75    2.27 
  -2   9  16   76.04    2.39 
   2   9  16   68.77    2.25 
  -2  -9  16   65.66    1.86 
   2   9  16   62.81    2.15 
   2   9  16   67.90    2.16 
  -2   9 -16   68.13    2.18 
  -3   9  16    6.30    0.56 
   3  -9  16    6.64    0.65 
  -3   9  16    7.47    0.68 
   3   9 -16    6.27    0.54 
   3   9  16    4.20    0.57 
  -3   9 -16    3.80    0.56 
   3   9  16    5.03    0.65 
   3   9  16    5.68    0.64 
   4  -9  16    6.47    0.66 
  -4   9  16    6.41    0.54 
   4   9 -16    6.24    0.52 
   4   9  16    5.02    0.63 
  -4   9 -16    4.21    0.59 
   4   9  16    4.28    0.63 
   4   9  16    4.99    0.63 
   5   9 -16    5.50    0.48 
   5  -9  16    5.67    0.67 
   5   9  16    6.28    0.76 
   5   9  16    5.56    0.66 
  -5   9 -16    4.44    0.64 
   5   9  16    4.82    0.64 
   6  -9  16   21.34    1.24 
  -6   9 -16   24.65    1.33 
   6   9  16   29.42    1.40 
   6   9  16   29.13    1.50 
   6   9  16   26.63    1.36 
   7  -9  16   -0.51    0.48 
   7   9  16    0.46    0.57 
   7   9  16    0.47    0.47 
   7   9  16    0.40    0.49 
   8   9  16   44.88    1.89 
   0  10 -16    3.17    0.50 
   0 -10  16    3.86    0.46 
   0  10  16    4.36    0.54 
   0  10  16    3.16    0.55 
  -1  10  16    1.62    0.45 
  -1  10  16    0.78    0.36 
   1 -10  16    1.17    0.37 
   1  10 -16    1.47    0.40 
   1  10  16    3.01    0.54 
  -1 -10  16    3.36    0.40 
  -1  10 -16    3.60    0.53 
   1  10  16    3.57    0.50 
   2  10 -16   35.90    1.33 
  -2  10  16   32.51    1.40 
   2 -10  16   34.68    1.35 
  -2  10  16   34.30    1.34 
  -2 -10  16   42.03    1.28 
   2  10  16   43.24    1.61 
  -2  10 -16   43.45    1.61 
   2  10  16   40.92    1.66 
   2  10  16   41.64    1.59 
  -3  10  16    2.61    0.45 
   3 -10  16    3.00    0.52 
   3  10 -16    2.06    0.42 
  -3  10  16    3.03    0.52 
  -3  10 -16    4.96    0.60 
   3  10  16    3.95    0.59 
   3  10  16    5.18    0.63 
   3  10  16    3.31    0.59 
   4 -10  16   68.33    2.28 
   4  10 -16   67.92    2.09 
  -4  10  16   71.65    2.14 
   4  10  16   69.84    2.33 
   4  10  16   68.94    2.31 
  -4  10 -16   71.41    2.34 
   4  10  16   68.18    2.42 
   5  10 -16    2.13    0.37 
   5 -10  16    2.39    0.56 
   5  10  16    2.65    0.56 
   5  10  16    1.78    0.58 
   5  10  16    2.05    0.53 
  -5  10 -16    1.92    0.55 
   6 -10  16   29.52    1.48 
   6  10  16   28.01    1.51 
  -6  10 -16   28.79    1.41 
   6  10  16   28.29    1.41 
   6  10  16   26.71    1.39 
   7  10  16    1.72    0.58 
   7  10  16    2.99    0.64 
   0  11  16   99.92    3.01 
   0  11 -16  102.73    3.02 
   0  11  16  102.39    3.13 
   0 -11  16   99.57    2.86 
  -1  11  16    2.38    0.46 
  -1  11  16    2.95    0.52 
   1  11 -16    2.10    0.46 
   1 -11  16    2.16    0.42 
  -1  11 -16    2.43    0.50 
   1  11  16    2.23    0.47 
   1  11  16    2.02    0.50 
  -1 -11  16    3.05    0.39 
   2  11 -16   40.54    1.50 
  -2  11  16   41.34    1.62 
  -2  11  16   38.50    1.49 
   2 -11  16   41.60    1.52 
  -2  11 -16   44.84    1.70 
   2  11  16   44.28    1.70 
   2  11  16   46.68    1.80 
   3 -11  16   -0.38    0.38 
  -3  11  16   -0.49    0.34 
   3  11 -16    0.24    0.33 
  -3  11  16    0.36    0.36 
   3  11  16    0.57    0.42 
   3  11  16    0.36    0.46 
   3  11  16    0.39    0.42 
  -3  11 -16    1.58    0.50 
   4 -11  16    0.87    0.48 
  -4  11  16    0.48    0.38 
   4  11 -16    0.84    0.36 
   4  11  16    1.78    0.50 
   4  11  16    1.34    0.52 
   4  11  16    2.13    0.51 
  -4  11 -16    1.43    0.52 
   5 -11  16    1.79    0.56 
   5  11 -16    2.24    0.40 
  -5  11 -16    4.44    0.70 
   5  11  16    2.89    0.59 
   5  11  16    4.15    0.69 
   5  11  16    3.98    0.66 
   6 -11  16   14.49    1.13 
   6  11  16   13.82    1.14 
   6  11  16   14.88    1.11 
  -6  11 -16   15.34    1.11 
   6  11  16   15.00    1.12 
   7  11  16    5.74    0.80 
   7  11  16    6.40    0.79 
   0  12  16   -0.15    0.36 
   0  12  16    0.37    0.43 
   0  12 -16   -0.08    0.39 
   0 -12  16   -0.12    0.33 
  -1  12  16    4.27    0.57 
   1 -12  16    5.44    0.56 
  -1  12  16    5.97    0.71 
   1  12 -16    4.98    0.59 
   1  12  16    2.59    0.51 
   1  12  16    3.01    0.59 
  -1  12 -16    2.70    0.53 
  -1 -12  16    4.41    0.44 
  -2  12  16   40.78    1.58 
   2 -12  16   41.20    1.54 
  -2  12  16   41.08    1.68 
   2  12 -16   43.43    1.56 
  -2  12 -16   39.51    1.59 
   2  12  16   37.57    1.65 
   2  12  16   38.31    1.57 
  -3  12  16   26.07    1.21 
  -3  12  16   27.82    1.33 
   3  12 -16   27.65    1.19 
   3 -12  16   28.00    1.29 
   3  12  16   24.12    1.25 
   3  12  16   24.14    1.33 
  -3  12 -16   23.51    1.29 
   3  12  16   23.33    1.29 
  -4  12  16   58.92    1.95 
   4  12 -16   57.23    1.87 
   4 -12  16   57.60    2.04 
   4  12  16   61.19    2.12 
   4  12  16   57.50    2.20 
   4  12  16   57.35    2.11 
  -4  12 -16   56.47    2.10 
   5 -12  16   16.22    1.14 
   5  12 -16   14.78    0.82 
  -5  12 -16   13.31    1.07 
   5  12  16   12.98    1.05 
   5  12  16   14.31    1.17 
   5  12  16   14.21    1.09 
  -6  12 -16   27.15    1.41 
   6  12  16   27.41    1.44 
   6  12  16   27.38    1.45 
   0  13  16   47.08    1.86 
   0  13 -16   46.64    1.73 
   0  13  16   45.26    1.73 
   0 -13  16   44.66    1.56 
   1 -13  16   37.58    1.44 
   1  13 -16   40.14    1.55 
  -1  13  16   36.71    1.54 
  -1  13  16   38.80    1.66 
  -1  13 -16   40.94    1.64 
   1  13  16   37.06    1.67 
   1  13  16   39.39    1.62 
  -1 -13  16   42.15    1.37 
   2 -13  16   24.74    1.20 
  -2  13  16   26.28    1.33 
  -2  13  16   23.96    1.22 
   2  13 -16   26.09    1.19 
  -2  13 -16   30.00    1.38 
   2  13  16   27.90    1.42 
   2  13  16   27.42    1.36 
  -3  13  16   14.38    1.09 
   3 -13  16   13.13    0.97 
   3  13 -16   13.40    0.90 
  -3  13  16   12.88    0.91 
   3  13  16   10.53    0.95 
  -3  13 -16   12.43    1.02 
   3  13  16   11.50    0.93 
   4  13 -16    1.78    0.44 
  -4  13  16    1.39    0.44 
   4 -13  16    2.41    0.56 
   4  13  16    1.37    0.52 
   4  13  16    1.04    0.52 
  -4  13 -16    1.12    0.53 
   4  13  16    0.99    0.53 
   5 -13  16    1.50    0.58 
   5  13 -16    2.19    0.42 
   5  13  16    2.55    0.69 
   5  13  16    1.89    0.57 
   5  13  16    2.66    0.60 
  -5  13 -16    2.75    0.65 
  -6  13 -16   12.08    1.02 
   6  13  16   12.59    1.06 
   0 -14  16    0.34    0.36 
   0  14  16    0.22    0.43 
   0  14 -16    0.54    0.49 
   0  14  16    0.92    0.54 
  -1  14  16    7.91    0.86 
  -1  14  16    7.93    0.76 
   1 -14  16    7.26    0.66 
   1  14 -16    7.66    0.73 
   1  14  16    8.23    0.86 
   1  14  16    8.70    0.80 
  -1  14 -16    8.40    0.80 
   2  14 -16   11.10    0.88 
  -2  14  16   11.05    0.87 
  -2  14  16   11.82    0.97 
   2 -14  16   10.99    0.83 
   2  14  16    9.53    0.92 
  -2  14 -16    8.04    0.81 
   2  14  16    8.72    0.84 
  -3  14  16   28.44    1.31 
   3 -14  16   28.59    1.36 
   3  14 -16   27.04    1.25 
   3  14  16   29.34    1.51 
  -3  14 -16   27.93    1.46 
   3  14  16   27.58    1.43 
  -4  14  16   15.63    0.98 
   4 -14  16   15.01    1.12 
   4  14 -16   14.43    0.91 
   4  14  16   13.50    1.10 
   4  14  16   12.90    1.08 
  -4  14 -16   13.27    1.09 
   5  14 -16   24.73    1.11 
  -5  14 -16   28.09    1.47 
   0  15  16   18.25    1.24 
   0  15 -16   19.86    1.17 
   0  15  16   19.87    1.18 
   0 -15  16   17.87    0.96 
  -1  15  16   41.76    1.71 
   1  15 -16   41.91    1.68 
   1 -15  16   40.35    1.54 
  -1  15  16   40.26    1.79 
  -1  15 -16   39.31    1.68 
   1  15  16   42.29    1.85 
   1  15  16   40.97    1.71 
   2 -15  16    8.18    0.75 
  -2  15  16    8.89    0.83 
  -2  15  16    9.46    0.93 
   2  15 -16    9.19    0.80 
  -2  15 -16   12.00    0.99 
   2  15  16   10.82    1.00 
   2  15  16    9.25    0.87 
  -3  15  16    8.00    0.77 
   3  15 -16    8.31    0.74 
   3 -15  16    7.92    0.79 
  -3  15 -16    9.12    0.89 
   3  15  16   10.09    0.98 
   3  15  16    9.55    0.89 
  -4  15  16    0.72    0.44 
   4  15 -16    0.63    0.40 
   0  16 -16    6.71    0.81 
   0  16  16    6.05    0.82 
   0  16  16    6.94    0.78 
   0 -16  16    7.02    0.62 
   1  16 -16   10.41    0.98 
  -1  16  16    9.14    0.87 
   1 -16  16   11.38    0.82 
  -1  16  16   11.72    1.06 
   1  16  16    9.66    0.98 
   2 -16  16    5.27    0.65 
  -2  16  16    3.62    0.71 
  -2  16  16    3.82    0.68 
   1 -17  16   55.43    1.87 
  -1  17  16   51.24    2.17 
  -2  17  16    5.35    0.80 
   0   0  17   -0.05    0.27 
   0   0  17   -0.23    0.24 
   0   0  17    0.02    0.23 
   1   0  17  100.21    2.95 
   1   0  17  101.40    2.85 
  -1   0  17  100.27    2.89 
   1   0  17  105.48    2.84 
  -1   0  17   97.98    2.79 
   2   0  17   13.36    0.75 
  -2   0  17   13.56    0.72 
   2   0  17   11.93    0.81 
   2   0  17   12.43    0.74 
  -2   0  17   12.71    0.62 
  -3   0  17    6.76    0.43 
   3   0  17    5.82    0.56 
   3   0  17    7.54    0.64 
   4   0  17   22.73    1.05 
   4   0  17   20.04    1.03 
   5   0  17    6.37    0.63 
   5   0  17    6.98    0.66 
   6   0  17    6.10    0.67 
   6   0  17    8.58    0.76 
   7   0  17   46.02    1.73 
   7   0  17   44.03    1.77 
   8   0  17    0.34    0.50 
   8   0  17   -0.26    0.45 
   0   1  17   49.51    1.61 
   0  -1  17   50.04    1.59 
   0   1  17   50.80    1.60 
   0   1  17   50.31    1.69 
  -1   1  17   29.28    1.05 
   1  -1  17   28.72    1.11 
   1  -1  17   30.13    1.12 
  -1   1  17   28.05    1.12 
   1   1  17   21.24    0.92 
   1   1  17   20.32    0.91 
  -1  -1  17   19.93    0.82 
   1   1  17   19.24    0.96 
   2  -1  17   25.93    1.09 
  -2   1  17   27.02    0.97 
  -2   1  17   26.54    1.05 
   2  -1  17   28.12    1.10 
   2   1  17   28.84    1.13 
  -2  -1  17   26.65    0.95 
   2   1  17   26.87    1.18 
   2   1  17   28.59    1.12 
  -3   1  17   96.87    2.62 
   3  -1  17   98.67    2.83 
  -3   1  17   98.94    2.77 
   3  -1  17   98.20    2.86 
   3   1  17   89.98    2.62 
   3   1  17   91.21    2.74 
   3   1  17   89.05    2.64 
  -3  -1  17   85.90    2.36 
   4  -1  17   10.26    0.78 
   4  -1  17   10.99    0.79 
   4   1  17   11.07    0.79 
   4   1  17    9.28    0.75 
   5  -1  17   82.97    2.63 
   5  -1  17   88.17    2.61 
   5   1  17   74.66    2.43 
   5   1  17   81.87    2.45 
   6  -1  17    4.98    0.63 
   6  -1  17    5.90    0.68 
   6   1  17    7.84    0.74 
   6   1  17    8.28    0.73 
   7  -1  17   11.97    0.90 
   7  -1  17    9.73    0.85 
   7   1  17   11.82    0.99 
   7   1  17   13.19    1.00 
   8  -1  17   12.85    1.01 
   8  -1  17   11.61    0.97 
   8   1  17   11.91    0.94 
   8   1  17   11.76    0.97 
   9   1  17    0.93    0.60 
   0  -2  17   37.58    1.24 
   0   2  17   34.29    1.32 
   0   2  17   35.20    1.25 
   0   2  17   34.22    1.25 
  -1   2  17  110.87    3.10 
   1  -2  17  107.80    3.03 
   1  -2  17  109.05    2.99 
  -1   2  17  106.56    2.99 
   1   2  17  117.59    3.22 
   1   2  17  120.78    3.35 
  -1  -2  17  114.05    3.15 
   1   2  17  113.87    3.25 
  -2   2  17   49.55    1.66 
   2  -2  17   53.85    1.69 
   2  -2  17   53.81    1.70 
  -2   2  17   48.70    1.55 
   2   2  17   49.84    1.67 
   2   2  17   46.91    1.73 
  -2  -2  17   51.00    1.49 
   2   2  17   51.19    1.66 
   3  -2  17   17.86    0.91 
  -3   2  17   19.65    0.87 
  -3   2  17   18.91    0.75 
   3  -2  17   18.86    0.94 
   3   2  17   19.88    0.99 
   3   2  17   20.29    0.98 
   3   2  17   21.28    1.06 
  -3  -2  17   19.88    0.69 
   4  -2  17   42.34    1.55 
   4  -2  17   41.95    1.53 
   4   2  17   45.16    1.61 
   4   2  17   41.57    1.64 
   4   2  17   44.48    1.61 
   5  -2  17    5.19    0.60 
   5  -2  17    5.28    0.59 
   5   2  17    5.79    0.66 
   5   2  17    5.40    0.62 
   5   2  17    5.78    0.64 
   6  -2  17   28.69    1.32 
   6  -2  17   27.29    1.30 
   6   2  17   29.07    1.32 
   6   2  17   29.41    1.34 
   7  -2  17   21.61    1.23 
   7  -2  17   22.24    1.23 
   7   2  17   23.56    1.26 
   7   2  17   24.95    1.26 
   8  -2  17    4.98    0.71 
   8  -2  17    6.47    0.79 
   8   2  17    5.45    0.73 
   8   2  17    3.84    0.67 
   9   2  17   22.31    1.42 
   0   3  17   32.26    1.21 
   0   3  17   35.70    1.32 
   0   3  17   34.35    1.31 
   0  -3  17   33.62    1.19 
   1  -3  17    8.11    0.61 
  -1   3  17    8.46    0.59 
  -1   3  17    8.17    0.63 
   1   3  17    8.83    0.71 
   1   3  17    8.75    0.63 
  -1  -3  17    8.72    0.55 
   1   3  17    7.61    0.62 
  -2   3  17   46.75    1.59 
   2  -3  17   47.57    1.59 
   2  -3  17   50.05    1.60 
  -2   3  17   45.23    1.48 
   2   3  17   51.12    1.80 
   2   3  17   53.51    1.73 
  -2  -3  17   51.36    1.54 
   2   3  17   52.71    1.72 
   3  -3  17   45.84    1.59 
  -3   3  17   45.57    1.52 
   3  -3  17   46.94    1.60 
  -3   3  17   45.13    1.40 
   3   3  17   47.93    1.76 
   3   3  17   49.26    1.69 
   3   3  17   49.83    1.71 
  -3  -3  17   50.40    1.37 
  -4   3  17   65.86    1.86 
   4  -3  17   67.34    2.15 
   4  -3  17   67.90    2.14 
   4   3  17   64.57    2.10 
   4   3  17   63.73    2.17 
   4   3  17   65.61    2.11 
   5  -3  17   34.55    1.43 
   5  -3  17   36.06    1.46 
   5   3  17   36.45    1.45 
   5   3  17   35.69    1.45 
   5   3  17   34.86    1.50 
   6  -3  17   37.56    1.55 
   6  -3  17   39.47    1.56 
   6   3  17   33.59    1.44 
   6   3  17   33.58    1.43 
   7  -3  17   11.54    0.92 
   7  -3  17   10.91    0.89 
   7   3  17    7.93    0.79 
   7   3  17    7.61    0.76 
   8  -3  17   17.91    1.22 
   8  -3  17   16.67    1.15 
   8   3  17   17.24    1.18 
   8   3  17   16.16    1.12 
   0   4  17   75.46    2.36 
   0  -4  17   77.39    2.23 
   0   4  17   76.51    2.28 
  -1   4  17   27.67    1.15 
   1  -4  17   28.07    1.09 
  -1   4  17   28.20    1.07 
   1   4  17   25.39    1.06 
  -1  -4  17   24.88    0.94 
   1   4  17   24.42    1.12 
   1   4  17   25.18    1.04 
  -2   4  17   25.17    1.02 
   2  -4  17   31.94    1.18 
  -2   4  17   27.68    1.13 
   2  -4  17   27.97    1.13 
   2   4  17   23.63    1.07 
   2   4  17   27.09    1.11 
  -2  -4  17   25.44    0.89 
   2   4  17   25.22    1.16 
  -3   4  17   11.50    0.71 
   3  -4  17   11.78    0.78 
  -3   4  17   13.07    0.65 
   3  -4  17   12.38    0.79 
   3   4  17   10.32    0.82 
   3   4  17    9.93    0.77 
   3   4  17   10.41    0.77 
   4  -4  17   15.50    0.92 
   4  -4  17   14.60    0.91 
  -4   4  17   15.75    0.64 
   4   4  17   15.76    0.95 
   4   4  17   15.43    0.93 
   4   4  17   16.91    1.01 
   5  -4  17   12.37    0.89 
   5  -4  17   10.80    0.87 
   5   4  17    7.10    0.73 
   5   4  17    7.59    0.71 
   5   4  17    8.06    0.71 
   6  -4  17   12.32    0.93 
   6  -4  17   11.01    0.86 
   6   4  17   13.41    0.98 
   6   4  17   14.29    1.03 
   6   4  17   13.39    0.96 
   7  -4  17   19.18    1.17 
   7  -4  17   19.59    1.21 
   7   4  17   16.23    1.11 
   7   4  17   17.03    1.08 
   8  -4  17   18.00    1.21 
   8  -4  17   18.11    1.22 
   8   4  17   20.07    1.27 
   8   4  17   21.96    1.26 
   0  -5  17   41.85    1.41 
   0   5  17   43.29    1.47 
   0   5  17   43.38    1.57 
   1  -5  17   22.14    0.96 
  -1   5  17   21.21    0.93 
  -1   5  17   20.56    1.00 
  -1  -5  17   20.33    0.85 
   1   5  17   22.24    0.98 
   1   5  17   20.70    1.04 
   1   5  17   20.76    0.97 
  -2   5  17   32.39    1.28 
   2  -5  17   33.07    1.26 
  -2   5  17   33.07    1.18 
   2   5  17   29.49    1.25 
   2   5  17   28.79    1.17 
  -2  -5  17   25.75    0.93 
   2   5  17   28.14    1.16 
  -3   5  17   13.41    0.77 
  -3   5  17   13.45    0.69 
   3  -5  17   13.68    0.83 
   3   5  17   16.89    1.00 
   3   5  17   16.78    0.93 
   3   5  17   17.51    0.94 
   4  -5  17   34.19    1.38 
  -4   5  17   34.55    1.12 
   4  -5  17   34.41    1.38 
   4   5  17   35.34    1.39 
   4   5  17   33.49    1.40 
   4   5  17   35.51    1.48 
   5  -5  17   19.13    1.06 
   5  -5  17   17.06    1.03 
   5   5  17   16.92    1.04 
   5   5  17   16.97    1.03 
   5   5  17   19.96    1.12 
   6  -5  17   18.45    1.13 
   6  -5  17   18.71    1.11 
   6   5  17   22.83    1.19 
   6   5  17   21.47    1.18 
   6   5  17   22.04    1.26 
   7  -5  17   16.46    1.12 
   7  -5  17   15.15    1.11 
   7   5  17   16.89    1.22 
   7   5  17   18.50    1.15 
   7   5  17   17.72    1.15 
   8  -5  17    8.36    0.85 
   8  -5  17    7.14    0.84 
   8   5  17    9.43    0.88 
   8   5  17    9.87    0.91 
   0   6  17   68.04    2.21 
   0  -6  17   66.58    2.03 
   0   6  17   69.10    2.11 
  -1   6  17   24.92    1.01 
   1  -6  17   21.63    0.99 
  -1   6  17   22.64    1.09 
   1   6  17   26.67    1.13 
   1   6  17   27.97    1.23 
   1   6  17   26.82    1.14 
  -1  -6  17   26.04    0.98 
  -2   6  17   80.31    2.37 
  -2   6  17   81.47    2.49 
   2  -6  17   82.13    2.44 
   2   6  17   81.14    2.58 
  -2  -6  17   83.25    2.24 
   2   6  17   81.87    2.48 
   2   6  17   80.75    2.49 
  -3   6  17   32.74    1.31 
  -3   6  17   35.36    1.22 
   3  -6  17   34.37    1.35 
   3   6  17   32.28    1.41 
   3   6  17   32.42    1.34 
   3   6  17   35.66    1.38 
   4  -6  17   20.57    1.08 
  -4   6  17   20.45    0.84 
   4   6  17   19.57    1.03 
   4   6  17   18.19    1.09 
   4   6  17   19.17    1.05 
   5  -6  17   22.10    1.17 
   5   6  17   30.09    1.46 
   5   6  17   30.94    1.34 
   5   6  17   31.60    1.37 
   6  -6  17   21.37    1.21 
   6   6 -17   20.96    0.82 
   6   6  17   12.91    1.00 
   6   6  17   14.07    1.06 
   6   6  17   15.22    1.05 
  -6   6 -17   15.31    1.07 
   7  -6  17    4.60    0.71 
   7   6  17    6.37    0.75 
   7   6  17    5.74    0.80 
   7   6  17    5.33    0.71 
   8   6  17   13.85    1.13 
   8   6  17   14.30    1.14 
   0   7  17    0.35    0.36 
   0   7  17    0.56    0.33 
   0  -7  17    0.03    0.28 
  -1   7  17   34.96    1.39 
   1  -7  17   37.02    1.32 
  -1   7  17   35.43    1.32 
   1   7  17   43.73    1.56 
  -1  -7  17   42.81    1.40 
   1   7  17   45.08    1.67 
  -2   7  17   22.30    1.03 
   2  -7  17   18.69    0.99 
  -2   7  17   23.53    0.98 
   2   7  17   24.39    1.21 
  -2  -7  17   27.58    0.91 
   2   7  17   26.06    1.15 
   2   7  17   24.38    1.14 
  -3   7  17   10.21    0.67 
   3  -7  17   11.78    0.84 
  -3   7  17   10.91    0.76 
   3   7  17   11.56    0.89 
   3   7  17   11.63    0.85 
   3   7  17   12.19    0.86 
   4  -7  17   63.69    2.11 
  -4   7  17   61.75    1.86 
   4   7  17   63.99    2.24 
   4   7  17   62.13    2.13 
   4   7  17   64.97    2.13 
   5  -7  17    8.70    0.79 
   5   7 -17    8.66    0.59 
   5   7  17    8.21    0.75 
   5   7  17    8.10    0.81 
   5   7  17    9.07    0.79 
  -5   7 -17    8.61    0.80 
   6  -7  17   32.40    1.51 
  -6   7 -17   33.45    1.53 
   6   7  17   37.68    1.63 
   6   7  17   33.30    1.52 
   6   7  17   35.45    1.53 
   7  -7  17   11.57    0.98 
   7   7  17   12.53    0.99 
   7   7  17    9.87    0.96 
   7   7  17   11.75    0.97 
   8   7  17    2.39    0.66 
   8   7  17    1.39    0.60 
   0   8  17   54.13    1.90 
   0  -8  17   53.80    1.72 
   0   8  17   55.24    1.83 
  -1   8  17    8.27    0.69 
   1  -8  17    8.48    0.68 
  -1   8  17    8.10    0.70 
   1   8  17   10.38    0.77 
  -1  -8  17    9.66    0.60 
   1   8  17    9.98    0.81 
   2  -8  17   19.62    0.97 
  -2   8  17   19.67    0.94 
  -2   8  17   19.30    1.02 
  -2  -8  17   18.81    0.74 
   2   8  17   18.38    1.08 
   2   8  17   19.21    1.02 
   2   8  17   19.23    1.03 
   3   8 -17   17.59    0.86 
  -3   8  17   15.33    0.89 
   3  -8  17   16.38    0.96 
  -3   8  17   15.13    0.82 
   3   8  17   20.87    1.08 
   3   8  17   20.57    1.10 
   3   8  17   21.05    1.16 
   4   8 -17   -0.05    0.28 
  -4   8  17   -0.18    0.27 
   4  -8  17    0.04    0.41 
   4   8  17    0.01    0.44 
   4   8  17    1.20    0.45 
   4   8  17    0.35    0.41 
  -4   8 -17    0.91    0.47 
   5   8 -17   15.04    0.76 
   5  -8  17   18.65    1.11 
   5   8  17   15.52    1.03 
   5   8  17   15.66    1.08 
   5   8  17   13.80    0.99 
  -5   8 -17   13.99    1.04 
   6  -8  17   15.83    1.14 
   6   8  17   20.88    1.20 
   6   8  17   20.15    1.30 
  -6   8 -17   20.13    1.18 
   6   8  17   20.16    1.20 
   7  -8  17    2.46    0.63 
   7   8  17    1.88    0.57 
   7   8  17    1.54    0.61 
   7   8  17    0.51    0..55 
   8   8  17   33.27    1.79 
   0   9 -17   -0.55    0.36 
   0   9  17   -0.28    0.32 
   0   9  17    0.45    0.38 
   0  -9  17   -0.28    0.28 
  -1   9  17   16.98    0.98 
   1   9 -17   16.29    0.92 
   1  -9  17   15.54    0.86 
  -1   9  17   14.46    0.88 
  -1  -9  17   12.71    0.69 
  -1   9 -17   12.42    0.87 
   1   9  17   12.63    0.91 
   1   9  17   13.25    0.88 
   2  -9  17   31.67    1.29 
  -2   9  17   32.76    1.37 
  -2   9  17   32.01    1.27 
   2   9 -17   32.33    1.27 
  -2   9 -17   29.82    1.28 
  -2  -9  17   26.67    0.93 
   2   9  17   25.93    1.24 
   2   9  17   27.43    1.33 
   3  -9  17    5.27    0.59 
  -3   9  17    5.30    0.62 
  -3   9  17    4.29    0.51 
   3   9 -17    5.04    0.52 
   3   9  17    2.24    0.51 
   3   9  17    2.82    0.57 
  -3   9 -17    2.86    0.55 
   3   9  17    3.50    0.57 
  -4   9  17   56.24    1.79 
   4  -9  17   56.24    1.97 
   4   9 -17   56.45    1.79 
  -4   9 -17   55.13    2.00 
   4   9  17   56.28    2.01 
   4   9  17   56.40    2.11 
   4   9  17   55.53    1.99 
   5  -9  17    4.83    0.66 
   5   9 -17    4.60    0.46 
  -5   9 -17    8.04    0.80 
   5   9  17    8.23    0.81 
   5   9  17    8.15    0.77 
   5   9  17    7.32    0.82 
   6  -9  17   27.05    1.40 
   6   9  17   29.72    1.54 
   6   9  17   29.71    1.44 
   6   9  17   25.13    1.38 
  -6   9 -17   27.96    1.40 
   7   9  17    9.31    0.90 
   7   9  17   10.12    0.93 
   0  10  17  107.00    3.24 
   0  10 -17  110.57    3.23 
   0 -10  17  110.72    3.09 
   0  10  17  114.80    3.38 
  -1  10  17    4.27    0.59 
   1 -10  17    4.52    0.52 
   1  10 -17    3.79    0.52 
  -1  10  17    4.52    0.56 
  -1 -10  17    6.76    0.52 
  -1  10 -17    6.44    0.64 
   1  10  17    6.22    0.71 
   1  10  17    6.45    0.65 
   2 -10  17   58.69    1.94 
  -2  10  17   58.85    2.04 
  -2  10  17   55.62    1.94 
   2  10 -17   59.89    1.92 
  -2  10 -17   59.59    2.06 
   2  10  17   61.04    2.07 
   2  10  17   59.26    2.14 
  -3  10  17   21.95    1.05 
   3 -10  17   20.59    1.10 
  -3  10  17   22.54    1.13 
   3  10 -17   21.49    1.02 
   3  10  17   21.17    1.16 
   3  10  17   21.75    1.15 
   3  10  17   20.85    1.20 
  -3  10 -17   20.57    1.14 
   4 -10  17    2.88    0.56 
  -4  10  17    3.32    0.47 
   4  10 -17    2.01    0.40 
   4  10  17    2.82    0.57 
   4  10  17    2.83    0.60 
   4  10  17    2.71    0.57 
  -4  10 -17    2.85    0.57 
   5  10 -17   15.48    0.80 
   5 -10  17   14.06    1.08 
   5  10  17   15.21    1.09 
   5  10  17   13.67    1.10 
   5  10  17   14.99    1.06 
  -5  10 -17   15.08    1.08 
   6 -10  17   10.49    0.92 
  -6  10 -17    9.91    0.91 
   6  10  17   10.29    0.92 
   6  10  17    9.75    0.89 
   6  10  17    8.82    0.96 
   7  10  17    1.73    0.60 
   7  10  17    1.77    0.61 
   0  11  17    5.36    0.61 
   0  11  17    6.41    0.72 
   0 -11  17    7.03    0.58 
   0  11 -17    5.18    0.62 
  -1  11  17   17.74    1.08 
  -1  11  17   18.28    1.01 
   1 -11  17   17.36    0.93 
   1  11 -17   17.88    0.99 
  -1  11 -17   16.74    1.01 
   1  11  17   16.35    1.10 
   1  11  17   15.83    1.00 
  -1 -11  17   15.37    0.78 
   2  11 -17   31.44    1.30 
  -2  11  17   29.00    1.30 
  -2  11  17   32.37    1.41 
   2 -11  17   30.71    1.29 
   2  11  17   32.70    1.51 
   2  11  17   35.04    1.47 
  -2  11 -17   32.29    1.44 
   3 -11  17    6.85    0.69 
   3  11 -17    7.67    0.65 
  -3  11  17    7.41    0.67 
  -3  11 -17    7.06    0.76 
   3  11  17    5.63    0.69 
   3  11  17    6.42    0.77 
   4  11 -17   57.33    1.91 
   4 -11  17   63.00    2.13 
  -4  11  17   61.67    1.97 
   4  11  17   62.91    2.36 
  -4  11 -17   62.12    2.24 
   4  11  17   63.47    2.25 
   4  11  17   65.48    2.26 
   5 -11  17    7.76    0.80 
   5  11 -17    6.15    0.55 
  -5  11 -17    7.35    0.81 
   5  11  17    6.69    0.85 
   5  11  17    6.69    0.77 
   5  11  17    6.96    0.78 
   6  11  17   23.77    1.38 
   6  11  17   25.38    1.38 
  -6  11 -17   24.78    1.41 
   0  12 -17   50.19    1.82 
   0 -12  17   46.59    1.61 
   0  12  17   43.64    1.85 
   0  12  17   52.12    1.81 
  -1  12  17   17.66    1.14 
   1 -12  17   16.44    0.94 
   1  12 -17   17.01    0.99 
  -1  12  17   15.73    1.00 
   1  12  17   16.69    1.12 
  -1 -12  17   16.66    0.80 
   1  12  17   15.83    1.03 
  -1  12 -17   15.63    1.03 
   2 -12  17   19.26    1.04 
   2  12 -17   19.49    1.05 
  -2  12  17   19.58    1.08 
  -2  12  17   20.20    1.16 
   2  12  17   19.42    1.20 
   2  12  17   18.29    1.12 
  -2  12 -17   19.17    1.14 
   3  12 -17    5.94    0.60 
   3 -12  17    6.03    0.67 
  -3  12  17    5.60    0.63 
  -3  12 -17    3.98    0.65 
   3  12  17    3.46    0.65 
   3  12  17    6.58    0.72 
  -4  12  17    1.58    0.44 
   4  12 -17    1.90    0.44 
   4 -12  17    2.47    0.57 
   4  12  17    1.22    0.52 
   4  12  17    1.08    0.57 
  -4  12 -17    1.83    0.57 
   5  12 -17    4.90    0.52 
   5 -12  17    4.77    0.70 
   5  12  17    4.69    0.70 
  -5  12 -17    3.55    0.69 
   5  12  17    5.36    0.74 
   5  12  17    3.88    0.75 
  -6  12 -17   10.82    0.98 
   6  12  17    9.00    0.92 
   0  13  17    2.69    0.54 
   0  13  17    3.58    0.66 
   0 -13  17    2.98    0.47 
   0  13 -17    3.79    0.62 
  -1  13  17   17.38    1.14 
  -1  13  17   19.53    1.10 
   1  13 -17   19.95    1.11 
   1 -13  17   15.95    0.98 
  -1 -13  17   17.19    0.88 
   1  13  17   16.52    1.09 
   1  13  17   15.90    1.18 
  -1  13 -17   17.75    1.11 
  -2  13  17   16.96    1.13 
  -2  13  17   17.82    1.06 
   2  13 -17   16.85    1.02 
   2 -13  17   17.75    1.04 
   2  13  17   12.89    1.02 
   2  13  17   11.36    1.00 
  -2  13 -17   12.34    1.01 
   3  13 -17   23.41    1.13 
   3 -13  17   23.51    1.25 
  -3  13  17   23.69    1.19 
  -3  13 -17   25.42    1.38 
   3  13  17   23.36    1.36 
   3  13  17   21.25    1.27 
   4 -13  17   26.05    1.33 
   4  13 -17   25.73    1.15 
  -4  13  17   24.02    1.20 
   4  13  17   24.74    1.35 
  -4  13 -17   21.73    1.32 
   4  13  17   24.38    1.41 
   5  13 -17   18.09    0.93 
  -5  13 -17   15.17    1.19 
   5  13  17   15.46    1.28 
   6  13  17   11.50    1.06 
   0  14  17   19.97    1.28 
   0 -14  17   20.80    1.01 
   0  14 -17   22.34    1.20 
   0  14  17   21.99    1.22 
   1 -14  17   43.48    1.62 
  -1  14  17   45.88    1.92 
  -1  14  17   46.36    1.78 
   1  14 -17   45.90    1.74 
  -1  14 -17   45.72    1.79 
   1  14  17   44.21    1.89 
   1  14  17   43.76    1.79 
  -2  14  17   11.24    0.89 
   2  14 -17   12.40    0.93 
   2 -14  17   10.45    0.82 
  -2  14  17   11.15    1.00 
   2  14  17   13.20    1.06 
  -2  14 -17   11.54    0.94 
   2  14  17   12.01    1.05 
   3 -14  17   15.79    1.11 
  -3  14  17   16.78    1.05 
   3  14 -17   16.64    1.01 
   3  14  17   17.19    1.25 
  -3  14 -17   20.48    1.25 
   3  14  17   18.05    1.21 
  -4  14  17    3.43    0.56 
   4  14 -17    2.85    0.52 
  -4  14 -17    3.60    0.70 
   5  14 -17    7.57    0.64 
   0  15  17    8.08    0.88 
   0 -15  17    9.95    0.78 
   0  15  17    7.50    0.80 
   0  15 -17    9.76    0.89 
   1 -15  17    5.89    0.64 
   1  15 -17    5.66    0.72 
  -1  15  17    5.97    0.73 
  -1  15  17    6.89    0.87 
  -1  15 -17    5.82    0.75 
   1  15  17    7.34    0.89 
   1  15  17    7.68    0.81 
   2  15 -17    9.95    0.84 
   2 -15  17   10.34    0.82 
  -2  15  17    7.94    0.88 
  -2  15  17    9.72    0.86 
  -2  15 -17    9.12    0.90 
   2  15  17    9.84    1.01 
   3  15 -17   30.44    1.50 
  -3  15  17   31.77    1.44 
  -4  15  17    2.83    0.55 
   0  16  17    0.33    0.53 
   1 -16  17   22.93    1.16 
  -1  16  17   26.02    1.47 
   1  16  17   21.45    1.53 
  -2  16  17    5.05    0.76 
   0   0  18  102.04    2.97 
   0   0  18  101.06    2.86 
  -1   0  18   11.76    0.68 
   1   0  18   13.37    0.75 
   1   0  18   12.48    0.81 
  -1   0  18   13.20    0.76 
   2   0  18   71.56    2.22 
  -2   0  18   70.76    2.07 
   2   0  18   75.37    2.23 
   3   0  18   75.18    2.30 
   3   0  18   72.10    2.30 
  -3   0  18   76.34    2.06 
   4   0  18    5.94    0.60 
   4   0  18    5.53    0.59 
   5   0  18   55.21    1.90 
   5   0  18   52.87    1.89 
   6   0  18   23.48    1.19 
   6   0  18   22.12    1.21 
   7   0  18   18.13    1.14 
   7   0  18   17.00    1.14 
   8   0  18   39.31    1.66 
   8   0  18   36.02    1.66 
   0  -1  18   14.88    0.75 
   0   1  18   15.32    0.77 
   0   1  18   13.71    0.82 
  -1   1  18   86.63    2.43 
   1  -1  18   83.49    2.49 
  -1   1  18   83.53    2.52 
   1   1  18   79.89    2.38 
  -1  -1  18   77.73    2.29 
   1   1  18   82.98    2.49 
   2  -1  18   55.49    1.84 
   2  -1  18   58.57    1.84 
  -2   1  18   56.91    1.82 
  -2   1  18   56.51    1.72 
  -2  -1  18   50.14    1.55 
   2   1  18   53.84    1.83 
   2   1  18   51.12    1.71 
   2   1  18   51.40    1.72 
   3  -1  18   27.42    1.17 
  -3   1  18   26.29    0.93 
   3  -1  18   27.42    1.17 
   3   1  18   27.07    1.17 
  -3  -1  18   26.81    0.89 
   3   1  18   27.65    1.25 
   3   1  18   25.64    1.16 
   4  -1  18   65.06    2.16 
   4  -1  18   67.96    2.15 
   4   1  18   57.82    1.97 
   4   1  18   60.84    1.99 
   5  -1  18    6.77    0.68 
   5  -1  18    7.69    0.69 
   5   1  18    7.28    0.71 
   5   1  18    9.34    0.77 
   6  -1  18   35.18    1.51 
   6  -1  18   33.41    1.44 
   6   1  18   33.82    1.46 
   6   1  18   35.08    1.48 
   7  -1  18   20.45    1.21 
   7  -1  18   20.96    1.19 
   7   1  18   21.98    1.24 
   7   1  18   23.54    1.27 
   8  -1  18    3.10    0.66 
   8  -1  18    2.33    0.62 
   8   1  18    1.42    0.59 
   8   1  18    1.08    0.54 
   0  -2  18   63.84    1.93 
   0   2  18   61.31    1.95 
   0   2  18   64.86    2.05 
   1  -2  18   13.14    0.75 
  -1   2  18   13.15    0.78 
  -1   2  18   13.30    0.71 
   1   2  18   11.37    0.80 
   1   2  18   13.82    0.77 
  -1  -2  18   12.46    0.66 
  -2   2  18   45.99    1.47 
   2  -2  18   46.18    1.58 
  -2   2  18   47.12    1.58 
  -2  -2  18   48.42    1.54 
   2   2  18   54.77    1.84 
   2   2  18   49.63    1.72 
   2   2  18   53.79    1.74 
   3  -2  18   44.79    1.60 
  -3   2  18   45.37    1.38 
   3  -2  18   44.04    1.58 
   3   2  18   45.36    1.63 
  -3  -2  18   45.66    1.31 
   3   2  18   45.08    1.63 
   3   2  18   47.11    1.72 
   4  -2  18   11.44    0.85 
   4  -2  18   11.65    0.82 
   4   2  18   12.80    0.90 
   4   2  18   11.41    0.85 
   4   2  18   12.17    0.92 
   5  -2  18   41.62    1.58 
   5  -2  18   41.63    1.60 
   5   2  18   39.03    1.55 
   5   2  18   38.38    1.54 
   6  -2  18   25.05    1.25 
   6  -2  18   22.62    1.23 
   6   2  18   18.61    1.10 
   6   2  18   20.28    1.14 
   7  -2  18    9.76    0.88 
   7  -2  18   10.12    0.87 
   7   2  18    5.77    0.72 
   7   2  18    7.16    0.76 
   8  -2  18   21.55    1.33 
   8  -2  18   22.08    1.32 
   8   2  18   21.73    1.33 
   8   2  18   23.27    1.31 
   0   3  18   15.92    0.90 
   0   3  18   16.69    0.83 
   0  -3  18   14.19    0.76 
  -1   3  18   37.72    1.37 
   1  -3  18   34.27    1.27 
  -1   3  18   33.47    1.24 
  -1  -3  18   37.95    1.26 
   1   3  18   38.36    1.38 
   1   3  18   36.15    1.45 
   2  -3  18   30.64    1.21 
  -2   3  18   31.91    1.12 
  -2   3  18   28.89    1.18 
   2   3  18   29.26    1.29 
   2   3  18   29.55    1.21 
   2   3  18   29.48    1.21 
  -2  -3  18   29.81    1.02 
  -3   3  18   24.05    0.89 
   3  -3  18   22.39    1.07 
   3   3  18   28.52    1.21 
   3   3  18   26.36    1.25 
   3   3  18   26.86    1.19 
   4  -3  18   53.45    1.82 
   4  -3  18   50.30    1.80 
   4   3  18   59.80    2.12 
   4   3  18   61.76    2.05 
   4   3  18   61.62    2.05 
   5  -3  18    4.50    0.59 
   5  -3  18    6.42    0.68 
   5   3  18    4.36    0.59 
   5   3  18    5.75    0.72 
   5   3  18    6.06    0.67 
   6  -3  18   22.65    1.23 
   6  -3  18   23.17    1.23 
   6   3  18   25.09    1.28 
   6   3  18   26.36    1.30 
   7  -3  18   13.35    1.08 
   7  -3  18   14.41    1.09 
   7   3  18   12.13    0.96 
   7   3  18   11.91    0.96 
   8  -3  18    8.56    0.86 
   8  -3  18    9.34    0.90 
   8   3  18   10.80    0.92 
   8   3  18   10.17    0.94 
   0  -4  18   56.22    1.76 
   0   4  18   58.04    1.81 
   0   4  18   54.47    1.89 
   1  -4  18   30.81    1.17 
  -1   4  18   29.45    1.23 
  -1   4  18   29.73    1.14 
   1   4  18   32.23    1.25 
  -1  -4  18   31.45    1.12 
   1   4  18   31.57    1.33 
   2  -4  18   39.94    1.42 
  -2   4  18   37.79    1.42 
  -2   4  18   39.05    1.34 
   2   4  18   44.66    1.67 
  -2  -4  18   44.52    1.37 
   2   4  18   44.66    1.59 
   2   4  18   44.39    1.57 
  -3   4  18   16.37    0.75 
   3  -4  18   16.66    0.92 
   3   4  18   15.66    0.93 
   3   4  18   16.87    0.95 
   3   4  18   17.08    1.03 
   4  -4  18   23.16    1.13 
   4   4  18   21.97    1.18 
   4   4  18   22.17    1.13 
   4   4  18   23.36    1.13 
   5  -4  18   16.48    1.06 
   5  -4  18   17.97    1.05 
   5   4  18   15.43    1.01 
   5   4  18   16.85    1.08 
   5   4  18   15.94    1.01 
   6  -4  18   20.31    1.18 
   6  -4  18   21.10    1.16 
   6   4  18   22.05    1.27 
   6   4  18   22.56    1.23 
   6   4  18   20.52    1.21 
   7  -4  18   18.23    1.14 
   7  -4  18   16.03    1.16 
   7   4  18   18.20    1.18 
   7   4  18   17.31    1.15 
   8   4  18   11.22    0.97 
   8   4  18   14.40    1.11 
   0  -5  18   73.14    2.15 
   0   5  18   70.96    2.30 
   0   5  18   72.02    2.21 
  -1   5  18   15.32    0.82 
  -1   5  18   15.69    0.89 
   1  -5  18   14.13    0.81 
  -1  -5  18   11.00    0.64 
   1   5  18   10.04    0.80 
   1   5  18   11.48    0.77 
   2  -5  18   50.00    1.69 
  -2   5  18   49.85    1.73 
  -2   5  18   50.72    1.62 
   2   5  18   49.10    1.69 
   2   5  18   47.84    1.67 
  -2  -5  18   49.24    1.45 
   2   5  18   46.05    1.76 
  -3   5  18   27.91    1.03 
   3  -5  18   24.77    1.15 
   3   5  18   18.70    1.03 
   3   5  18   19.96    1.11 
   3   5  18   22.57    1.06 
  -4   5  18   15.11    0.69 
   4  -5  18   16.69    0.98 
   4   5  18   11.93    0.89 
   4   5  18   11.86    0.87 
   4   5  18   11.33    0.92 
   5  -5  18   22.89    1.19 
   5   5  18   25.16    1.23 
   5   5  18   23.44    1.21 
   5   5  18   22.07    1.28 
   6  -5  18    7.88    0.80 
   6   5  18    7.60    0.77 
   6   5  18    6.09    0.78 
   6   5  18    6.32    0.74 
   7  -5  18   10.51    0.92 
   7   5  18   11.81    0.97 
   7   5  18   13.26    1.03 
   8   5  18   12.20    1.01 
   8   5  18   10.56    0.93 
   0   6  18    7.10    0.61 
   0   6  18    5.45    0.60 
   0  -6  18    6.23    0.53 
   1  -6  18   23.82    1.04 
  -1   6  18   24.85    1.05 
  -1   6  18   22.52    1.12 
   1   6  18   19.56    0.99 
  -1  -6  18   21.77    0.87 
   1   6  18   20.14    1.08 
  -2   6  18   12.11    0.74 
   2  -6  18   12.21    0.79 
  -2   6  18   11.91    0.80 
   2   6  18   17.43    0.96 
   2   6  18   17.88    0.97 
   2   6  18   17.31    1.03 
  -2  -6  18   17.03    0.71 
  -3   6  18   14.32    0.75 
   3  -6  18   14.68    0.91 
   3   6  18   12.72    0.89 
   3   6  18   13.95    0.96 
   3   6  18   13.44    0.89 
  -4   6  18   16.56    0.75 
   4  -6  18   15.79    1.00 
   4   6  18   20.29    1.16 
   4   6  18   20.10    1.09 
   4   6  18   19.09    1.09 
   5  -6  18    9.48    0.81 
   5   6  18   12.49    0.99 
   5   6  18   10.05    0.85 
   5   6  18   12.76    0.97 
   6  -6  18   11.56    0.94 
   6   6 -18   12.62    0.65 
   6   6  18   12.63    0.97 
   6   6  18   11.63    1.00 
   6   6  18   13.35    1.04 
  -6   6 -18   12.00    0.97 
   7  -6  18   13.73    1.12 
   7   6  18   16.74    1.16 
   7   6  18   15.35    1.24 
   7   6  18   16.53    1.15 
   0   7  18   20.68    1.01 
   0  -7  18   22.42    0.96 
   0   7  18   21.47    1.12 
  -1   7  18   15.78    0.88 
   1  -7  18   17.77    0.90 
  -1   7  18   17.78    0.99 
   1   7  18   19.41    1.09 
  -1  -7  18   20.81    0.87 
   1   7  18   20.19    1.02 
  -2   7  18   13.26    0.78 
  -2   7  18   14.74    0.88 
   2  -7  18   12.36    0.84 
   2   7  18   16.30    1.03 
   2   7  18   16.82    0.96 
  -2  -7  18   17.05    0.70 
   3  -7  18   33.48    1.36 
  -3   7  18   31.20    1.21 
   3   7  18   39.37    1.54 
   3   7  18   37.63    1.52 
   3   7  18   40.47    1.65 
   4  -7  18    8.24    0.74 
  -4   7  18    9.47    0.63 
   4   7  18   10.50    0.86 
   4   7  18   11.04    0.94 
   4   7  18   12.84    0.93 
   5  -7  18   16.16    1.08 
   5   7 -18   17.70    0.81 
   5   7  18   19.90    1.17 
   5   7  18   21.28    1.18 
   5   7  18   21.35    1.27 
  -5   7 -18   20.14    1.17 
   6  -7  18   10.18    0.89 
   6   7  18    9.75    0.96 
  -6   7 -18   12.75    1.05 
   6   7  18   10.75    0.92 
   6   7  18   12.01    0.96 
   7  -7  18    1.96    0.62 
   7   7  18    1.32    0.56 
   7   7  18    1.30    0.55 
   0   8  18    5.14    0.64 
   0  -8  18    3.90    0.46 
   0   8  18    4.60    0.55 
  -1   8  18   55.24    1.92 
   1  -8  18   52.41    1.77 
  -1   8  18   54.18    1.82 
  -1  -8  18   50.36    1.56 
   1   8  18   50.61    1.76 
   1   8  18   47.90    1.85 
  -2   8  18   26.14    1.12 
   2  -8  18   26.26    1.16 
  -2   8  18   26.66    1.21 
   2   8  18   20.33    1.18 
  -2  -8  18   22.79    0.83 
   2   8  18   22.86    1.13 
   3  -8  18   13.08    0.91 
  -3   8  18   13.36    0.79 
   3   8  18   11.06    0.86 
   3   8  18   10.74    0.87 
   3   8  18    9.93    0.89 
   4   8 -18   40.48    1.41 
   4  -8  18   41.61    1.64 
  -4   8  18   40.42    1.39 
   4   8  18   40.80    1.66 
  -4   8 -18   41.21    1.68 
   4   8  18   44.82    1.70 
   4   8  18   41.72    1.77 
   5   8 -18    4.38    0.46 
   5  -8  18    6.50    0.74 
   5   8  18    5.95    0.78 
   5   8  18    6.91    0.77 
   5   8  18    6.93    0.76 
  -5   8 -18    6.93    0.75 
   6  -8  18   27.12    1.43 
  -6   8 -18   30.97    1.49 
   6   8  18   29.50    1.45 
   6   8  18   31.65    1.60 
   6   8  18   27.85    1.43 
   7   8  18   16.87    1.24 
   7   8  18   20.17    1.27 
   0   9  18   46.29    1.68 
   0   9  18   47.38    1.78 
   0  -9  18   45.55    1.54 
   1   9 -18   12.04    0.86 
  -1   9  18   10.81    0.82 
  -1   9  18   11.95    0.93 
   1  -9  18   11.38    0.78 
   1   9  18   14.20    0.93 
  -1   9 -18   13.94    0.94 
   1   9  18   15.47    1.01 
  -1  -9  18   13.16    0.72 
  -2   9  18   20.84    1.03 
   2  -9  18   19.70    1.04 
  -2   9  18   20.14    1.11 
   2   9 -18   20.97    1.03 
  -2   9 -18   22.31    1.17 
   2   9  18   23.80    1.28 
   2   9  18   24.67    1.21 
  -3   9  18   36.43    1.36 
   3  -9  18   34.78    1.45 
   3   9 -18   36.19    1.35 
   3   9  18   38.49    1.54 
  -3   9 -18   35.93    1.53 
   3   9  18   34.79    1.59 
  -4   9  18    1.92    0.40 
   4   9 -18    2.26    0.42 
   4  -9  18    1.27    0.48 
   4   9  18    1.54    0.51 
  -4   9 -18    2.00    0.55 
   4   9  18    1.81    0.50 
   4   9  18    1.16    0.53 
   5  -9  18   34.29    1.54 
   5   9 -18   35.24    1.26 
  -5   9 -18   29.33    1.41 
   5   9  18   28.36    1.48 
   5   9  18   27.38    1.40 
   5   9  18   28.48    1.40 
   6  -9  18    5.69    0.75 
   6   9  18    6.34    0.78 
   6   9  18    5.72    0.82 
   6   9  18    6.95    0.80 
  -6   9 -18    5.54    0.76 
   7   9  18    5.59    0.75 
   0 -10  18    0.42    0.34 
   0  10  18    1.17    0.43 
   0  10 -18    1.13    0.45 
   0  10  18    0.79    0.46 
  -1  10  18   35.47    1.45 
  -1  10  18   37.75    1.55 
   1 -10  18   35.46    1.37 
   1  10 -18   36.87    1.44 
  -1  10 -18   37.01    1.48 
  -1 -10  18   33.92    1.20 
   1  10  18   32.80    1.50 
   1  10  18   32.03    1.42 
   2  10 -18   22.97    1.13 
  -2  10  18   25.74    1.17 
   2 -10  18   24.15    1.16 
  -2  10  18   26.55    1.28 
   2  10  18   23.35    1.27 
   2  10  18   23.11    1.22 
  -2  10 -18   23.23    1.21 
  -3  10  18    7.40    0.65 
   3  10 -18    7.35    0.64 
   3 -10  18    6.50    0.68 
  -3  10 -18    5.52    0.71 
   3  10  18    5.26    0.67 
   3  10  18    5.73    0.78 
   4 -10  18   25.55    1.30 
   4  10 -18   26.25    1.11 
  -4  10  18   26.58    1.12 
  -4  10 -18   24.42    1.33 
   4  10  18   28.69    1.39 
   4  10  18   27.83    1.44 
   5 -10  18    5.92    0.73 
   5  10 -18    5.86    0.53 
   5  10  18    8.17    0.83 
   5  10  18    6.91    0.78 
   5  10  18    7.51    0.87 
  -5  10 -18    8.55    0.86 
   6  10  18   17.23    1.22 
  -6  10 -18   21.70    1.32 
   6  10  18   18.29    1.25 
   0 -11  18   53.69    1.78 
   0  11  18   55.10    2.06 
   0  11  18   55.96    1.97 
   0  11 -18   56.82    1.99 
  -1  11  18    5.56    0.65 
  -1  11  18    5.91    0.70 
   1 -11  18    5.05    0.56 
   1  11 -18    5.63    0.65 
  -1  11 -18   12.00    0.93 
   1  11  18    9.69    0.89 
   1  11  18   10.89    0.87 
  -1 -11  18    9.90    0.68 
  -2  11  18   30.64    1.34 
   2 -11  18   30.34    1.32 
   2  11 -18   31.21    1.33 
  -2  11  18   31.00    1.42 
   2  11  18   34.63    1.62 
  -2  11 -18   38.76    1.58 
   2  11  18   36.56    1.57 
   3 -11  18   31.99    1.38 
  -3  11  18   29.12    1.29 
   3  11 -18   30.08    1.28 
   3  11  18   34.06    1.60 
  -3  11 -18   35.58    1.53 
   3  11  18   30.02    1.49 
   4 -11  18    1.46    0.54 
   4  11 -18    1.35    0.42 
  -4  11  18    1.58    0.43 
  -4  11 -18    4.64    0.72 
   4  11  18    2.20    0.58 
   4  11  18    4.88    0.73 
   5  11 -18   20.59    0.97 
   5 -11  18   21.57    1.29 
   5  11  18   24.58    1.35 
   5  11  18   23.27    1.42 
  -5  11 -18   23.97    1.35 
  -6  11 -18    9.46    0.94 
   6  11  18    9.64    0.94 
   0  12 -18    9.90    0.84 
   0 -12  18    8.97    0.74 
   0  12  18    9.97    0.91 
   0  12  18    7.56    0.75 
   1 -12  18   36.45    1.40 
  -1  12  18   32.86    1.47 
   1  12 -18   36.83    1.51 
  -1  12  18   34.10    1.57 
  -1 -12  18   35.17    1.26 
   1  12  18   32.46    1.56 
   1  12  18   34.06    1.49 
  -1  12 -18   31.99    1.48 
   2 -12  18   18.38    1.04 
   2  12 -18   16.94    1.02 
  -2  12  18   15.18    1.01 
  -2  12  18   16.88    1.14 
  -2  12 -18   18.48    1.17 
   2  12  18   19.40    1.24 
   2  12  18   18.73    1.17 
   3  12 -18   20.62    1.08 
   3 -12  18   22.55    1.21 
  -3  12  18   22.62    1.15 
  -3  12 -18   20.82    1.29 
   3  12  18   19.55    1.28 
   3  12  18   19.77    1.23 
  -4  12  18   25.74    1.20 
   4 -12  18   27.58    1.37 
   4  12 -18   26.71    1.17 
  -4  12 -18   29.27    1.47 
   4  12  18   28.34    1.58 
   4  12  18   28.51    1.47 
   5  12 -18    9.51    0.73 
  -5  12 -18    8.21    0.91 
   5  12  18    7.14    0.92 
   0 -13  18   17.44    0.95 
   0  13  18   18.16    1.21 
   0  13  18   18.22    1.12 
   0  13 -18   18.80    1.16 
  -1  13  18   21.86    1.21 
  -1  13  18   21.91    1.32 
   1  13 -18   24.08    1.21 
   1 -13  18   20.42    1.10 
  -1  13 -18   20.90    1.24 
   1  13  18   21.89    1.21 
   1  13  18   18.15    1.28 
   2 -13  18   26.50    1.26 
  -2  13  18   25.68    1.37 
   2  13 -18   27.02    1.27 
  -2  13  18   26.87    1.30 
  -2  13 -18   27.28    1.39 
   2  13  18   24.38    1.42 
   2  13  18   26.70    1.39 
   3  13 -18   21.95    1.11 
  -3  13  18   20.94    1.15 
   3 -13  18   19.02    1.17 
  -3  13 -18   19.71    1.26 
   3  13  18   17.14    1.20 
   3  13  18   19.87    1.34 
   4  13 -18   16.41    0.97 
  -4  13  18   17.17    1.02 
  -4  13 -18   16.36    1.24 
   4  13  18   16.60    1.31 
   5  13 -18   14.78    0.90 
   0  14  18   16.09    1.21 
   0  14  18   16.41    1.12 
   0  14 -18   18.08    1.17 
   0 -14  18   17.97    0.94 
  -1  14  18   10.60    0.96 
  -1  14  18   12.15    0.98 
   1  14 -18    9.64    0.87 
   1 -14  18    9.83    0.77 
   1  14  18   10.49    0.90 
   1  14  18   10.85    0.98 
  -1  14 -18   10.89    0.93 
  -2  14  18   10.38    0.95 
  -2  14  18   11.08    0.90 
   2 -14  18   11.23    0.84 
   2  14 -18   10.01    0.83 
   2  14  18   11.66    1.10 
  -2  14 -18   11.98    1.00 
   2  14  18   11.89    0.98 
   3  14 -18   10.21    0.82 
  -3  14  18   12.17    0.97 
   3 -14  18    9.33    0.87 
  -3  14 -18    7.68    0.96 
  -4  14  18    4.76    0.62 
   0  15  18    0.58    0.56 
  -1  15  18   15.53    1.17 
   1 -15  18   12.92    0.94 
   1  15  18   13.16    1.14 
   2 -15  18   12.46    0.98 
   1 -16  18    3.73    0.57 
  -1  16  18    2.73    0.68 
   0   0  19    0.22    0.29 
   0   0  19    0.41    0.36 
   1   0  19   12.42    0.76 
  -1   0  19   13.20    0.71 
   2   0  19   56.55    1.86 
  -2   0  19   56.39    1.71 
   3   0  19    3.48    0.52 
  -3   0  19    3.71    0.34 
   4   0  19  137.44    3.82 
   4   0  19  133.20    3.85 
   5   0  19    2.50    0.51 
   5   0  19    1.24    0.44 
   6   0  19   44.09    1.74 
   6   0  19   47.10    1.81 
   7   0  19    9.86    0.88 
   7   0  19    7.65    0.82 
   8   0  19    0.47    0.52 
   0   1  19  160.64    4.37 
   0   1  19  156.76    4.25 
   0  -1  19  154.99    4.23 
  -1   1  19    8.46    0.67 
   1  -1  19    8.99    0.68 
  -1   1  19    8.45    0.62 
  -1  -1  19    9.07    0.61 
   1   1  19    8.01    0.71 
   1   1  19    7.88    0.66 
  -2   1  19   75.76    2.18 
  -2   1  19   76.23    2.31 
   2  -1  19   73.41    2.32 
  -2  -1  19   76.43    2.19 
   2   1  19   78.64    2.37 
   2   1  19   75.34    2.47 
   3  -1  19   23.92    1.10 
  -3   1  19   22.19    0.85 
   3   1  19   22.23    1.08 
   3   1  19   22.37    1.16 
  -3  -1  19   21.17    0.78 
   4  -1  19    1.22    0.44 
   4   1  19    0.10    0.38 
   4   1  19    1.02    0.42 
   5  -1  19   19.98    1.11 
   5  -1  19   17.23    1.07 
   5   1  19   20.19    1.10 
   5   1  19   16.84    1.06 
   6  -1  19   27.73    1.34 
   6  -1  19   26.37    1.35 
   6   1  19   28.17    1.37 
   6   1  19   27.98    1.36 
   7  -1  19    8.83    0.85 
   7  -1  19    8.29    0.84 
   7   1  19    9.53    0.88 
   7   1  19   10.05    0.91 
   8  -1  19   41.32    1.80 
   8   1  19   41.32    1.78 
   0   2  19    0.91    0.33 
   0   2  19    0.44    0.37 
   0  -2  19    0.70    0.30 
  -1   2  19   35.55    1.25 
   1  -2  19   35.32    1.30 
  -1   2  19   33.41    1.35 
   1   2  19   38.67    1.40 
   1   2  19   37.65    1.48 
  -1  -2  19   36.74    1.28 
  -2   2  19   51.17    1.70 
  -2   2  19   46.36    1.56 
   2  -2  19   52.02    1.71 
   2   2  19   51.40    1.77 
  -2  -2  19   52.29    1.58 
   2   2  19   52.62    1.87 
  -3   2  19   18.88    0.78 
   3  -2  19   19.25    1.00 
   3   2  19   21.55    1.14 
   3   2  19   19.90    1.04 
   3   2  19   19.53    1.11 
   4  -2  19   86.82    2.68 
   4   2  19   84.67    2.64 
   4   2  19   84.52    2.77 
   4   2  19   87.38    2.68 
   5  -2  19   12.48    0.95 
   5   2  19   15.56    1.02 
   5   2  19   15.95    1.03 
   6  -2  19   45.13    1.75 
   6  -2  19   42.09    1.86 
   6   2  19   42.83    1.71 
   6   2  19   41.98    1.70 
   7  -2  19    5.82    0.73 
   7   2  19    5.76    0.76 
   7   2  19    7.81    0.80 
   8   2  19    1.73    0.58 
   0   3  19   66.48    2.07 
   0  -3  19   67.82    2.02 
   0   3  19   63.82    2.15 
   1  -3  19   41.57    1.43 
  -1   3  19   39.11    1.50 
  -1   3  19   39.24    1.39 
   1   3  19   39.17    1.43 
  -1  -3  19   39.46    1.32 
   1   3  19   36.30    1.49 
  -2   3  19   33.48    1.19 
  -2   3  19   32.17    1.30 
   2  -3  19   33.05    1.29 
   2   3  19   34.62    1.48 
  -2  -3  19   36.10    1.19 
   2   3  19   36.91    1.41 
   3  -3  19   15.37    0.91 
  -3   3  19   15.10    0.73 
   3   3  19   18.26    1.07 
   3   3  19   17.13    0.99 
   3   3  19   19.48    1.08 
   4  -3  19    7.86    0.73 
   4   3  19    7.95    0.79 
   4   3  19    5.91    0.66 
   4   3  19    7.05    0.69 
   5  -3  19    7.20    0.72 
   5   3  19    7.56    0.80 
   5   3  19    8.96    0.83 
   5   3  19    7.84    0.75 
   6  -3  19   24.32    1.28 
   6   3  19   16.28    1.13 
   6   3  19   17.27    1.11 
   7  -3  19   19.05    1.21 
   7   3  19   16.31    1.15 
   7   3  19   15.36    1.13 
   8   3  19   22.35    1.32 
   0  -4  19    1.41    0.35 
   0   4  19    1.05    0.41 
   0   4  19    0.97    0.35 
  -1   4  19   21.16    1.02 
   1  -4  19   17.96    0.92 
  -1   4  19   18.70    0.92 
   1   4  19   17.28    1.01 
  -1  -4  19   17.43    0.81 
   1   4  19   17.58    0.93 
  -2   4  19   17.68    0.86 
  -2   4  19   18.70    0.97 
   2  -4  19   18.24    0.94 
   2   4  19   17.14    1.02 
   2   4  19   16.47    0.93 
  -2  -4  19   17.48    0.74 
   3  -4  19   38.78    1.47 
  -3   4  19   37.73    1.28 
   3   4  19   29.78    1.32 
   3   4  19   31.21    1.39 
   3   4  19   33.14    1.43 
   4  -4  19   35.09    1.44 
   4   4  19   39.72    1.56 
   4   4  19   37.95    1.62 
   4   4  19   38.56    1.57 
   5  -4  19   29.03    1.35 
   5   4  19   24.85    1.27 
   5   4  19   24.23    1.34 
   5   4  19   26.06    1.29 
   6  -4  19   14.35    1.07 
   6   4  19   17.30    1.19 
   6   4  19   18.36    1.18 
   6   4  19   18.96    1.17 
   7  -4  19   11.86    0.97 
   7   4  19   11.99    0.97 
   7   4  19    9.26    0.90 
   8   4  19    3.19    0.65 
   0   5  19   33.28    1.28 
   0   5  19   33.51    1.38 
   0  -5  19   30.73    1.20 
   1  -5  19   27.85    1.17 
  -1   5  19   29.96    1.17 
  -1   5  19   30.43    1.30 
   1   5  19   30.93    1.38 
  -1  -5  19   32.68    1.16 
   1   5  19   32.60    1.30 
   2  -5  19   20.66    1.02 
  -2   5  19   22.09    1.08 
  -2   5  19   22.25    0.97 
  -2  -5  19   15.46    0.68 
   2   5  19   15.90    0.93 
   2   5  19   14.09    0.97 
   3  -5  19   11.59    0.85 
  -3   5  19   13.02    0.71 
   3   5  19    7.56    0.74 
   3   5  19    7.35    0.69 
   4  -5  19    7.72    0.71 
   4   5  19   11.20    0.86 
   4   5  19   10.42    0.82 
   4   5  19    9.23    0.84 
   5  -5  19   12.12    0.96 
   5   5  19   15.34    1.08 
   5   5  19   14.31    1.04 
   5   5  19   14.11    1.07 
   6  -5  19    4.57    0.68 
   6   5  19    7.30    0.79 
   6   5  19    7.90    0.83 
   6   5  19    7.49    0.89 
   7  -5  19   17.02    1.21 
   7   5  19   13.58    1.10 
   7   5  19   11.27    0.96 
   0   6  19   36.55    1.36 
   0   6  19   33.83    1.43 
   0  -6  19   32.99    1.26 
   1  -6  19   11.17    0.78 
  -1   6  19   10.94    0.76 
  -1   6  19   11.85    0.87 
   1   6  19   13.41    0.94 
   1   6  19   13.02    0.84 
  -1  -6  19   12.86    0.70 
   2  -6  19   18.55    0.99 
  -2   6  19   20.33    0.94 
  -2   6  19   20.14    1.04 
  -2  -6  19   18.79    0.76 
   2   6  19   19.19    1.02 
   2   6  19   18.74    1.10 
  -3   6  19   42.09    1.42 
   3  -6  19   39.35    1.54 
   3   6  19   44.71    1.68 
   3   6  19   43.86    1.77 
   4  -6  19   14.22    0.99 
   4   6  19   12.31    0.95 
   4   6  19   12.05    0.99 
   4   6  19   13.53    0.96 
   5  -6  19   34.66    1.53 
   5   6  19   34.77    1.53 
   5   6  19   37.11    1.64 
   5   6  19   35.59    1.56 
   6  -6  19    7.13    0.80 
  -6   6 -19    5.42    0.75 
   6   6  19    4.43    0.76 
   6   6  19    5.29    0.71 
   6   6  19    5.46    0.72 
   7   6  19    5.22    0.74 

   7   6  19    6.39    0.80 
   0  -7  19   14.87    0.84 
   0   7  19   19.10    1.05 
   0   7  19   16.48    0.93 
   1  -7  19   69.13    2.12 
  -1   7  19   65.67    2.12 
  -1   7  19   65.24    2.24 
   1   7  19   65.40    2.26 
   1   7  19   66.64    2.15 
  -1  -7  19   64.01    1.95 
   2  -7  19   14.31    0.90 
  -2   7  19   15.03    0.95 
  -2   7  19   14.71    0.84 
   2   7  19   16.49    1.07 
  -2  -7  19   16.45    0.73 
   2   7  19   17.12    0.99 
   3  -7  19   10.74    0.81 
  -3   7  19    9.62    0.70 
   3   7  19    9.73    0.89 
   3   7  19    8.66    0.75 
   4  -7  19   13.07    0.97 
   4   7  19   15.26    1.13 
   4   7  19   14.80    1.02 
   5   7 -19    3.87    0.46 
   5  -7  19    3.70    0.63 
   5   7  19    4.05    0.70 
   5   7  19    3.48    0.61 
   5   7  19    3.92    0.64 
   6  -7  19   11.15    0.96 
   6   7  19   11.64    0.97 
   6   7  19   10.83    0.94 
  -6   7 -19    9.77    0.91 
   6   7  19   11.10    1.01 
   7   7  19   19.53    1.28 
   7   7  19   19.31    1.36 
   0   8  19   11.85    0.94 
   0   8  19   12.46    0.85 
   0  -8  19   13.36    0.78 
  -1   8  19    6.84    0.64 
  -1   8  19    6.74    0.73 
   1  -8  19    5.89    0.59 
   1   8  19    8.80    0.76 
  -1  -8  19    9.54    0.63 
   1   8  19    7.48    0.80 
  -2   8  19    6.00    0.59 
   2  -8  19    6.49    0.63 
  -2   8  19    7.02    0.72 
   2   8  19    9.95    0.88 
   2   8  19    9.32    0.77 
   3  -8  19   35.36    1.47 
  -3   8  19   35.25    1.33 
   3   8  19   36.35    1.61 
   3   8  19   35.64    1.52 
   4  -8  19    4.64    0.65 
   4   8 -19    4.44    0.50 
  -4   8 -19    5.12    0.70 
   4   8  19    6.37    0.80 
   4   8  19    5.74    0.69 
   5  -8  19   31.08    1.48 
   5   8 -19   30.18    1.16 
   5   8  19   26.89    1.43 
   5   8  19   25.15    1.36 
   5   8  19   27.48    1.46 
  -5   8 -19   27.57    1.39 
   6  -8  19    7.12    0.82 
  -6   8 -19    6.06    0.77 
   6   8  19    6.73    0.86 
   6   8  19    8.42    0.85 
   6   8  19    7.23    0.82 
   7   8  19    3.87    0.70 
   0   9  19    1.55    0.50 
   0   9  19    1.61    0.44 
   0  -9  19    0.97    0.37 
  -1   9  19   60.14    2.10 
   1  -9  19   60.99    1.94 
  -1   9  19   55.18    1.97 
  -1  -9  19   61.31    1.82 
   1   9  19   57.63    2.04 
   1   9  19   58.61    2.17 
   2   9 -19    7.73    0.69 
   2  -9  19    8.12    0.71 
  -2   9  19    9.23    0.82 
  -2   9  19    9.43    0.73 
  -2   9 -19    5.85    0.69 
   2   9  19    6.74    0.70 
   2   9  19    4.21    0.65 
   3   9 -19   12.02    0.83 
  -3   9  19   12.19    0.81 
   3  -9  19   12.38    0.95 
   3   9  19   10.24    0.86 
  -3   9 -19   10.38    0.88 
   3   9  19   11.55    0.97 
  -4   9  19   17.12    0.93 
   4  -9  19   14.03    1.04 
   4   9 -19   15.37    0.87 
  -4   9 -19   15.54    1.09 
   4   9  19   14.54    1.12 
   4   9  19   14.20    1.06 
   5  -9  19    3.79    0.65 
   5   9 -19    4.40    0.49 
   5   9  19    5.62    0.74 
   5   9  19    4.93    0.78 
  -5   9 -19    6.22    0.77 
   6   9  19    6.30    0.81 
   6   9  19    6.22    0.78 
  -6   9 -19    6.03    0.79 
   0  10  19   27.18    1.35 
   0 -10  19   26.14    1.10 
   0  10 -19   24.98    1.27 
   0  10  19   26.73    1.26 
   1 -10  19   10.79    0.81 
  -1  10  19   11.97    0.95 
   1  10 -19   10.46    0.84 
  -1  10  19    9.38    0.78 
  -1 -10  19   10.45    0.68 
  -1  10 -19    8.71    0.78 
   1  10  19   10.22    0.84 
   1  10  19    8.65    0.84 
  -2  10  19   19.49    1.13 
   2  10 -19   19.84    1.05 
  -2  10  19   18.26    1.03 
   2 -10  19   18.84    1.06 
   2  10  19   21.45    1.19 
  -2  10 -19   21.50    1.21 
   2  10  19   22.01    1.30 
  -3  10  19   59.54    1.99 
   3  10 -19   61.99    2.00 
   3 -10  19   59.32    2.08 
   3  10  19   63.71    2.36 
  -3  10 -19   64.62    2.26 
   3  10  19   64.01    2.25 
   4  10 -19    1.52    0.42 
  -4  10  19    2.13    0.43 
   4 -10  19    1.59    0.53 
   4  10  19    2.81    0.66 
   4  10  19    3.41    0.61 
  -4  10 -19    2.50    0.59 
   5 -10  19   51.20    1.99 
   5  10 -19   51.49    1.69 
  -5  10 -19   51.38    1.99 
   5  10  19   49.85    1.98 
   5  10  19   48.55    2.07 
  -6  10 -19    2.12    0.62 
   0  11 -19   10.13    0.86 
   0 -11  19   11.70    0.79 
   0  11  19   11.18    0.95 
   0  11  19   10.62    0.86 
  -1  11  19   62.85    2.15 
  -1  11  19   61.99    2.24 
   1  11 -19   65.61    2.16 
   1 -11  19   60.35    2.02 
  -1  11 -19   68.54    2.33 
   1  11  19   65.24    2.40 
  -1 -11  19   67.39    2.06 
   1  11  19   70.13    2.34 
   2 -11  19   12.46    0.93 
   2  11 -19   12.41    0.92 
  -2  11  19   13.84    0.93 
  -2  11  19   13.23    0.99 
  -2  11 -19   13.94    1.05 
   2  11  19   13.41    1.09 
   2  11  19   11.97    1.00 
  -3  11  19    9.25    0.75 
   3 -11  19   10.01    0.85 
   3  11 -19   10.26    0.83 
  -3  11 -19    8.94    0.89 
   3  11  19    8.36    0.85 
   3  11  19   10.17    1.00 
   4 -11  19    7.23    0.79 
   4  11 -19    8.86    0.70 
   4  11  19    6.41    0.85 
   4  11  19    7.10    0.79 
  -4  11 -19    8.51    0.88 
   5  11 -19    4.40    0.52 
  -5  11 -19    6.19    0.84 
  -6  11 -19    6.65    0.93 
   0  12  19    4.85    0.73 
   0 -12  19    5.44    0.57 
   0  12 -19    4.52    0.67 
   0  12  19    6.13    0.70 
  -1  12  19    7.02    0.74 
   1 -12  19    6.91    0.66 
  -1  12  19    7.91    0.85 
   1  12 -19    7.18    0.75 
   1  12  19    8.31    0.80 
   1  12  19    6.96    0.82 
  -1  12 -19    8.53    0.84 
   2 -12  19    9.55    0.78 
  -2  12  19   12.14    0.94 
  -2  12  19   10.52    0.95 
   2  12 -19   12.72    0.92 
   2  12  19    9.16    0.85 
   2  12  19    9.36    0.95 
  -2  12 -19    8.37    0.85 
   3  12 -19   34.21    1.42 
   3 -12  19   33.68    1.49 
  -3  12  19   32.89    1.42 
   3  12  19   36.35    1.67 
  -3  12 -19   37.93    1.73 
   3  12  19   39.26    1.81 
   4  12 -19   16.94    0.97 
  -4  12 -19   17.60    1.22 
   5  12 -19   36.34    1.38 
   0  13  19   32.00    1.59 
   0 -13  19   30.18    1.24 
   0  13 -19   29.59    1.44 
   0  13  19   32.30    1.49 
  -1  13  19   25.30    1.32 
   1 -13  19   26.46    1.23 
   1  13 -19   26.61    1.35 
  -1  13  19   24.91    1.44 
  -1  13 -19   27.40    1.39 
   1  13  19   26.05    1.46 
   1  13  19   27.57    1.40 
  -2  13  19   16.55    1.10 
   2  13 -19   15.27    1.03 
   2 -13  19   16.13    1.05 
   2  13  19   15.29    1.14 
  -2  13 -19   16.16    1.21 
   2  13  19   15.87    1.26 
  -3  13  19    8.55    0.78 
   3 -13  19    7.08    0.77 
   3  13 -19    7.96    0.74 
   3  13  19    7.32    0.95 
  -3  13 -19    8.72    0.93 
   4  13 -19    3.09    0.53 
   0  14  19    4.46    0.78 
   0  14  19    3.09    0.64 
   1 -14  19    4.63    0.59 
  -1  14  19    5.06    0.71 
  -1  14  19    5.85    0.79 
   1  14  19    5.27    0.82 
   2 -14  19   18.46    1.11 
  -2  14  19   17.26    1.14 
  -3  14  19   15.22    1.07 
   0  15  19   30.98    1.66 
  -1  15  19    5.92    0.84 
   1 -15  19    6.17    0.65 
   0   0  20  151.93    4.15 
   1   0  20   -0.02    0.30 
  -1   0  20    0.19    0.29 
   2   0  20   51.77    1.80 
  -2   0  20   54.05    1.65 
   3   0  20   -0.45    0.33 
   4   0  20    3.39    0.58 
   5   0  20    2.83    0.57 
   6   0  20   24.11    1.32 
   7   0  20    3.02    0.65 
   0  -1  20    3.51    0.44 
   0   1  20    2.47    0.42 
   0   1  20    1.72    0.44 
   1  -1  20    0.73    0.35 
  -1   1  20    0.80    0.32 
  -1   1  20    1.07    0.39 
   1   1  20    0.70    0.42 
   1   1  20    0.07    0.31 
  -1  -1  20    0.41    0.28 
   2  -1  20   50.34    1.80 
  -2   1  20   55.50    1.67 
   2   1  20   46.14    1.78 
   2   1  20   48.97    1.70 
  -2  -1  20   47.65    1.51 
   3  -1  20    6.40    0.65 
  -3   1  20    7.57    0.52 
   3   1  20    5.67    0.63 
   4  -1  20   78.42    2.52 
   4   1  20   75.88    2.46 
   5  -1  20    6.17    0.72 
   5   1  20    4.37    0.62 
   6  -1  20   37.06    1.62 
   6   1  20   32.65    1.53 
   7  -1  20    0.41    0.50 
   7   1  20    0.40    0.52 
   0  -2  20   87.02    2.56 
   0   2  20   86.10    2.58 
   0   2  20   90.19    2.72 
  -1   2  20   23.16    0.98 
   1  -2  20   21.31    1.01 
  -1   2  20   21.62    1.05 
   1   2  20   23.82    1.17 
   1   2  20   23.93    1.08 
  -1  -2  20   24.03    0.98 
  -2   2  20   61.09    1.99 
  -2   2  20   60.91    1.86 
   2  -2  20   58.08    1.96 
   2   2  20   55.27    1.97 
   2   2  20   51.94    1.84 
  -2  -2  20   55.88    1.66 
  -3   2  20    3.87    0.39 
   3  -2  20    3.38    0.52 
   3   2  20    4.29    0.58 
   3   2  20    5.25    0.66 
   4  -2  20    3.52    0.55 
   4   2  20    1.97    0.50 
   4   2  20    1.56    0.51 
   5  -2  20    0.40    0.44 
   5   2  20    0.59    0.45 
   6  -2  20   22.11    1.26 
   6   2  20   24.01    1.32 
   7  -2  20    8.96    0.88 
   7   2  20    6.21    0.78 
   0  -3  20    3.87    0.46 
   0   3  20    4.57    0.52 
   0   3  20    4.73    0.60 
   1  -3  20    8.86    0.70 
  -1   3  20    9.31    0.77 
  -1   3  20    7.89    0.66 
  -1  -3  20    9.83    0.66 
   1   3  20   10.13    0.84 
   1   3  20   10.10    0.76 
  -2   3  20   35.88    1.27 
   2  -3  20   36.55    1.40 
  -2   3  20   34.97    1.40 
   2   3  20   46.65    1.70 
   2   3  20   45.97    1.79 
  -2  -3  20   49.63    1.50 
  -3   3  20   17.41    0.80 
   3  -3  20   17.12    0.98 
   3   3  20   18.75    1.11 
   3   3  20   18.00    1.05 
   4  -3  20   51.68    1.86 
   4   3  20   56.03    2.03 
   4   3  20   60.66    2.18 
   5  -3  20   13.98    1.04 
   5   3  20   15.79    1.10 
   6  -3  20   29.22    1.44 
   6   3  20   27.14    1.40 
   7   3  20    1.98    0.61 
   7   3  20    1.98    0.60 
   0   4  20   46.23    1.71 
   0   4  20   46.19    1.60 
   0  -4  20   41.55    1.51 
   1  -4  20   40.04    1.48 
  -1   4  20   44.24    1.62 
  -1   4  20   40.98    1.48 
  -1  -4  20   36.70    1.32 
   1   4  20   39.72    1.47 
   1   4  20   38.39    1.56 
  -2   4  20   19.09    0.90 
   2  -4  20   20.40    1.01 
  -2   4  20   17.96    0.99 
   2   4  20   17.85    1.09 
   2   4  20   17.18    0.99 
  -2  -4  20   18.73    0.78 
  -3   4  20   18.47    0.83 
   3  -4  20   16.85    1.01 
   3   4  20   13.11    1.03 
   3   4  20   14.20    0.95 
   4  -4  20    0.37    0.43 
   4   4  20    1.13    0.51 
   4   4  20    0.86    0.46 
   5  -4  20    7.98    0.79 
   5   4  20    9.81    0.96 
   5   4  20   10.36    0.90 
   6  -4  20   12.98    1.09 
   6   4  20   10.75    0.94 
   7   4  20   15.42    1.25 
   7   4  20   19.08    1.33 
   0   5  20    3.97    0.51 
   0  -5  20    5.10    0.52 
   0   5  20    4.59    0.61 
   1  -5  20    8.26    0.66 
  -1   5  20    8.69    0.72 
  -1   5  20    9.74    0.80 
   1   5  20    7.79    0.66 
   1   5  20    6.87    0.73 
  -1  -5  20    7.68    0.61 
  -2   5  20   23.76    1.03 
   2  -5  20   22.72    1.09 
  -2   5  20   22.54    1.13 
   2   5  20   21.64    1.10 
  -2  -5  20   21.84    0.85 
   2   5  20   21.95    1.20 
  -3   5  20   42.80    1.43 
   3  -5  20   41.94    1.60 
   3   5  20   38.73    1.63 
   3   5  20   35.03    1.49 
   4  -5  20   20.71    1.14 
   4   5  20   22.03    1.29 
   4   5  20   21.03    1.17 
   5  -5  20   51.71    1.94 
   5   5  20   41.25    1.77 
   5   5  20   39.48    1.68 
   6  -5  20    9.67    0.90 
   6   5  20   10.35    0.99 
   6   5  20   11.01    0.96 
   0  -6  20   12.37    0.78 
   0   6  20   14.76    0.88 
   0   6  20   13.03    0.94 
  -1   6  20   35.21    1.37 
   1  -6  20   35.96    1.39 
  -1   6  20   36.92    1.49 
   1   6  20   34.77    1.41 
  -1  -6  20   34.73    1.24 
   1   6  20   35.70    1.52 
   2  -6  20   14.17    0.92 
  -2   6  20   18.01    0.90 
  -2   6  20   15.33    0.97 
   2   6  20   17.23    1.02 
   2   6  20   17.55    1.12 
   3  -6  20   13.04    0.93 
  -3   6  20   14.35    0.79 
   3   6  20   12.03    0.93 
   3   6  20   11.91    0.97 
   4  -6  20    0.96    0.47 
   4   6  20    0.84    0.51 
   4   6  20    1.24    0.48 
   5  -6  20    4.17    0.66 
   5   6  20    4.14    0.74 
   5   6  20    5.43    0.71 
   6  -6  20    4.51    0.73 
   6   6  20    5.04    0.73 
   6   6  20    3.46    0.72 
   0  -7  20    6.37    0.58 
   0   7  20    5.57    0.60 
   0   7  20    5.85    0.68 
  -1   7  20   10.41    0.86 
   1  -7  20   11.18    0.80 
  -1   7  20    8.57    0.71 
   1   7  20   13.37    0.91 
  -1  -7  20   13.26    0.74 
   1   7  20   13.45    1.00 
  -2   7  20    2.46    0.45 
   2  -7  20    2.94    0.53 
  -2   7  20    3.59    0.55 
   2   7  20    3.01    0.63 
   2   7  20    2.54    0.51 
  -3   7  20   43.92    1.54 
   3  -7  20   45.29    1.71 
   3   7  20   50.85    1.98 
   3   7  20   49.17    1.87 
   4  -7  20    9.09    0.84 
   4   7  20    9.66    0.86 
   4   7  20   10.67    0.98 
   5  -7  20   27.30    1.40 
   5   7 -20   28.18    1.12 
   5   7  20   29.97    1.53 
   5   7  20   29.86    1.47 
   6   7  20    4.31    0.70 
  -6   7 -20    3.89    0.69 
   0   8  20    4.21    0.64 
   0   8  20    4.16    0.57 
   0  -8  20    4.59    0.52 
  -1   8  20   64.15    2.15 
   1  -8  20   69.28    2.14 
  -1   8  20   64.21    2.28 
  -1  -8  20   66.64    1.95 
   1   8  20   61.10    2.26 
   1   8  20   64.13    2.17 
   2  -8  20    3.75    0.55 
  -2   8  20    3.50    0.52 
  -2   8  20    4.42    0.61 
   2   8  20    4.50    0.68 
   2   8  20    4.60    0.60 
  -3   8  20   15.32    0.87 
   3  -8  20   13.79    1.00 
   3   8  20   14.88    1.13 
   3   8  20   16.86    1.08 
   4  -8  20    6.04    0.72 
   4   8 -20    7.57    0.63 
   4   8  20    6.65    0.76 
  -4   8 -20    5.72    0.74 
   4   8  20    5.88    0.78 
   5   8 -20    7.00    0.59 
   5  -8  20    4.92    0.71 
   5   8  20    5.65    0.75 
   5   8  20    5.06    0.80 
  -5   8 -20    5.97    0.77 
  -6   8 -20    3.05    0.67 
   0   9  20    2.39    0.55 
   0   9  20    2.19    0.49 
   0  -9  20    2.42    0.43 
   1  -9  20   16.63    0.95 
  -1   9  20   17.19    1.10 
  -1   9  20   15.99    1.00 
  -1  -9  20   12.56    0.72 
   1   9  20    9.67    0.81 
   1   9  20   10.74    0.93 
   2  -9  20    1.64    0.47 
  -2   9  20    1.51    0.51 
   2   9 -20    1.94    0.48 
  -2   9  20    2.46    0.47 
   2   9  20    1.87    0.51 
   2   9  20    1.83    0.57 
  -2   9 -20    2.24    0.57 
   3  -9  20   61.06    2.07 
   3   9 -20   58.41    1.95 
  -3   9  20   55.88    1.92 
   3   9  20   52.62    2.12 
   3   9  20   56.74    2.05 
  -3   9 -20   54.83    2.05 
   4   9 -20    0.11    0.36 
   4  -9  20    0.55    0.49 
   4   9  20    0.73    0.56 
   4   9  20    0.30    0.47 
  -4   9 -20    0.60    0.51 
   5  -9  20   51.32    2.03 
   5   9 -20   46.96    1.63 
  -5   9 -20   46.76    1.88 
   5   9  20   43.79    1.84 
   5   9  20   43.30    1.95 
  -6   9 -20   -0.28    0.51 
   0  10  20    2.42    0.59 
   0  10 -20    0.99    0.49 
   0  10  20    1.46    0.48 
   0 -10  20    1.29    0.40 
   1 -10  20   57.92    1.93 
  -1  10  20   57.61    2.13 
   1  10 -20   55.16    2.01 
  -1  10  20   59.11    2.03 
   1  10  20   58.64    2.26 
  -1 -10  20   62.11    1.94 
   1  10  20   62.10    2.15 
  -1  10 -20   60.24    2.15 
  -2  10  20    1.27    0.45 
   2  10 -20    0.94    0.45 
   2 -10  20    1.45    0.48 
   2  10  20    1.57    0.59 
  -2  10 -20    1.75    0.54 
   2  10  20    1.97    0.53 
   3 -10  20    7.27    0.75 
  -3  10  20    7.04    0.65 
   3  10 -20    6.49    0.65 
   3  10  20    8.22    0.83 
   3  10  20   10.34    0.99 
  -3  10 -20    7.70    0.82 
   4  10 -20    0.25    0.38 
   4 -10  20   -0.33    0.47 
   4  10  20    0..32    0.49 
   4  10  20   -0.08    0.52 
  -4  10 -20    0.03    0.52 
   5  10 -20    5.76    0.57 
  -5  10 -20    4.89    0.77 
   0 -11  20    1.11    0.40 
   0  11  20    0.20    0.48 
   0  11 -20    0.07    0.47 
   0  11  20   -0.02    0.42 
  -1  11  20    5.01    0.71 
   1  11 -20    5.42    0.69 
   1 -11  20    5.35    0.61 
  -1  11  20    5.34    0.66 
   1  11  20    9.78    0.96 
  -1  11 -20    8.64    0.84 
   1  11  20    9.48    0.85 
  -2  11  20    4.74    0.61 
   2  11 -20    3.42    0.57 
   2 -11  20    4.94    0.63 
   2  11  20    4.15    0.76 
  -2  11 -20    4.24    0.69 
   2  11  20    3.86    0.67 
   3  11 -20   46.00    1.70 
  -3  11  20   45.30    1.69 
   3 -11  20   45.84    1.78 
  -3  11 -20   51.40    2.01 
   3  11  20   48.46    1.99 
   3  11  20   53.85    2.15 
   4  11 -20    6.36    0.64 
  -4  11 -20    7.50    0.85 
   5  11 -20   36.07    1.38 
   0 -12  20   29.67    1.23 
   0  12 -20   29.04    1.43 
   0  12  20   31.68    1.45 
   0  12  20   28.54    1.51 
  -1  12  20   37.97    1.61 
  -1  12  20   36.57    1.69 
   1 -12  20   38.60    1.49 
   1  12 -20   37.60    1.59 
  -1  12 -20   36.40    1.64 
   1  12  20   34.49    1.68 
   1  12  20   34.95    1.59 
   2  12 -20    8.63    0.78 
  -2  12  20    9.75    0.83 
   2 -12  20    9.00    0.78 
   2  12  20   13.74    1.06 
  -2  12 -20   13.52    1.12 
   2  12  20   14.30    1.19 
  -3  12  20   11.72    0.91 
   3 -12  20   12.32    0.93 
   3  12 -20   11.71    0.91 
   3  12  20   10.24    1.05 
  -3  12 -20   11.38    1.00 
   4  12 -20    0.32    0.42 
   0  13  20   -0.08    0.51 
   0  13 -20    0.68    0.59 
   0  13  20    0.22    0.48 
  -1  13  20    6.83    0.78 
   1 -13  20    8.00    0.72 
  -1  13  20    7.18    0.85 
   1  13  20    6.40    0.84 
  -2  13  20   16.43    1.13 
   2 -13  20   19.56    1.13 
   2  13  20   17.67    1.30 
  -3  13  20   17.78    1.10 
   0  14  20   28.93    1.57 
  -1  14  20   17.16    1.25 
   1 -14  20   17.90    1.04 
   0   0  21    1.10    0.36 
   1   0  21   19.26    1.01 
  -1   0  21   21.24    0.94 
  -2   0  21   23.53    0.96 
   2   0  21   22.94    1.12 
   3   0  21    6.16    0.66 
   4   0  21   78.00    2.54 
   5   0  21    0.70    0.49 
   6   0  21   20.53    1.27 
   0   1  21   79.00    2.52 
   0  -1  21   77.76    2.36 
   0   1  21   77.88    2.38 
  -1   1  21    1.36    0.36 
  -1   1  21    1.17    0.41 
   1  -1  21    0.99    0.38 
  -1  -1  21    1.54    0.36 
   1   1  21    1.07    0.39 
   1   1  21    1.76    0.49 
  -2   1  21   54.18    1.69 
   2  -1  21   52.82    1.84 
   2   1  21   43.71    1.63 
  -2  -1  21   45.57    1.46 
   3  -1  21    3.46    0.54 
   3   1  21    5.10    0.62 
   4  -1  21    3.25    0.57 
   4   1  21    2.93    0.56 
   5  -1  21    3.59    0.63 
   5   1  21    3.60    0.62 
   6  -1  21   14.22    1.12 
   6   1  21   22.35    1.31 
   0  -2  21    2.64    0.43 
   0   2  21    2.98    0.46 
   0   2  21    2.91    0.52 
   1  -2  21    1.69    0.41 
  -1   2  21    1.34    0.37 
  -1   2  21    1.99    0.45 
   1   2  21    3.05    0.48 
   1   2  21    3.78    0.58 
  -1  -2  21    2.88    0.41 
  -2   2  21   35.48    1.30 
   2  -2  21   36.90    1.43 
   2   2  21   39.14    1.51 
   2   2  21   37.49    1.60 
  -2  -2  21   38.94    1.30 
  -3   2  21    4.87    0.46 
   3  -2  21    3.76    0.55 
   3   2  21    9.78    0.89 
   3   2  21    8.93    0.79 
   4  -2  21   68.03    2.29 
   4   2  21   56.07    2.02 
   5  -2  21    7.96    0.78 
   5   2  21    9.19    0.86 
   6  -2  21   32.82    1.54 
   6   2  21   32.47    1.54 
   0   3  21   69.69    2.26 
   0   3  21   68.54    2.13 
   0  -3  21   61.43    2.05 
  -1   3  21   21.50    1.12 
   1  -3  21   22.43    1.04 
  -1   3  21   19.46    0.97 
  -1  -3  21   24.03    1.01 
   1   3  21   25.43    1.27 
   1   3  21   23.15    1.12 
  -2   3  21   29.11    1.14 
   2  -3  21   28.37    1.24 
   2   3  21   25.42    1.20 
   2   3  21   26.57    1.31 
  -2  -3  21   25.34    0.99 
  -3   3  21    4.68    0.45 
   3  -3  21    4.39    0.60 
   3   3  21    3.89    0.58 
   3   3  21    2.47    0.58 
   4  -3  21    1.88    0.51 
   4   3  21    1.98    0.59 
   4   3  21    1.03    0.50 
   5  -3  21    0.65    0.48 
   5   3  21    0.59    0.50 
   6  -3  21   11.07    0.95 
   6   3  21   10.92    0.96 
   0  -4  21    2.89    0.44 
   0   4  21    3.49    0.51 
   0   4  21    2.17    0.51 
  -1   4  21    7.11    0.62 
  -1   4  21    8.45    0.75 
   1  -4  21    8.38    0.68 
  -1  -4  21    7.00    0.57 
   1   4  21    4.84    0.65 
   1   4  21    6.01    0.63 
  -2   4  21   22.33    0.97 
   2  -4  21   19.88    1.06 
  -2  -4  21   27.63    1.02 
   2   4  21   27.22    1.39 
   2   4  21   27.96    1.28 
   3  -4  21   29.64    1.32 
  -3   4  21   29.62    1.12 
   3   4  21   30.35    1.39 
   3   4  21   30.58    1.46 
   4  -4  21   36.89    1.56 
   4   4  21   40.57    1.67 
   4   4  21   40.30    1.75 
   5  -4  21   26.46    1.36 
   5   4  21   19.98    1.28 
   5   4  21   18.38    1.20 
   6  -4  21   16.36    1.17 
   6   4  21   17.04    1.20 
   0   5  21   33.13    1.34 
   0   5  21   31.53    1.46 
   0  -5  21   32.51    1.27 
  -1   5  21   47.81    1.80 
   1  -5  21   49.20    1.68 
  -1   5  21   45.29    1.66 
   1   5  21   36.66    1.48 
   1   5  21   38.10    1.61 
  -1  -5  21   39.86    1.35 
   2  -5  21   30.70    1.31 
  -2   5  21   29.57    1.21 
   2   5  21   36.88    1.48 
   2   5  21   33.78    1.57 
   3  -5  21   10.77    0.87 
  -3   5  21    9.83    0.69 
   3   5  21    6.40    0.71 
   3   5  21    6.24    0.78 
   4  -5  21    1.19    0.49 
   4   5  21    0.90    0.55 
   4   5  21    1.17    0.51 
   5  -5  21    2.82    0.60 
   5   5  21    3.80    0.71 
   5   5  21    3.56    0.67 
   6   5  21    8.70    0.89 
   0   6  21    0.47    0.46 
   0   6  21    0.25    0.36 
   0  -6  21   -0.08    0.33 
   1  -6  21   14.33    0.91 
  -1   6  21   14.56    0.89 
  -1   6  21   15.24    1.01 
   1   6  21   22.08    1.23 
  -1  -6  21   22.96    0.97 
   1   6  21   21.13    1.12 
   2  -6  21   11.86    0.88 
  -2   6  21   11.78    0.81 
   2   6  21    5.56    0.65 
   2   6  21    6.85    0.80 
   3  -6  21   46.79    1.72 
  -3   6  21   42.60    1.52 
   3   6  21   49.20    1.98 
   3   6  21   50.70    1.88 
   4  -6  21   19.05    1.15 
   4   6  21   15.34    1.08 
   4   6  21   14.00    1.13 
   5  -6  21   36.57    1.64 
   5   6  21   41.30    1.76 
   5   6  21   41.66    1.86 
   0   7  21   17.00    1.01 
   0   7  21   18.47    1.13 
   0  -7  21   17.79    0.92 
  -1   7  21   75.96    2.55 
  -1   7  21   78.76    2.40 
   1  -7  21   72.47    2.35 
  -1  -7  21   85.60    2.44 
   1   7  21   82.47    2.64 
   1   7  21   81.73    2.77 
  -2   7  21    2.19    0.45 
   2  -7  21    1.31    0.47 
   2   7  21    4.06    0.60 
   2   7  21    4.14    0.71 
  -3   7  21    9.91    0.75 
   3  -7  21    8.66    0.81 
   3   7  21   11.02    0.98 
   3   7  21    8.51    0.81 
   4  -7  21   -0.15    0.46 
   4   7  21    1.19    0.58 
   4   7  21    0.58    0.52 
   5   7 -21    4.76    0.53 
   5  -7  21    5.30    0.74 
   5   7  21    4.25    0.74 
   5   7  21    3.43    0.66 
  -6   7 -21    0.06    0.53 
   0   8  21    2.47    0.52 
   0  -8  21    2.33    0.44 
   0   8  21    2.22    0.56 
   1  -8  21    7.64    0.69 
  -1   8  21    7.51    0.71 
  -1   8  21    7.70    0.80 
  -1  -8  21    6.22    0.54 
   1   8  21    5.75    0.76 
   1   8  21    5.97    0.68 
  -2   8  21    1.84    0.46 
   2  -8  21    1.68    0.49 
   2   8  21    1.06    0.48 
   2   8  21    2.92    0.64 
   3  -8  21   43.80    1.72 
  -3   8  21   44.41    1.58 
   3   8  21   42.05    1.71 
   3   8  21   38.08    1.81 
   4  -8  21    0.21    0.48 
   4   8 -21    0.07    0.38 
   4   8  21    0.93    0.60 
  -4   8 -21    0.67    0.55 
   4   8  21    0.99    0.52 
   5   8 -21   35.51    1.34 
  -5   8 -21   35.24    1.63 
   5   8  21   31.90    1.75 
  -6   8 -21    0.61    0.55 
   0   9  21    1.26    0.52 
   0  -9  21    1.76    0.42 
   0   9  21    1.10    0.45 
   1  -9  21   46.47    1.67 
  -1   9  21   45.88    1.73 
  -1   9  21   45.72    1.85 
   1   9  21   47.90    1.93 
   1   9  21   45.96    1.79 
   2   9 -21    2.01    0.52 
   2  -9  21    2.36    0.53 
  -2   9  21    1.94    0.47 
  -2   9 -21    1.44    0.58 
   2   9  21    1.94    0.53 
   2   9  21    1.36    0.59 
   3  -9  21   10.83    0.88 
  -3   9  21   11.37    0.83 
   3   9 -21   10.75    0.86 
   3   9  21   10.60    1.00 
   3   9  21   12.69    1.05 
  -3   9 -21   11.23    0.97 
   4  -9  21    3.61    0.65 
   4   9 -21    4.02    0.54 
  -4   9 -21    3.30    0.68 
   4   9  21    2.92    0.71 
   4   9  21    3.53    0.66 
   5   9 -21    3.82    0.51 
  -5   9 -21    4.88    0.76 
   0  10  21    0.59    0.46 
   0 -10  21    0.37    0.37 
   0  10  21    0.32    0.48 
   0  10 -21    0.80    0.50 
   1 -10  21    6.54    0.65 
   1  10 -21    6.86    0.74 
  -1  10  21    6.59    0.70 
  -1  10  21    7.60    0.86 
   1  10  21    5.80    0.70 
   1  10  21    4.79    0.72 
  -1  10 -21    5.40    0.70 
   2 -10  21    2.56    0.53 
   2  10 -21    3.37    0.57 
  -2  10  21    3.21    0.55 
   2  10  21    3.35    0.62 
  -2  10 -21    4.97    0.72 
   2  10  21    3.51    0.69 
   3 -10  21   39.73    1.65 
  -3  10  21   39.61    1.54 
   3  10 -21   40.46    1.57 
   3  10  21   40.23    1.73 
  -3  10 -21   40.87    1.76 
   3  10  21   39.30    1.83 
   4  10 -21    3.38    0.52 
  -4  10 -21    3.45    0.69 
   5  10 -21   38.14    1.43 
   0  11  21   15.12    1.16 
   0  11  21   14.91    1.07 
   0 -11  21   14.40    0.88 
   0  11 -21   15.14    1.08 
  -1  11  21   38.02    1.60 
   1 -11  21   39.11    1.49 
  -1  11  21   38.45    1.73 
   1  11 -21   37.88    1.63 
  -1  11 -21   38.66    1.67 
   1  11  21   39.21    1.67 
   1  11  21   38.46    1.82 
   2  11 -21   10.52    0.84 
   2 -11  21   10.71    0.84 
  -2  11  21   10.28    0.83 
   2  11  21    9.88    1.00 
  -2  11 -21   10.60    0.94 
   2  11  21   12.03    0.99 
   3 -11  21    4.90    0.69 
   3  11 -21    5.82    0.66 
  -3  11  21    3.90    0.58 
  -3  11 -21    6.85    0.84 
   3  11  21    7.06    0.94 
   4  11 -21    2.84    0.55 
   0  12  21   13.81    1.14 
   0  12 -21   13.09    1.13 
   0  12  21   12.67    1.05 
  -1  12  21    4.52    0.73 
  -1  12  21    4.57    0.65 
   1 -12  21    4.68    0.60 
   1  12  21    5.02    0.80 
  -2  12  21   11.14    0.90 
   2 -12  21   13.11    0.99 
   2  12  21    8.23    0.94 
  -3  12  21   16.89    1.05 
   0  13  21   19.99    1.39 
   1 -13  21   19.34    1.10 
  -1  13  21   19.37    1.29 
   1  13  21   19.95    1.41 
   0   0  22   75.88    2.33 
   1   0  22    6.63    0.65 
  -1   0  22    5.82    0.54 
   2   0  22   33.73    1.40 
  -2   0  22   32.20    1.20 
   3   0  22   15.14    1.02 
   4   0  22    1.26    0.50 
   5   0  22    6.98    0.80 
   0   1  22    2.63    0.46 
   0  -1  22    3.02    0.47 
  -1   1  22   20.11    0.95 
   1  -1  22   18.59    1.00 
   1   1  22   18.56    1.00 
  -1  -1  22   18.89    0.91 
  -2   1  22   28.68    1.13 
   2  -1  22   28.79    1.28 
  -2  -1  22   24.80    1.02 
   2   1  22   26.60    1.22 
   3  -1  22    8.55    0.75 
   3   1  22    8.41    0.78 
   4  -1  22   34.14    1.51 
   4   1  22   33.33    1.51 
   5  -1  22    2.69    0.60 
   5   1  22    2.85    0.61 
   0  -2  22   45.41    1.59 
   0   2  22   43.41    1.61 
   0   2  22   47.77    1.77 
   1  -2  22    3.14    0.50 
  -1   2  22    2.05    0.49 
  -1   2  22    2.53    0.44 
  -1  -2  22    5.59    0.54 
   1   2  22    4.58    0.58 
   1   2  22    5.42    0.69 
  -2   2  22   33.30    1.24 
   2  -2  22   32.13    1.37 
   2   2  22   30.46    1.35 
  -2  -2  22   31.97    1.15 
   2   2  22   30.27    1.49 
   3  -2  22   19.82    1.11 
   3   2  22   20.29    1.14 
   4  -2  22    2.29    0.54 
   4   2  22    1.21    0.52 
   5  -2  22   19.24    1.20 
   5   2  22   21.53    1.26 
   0   3  22   10.64    0.88 
   0   3  22   10.85    0.80 
   0  -3  22   11.04    0.78 
   1  -3  22   11.10    0.84 
  -1   3  22   11.40    0.91 
  -1   3  22   14.31    0.83 
  -1  -3  22   10.72    0.73 
   1   3  22   10.44    0.91 
   1   3  22   11.62    0.85 
   2  -3  22   26.85    1.25 
  -2   3  22   28.10    1.14 
   2   3  22   30.11    1.47 
   2   3  22   29.35    1.33 
   3  -3  22    6.32    0.68 
   3   3  22    4.60    0.65 
   3   3  22    6.74    0.81 
   4  -3  22   46.93    1.82 
   4   3  22   51.67    2.09 
   4   3  22   53.20    1.98 
   5  -3  22    2.86    0.61 
   5   3  22    3.89    0.66 
   0   4  22   59.69    2.16 
   0  -4  22   62.55    1.99 
   0   4  22   62.77    2.06 
  -1   4  22   26.89    1.18 
   1  -4  22   28.51    1.23 
  -1   4  22   26.59    1.29 
   1   4  22   25.64    1.32 
  -1  -4  22   26.07    1.09 
   1   4  22   24.90    1.21 
  -2   4  22   25.89    1.09 
   2  -4  22   22.93    1.17 
   2   4  22   29.25    1.44 
   2   4  22   28.38    1.33 
   3  -4  22    7.98    0.74 
   3   4  22    4.46    0.72 
   3   4  22    4.15    0.62 
   4  -4  22    3.32    0.60 
   4   4  22    4.27    0.67 
   4   4  22    4.88    0.75 
   5  -4  22    1.84    0.58 
   5   4  22    3.28    0.73 
   5   4  22    2.84    0.64 
   0  -5  22    4.94    0.54 
   0   5  22    4.78    0.65 
   0   5  22    4.74    0.61 
  -1   5  22   13.29    0.89 
  -1   5  22   12.88    0.95 
   1  -5  22   13.65    0.89 
   1   5  22   11.58    0.96 
  -1  -5  22   13.25    0.77 
   1   5  22   12.38    0.92 
   2  -5  22   16.38    1.02 
  -2   5  22   17.51    0.92 
   2   5  22   12.98    0.96 
   2   5  22   13.61    1.05 
   3  -5  22   36.42    1.54 
  -3   5  22   36.76    1.41 
   3   5  22   31.53    1.55 
   3   5  22   31.51    1.47 
   4  -5  22   22.47    1.26 
   4   5  22   19.04    1.21 
   4   5  22   16.69    1.22 
   5  -5  22   29.45    1.47 
   5   5  22   26.19    1.43 
   5   5  22   26.96    1.57 
   0  -6  22   10.41    0.78 
   0   6  22   11.35    0.94 
   0   6  22   10.12    0.81 
  -1   6  22   45.64    1.77 
  -1   6  22   42.27    1.60 
   1  -6  22   40.24    1.58 
  -1  -6  22   46.61    1.55 
   1   6  22   46.24    1.89 
   1   6  22   44.43    1.73 
  -2   6  22   14.05    0.89 
   2  -6  22   14.33    0.97 
   2   6  22   12.57    0.96 
   2   6  22   11.24    0.96 
   3  -6  22   18.96    1.11 
  -3   6  22   17.38    0.90 
   3   6  22   21.55    1.32 
   3   6  22   21.06    1.21 
   4  -6  22    8.33    0.82 
   4   6  22   10.59    0.95 
   4   6  22   12.71    1.11 
   5   6  22    7.19    1.01 
   0   7  22   13.25    0.94 
   0   7  22   13.05    1.03 
   0  -7  22   14.56    0.86 
  -1   7  22    3.94    0.56 
  -1   7  22    4.61    0.69 
   1  -7  22    4.09    0.56 
   1   7  22    6.11    0.78 
   1   7  22    7.78    0.75 
  -1  -7  22    7.79    0.60 
   2  -7  22    4.57    0.61 
  -2   7  22    4.87    0.58 
   2   7  22    5.54    0.70 
   2   7  22    6.52    0.83 
  -3   7  22   40.58    1.48 
   3  -7  22   39.60    1.66 
   3   7  22   48.25    2.06 
   3   7  22   51.83    1.96 
   4  -7  22    5.66    0.76 
   4   7  22    6.68    0.85 
   4   7  22    6.51    0.78 
   5   7 -22   37.67    1.42 
   0   8  22    0.46    0.50 
   0   8  22    0.44    0.44 
   0  -8  22    0.60    0.38 
  -1   8  22   46.60    1.86 
   1  -8  22   47.06    1.69 
  -1   8  22   44.14    1.70 
   1   8  22   47.13    1.83 
   1   8  22   48.81    1.99 
   2  -8  22    6.07    0.68 
  -2   8  22    6.20    0.64 
   2   8  22    4.48    0.75 
   2   8  22    5.37    0.69 
   3  -8  22    7.93    0.79 
  -3   8  22    8.21    0.68 
   3   8  22    7.78    0.81 
   3   8  22    6.97    0.88 
   4  -8  22    7.06    0.86 
   4   8 -22    6.81    0.66 
   4   8  22    6.36    0.88 
  -4   8 -22    8.14    0.89 
   5   8 -22    2.78    0.48 
  -5   8 -22    4.06    0.75 
   0   9  22   12.99    1.00 
   0  -9  22   13.63    0.86 
   0   9  22   12.75    1.06 
  -1   9  22   13.58    1.07 
   1  -9  22   11.10    0.89 
  -1   9  22   11.40    0.92 
   1   9  22    7.96    0.78 
   1   9  22    8.22    0.88 
  -2   9  22    9.46    0.77 
   2   9 -22    7.11    0.75 
   2  -9  22    8.62    0.78 
  -2   9 -22   11.44    0.99 
   2   9  22   13.71    1.16 
   2   9  22   11.73    0.95 
  -3   9  22   36.11    1.44 
   3   9 -22   36.23    1.50 
   3  -9  22   36.35    1.59 
   3   9  22   30.62    1.52 
  -3   9 -22   33.06    1.59 
   3   9  22   29.00    1.60 
   4   9 -22    4.91    0.59 
  -4   9 -22    3.73    0.74 
   5   9 -22   36.11    1.41 
   0  10 -22    6.46    0.76 
   0  10  22    6.40    0.81 
   0  10  22    7.64    0.78 
   0 -10  22    7.95    0.66 
  -1  10  22   23.71    1.40 
  -1  10  22   24.68    1.27 
   1  10 -22   23.05    1.26 
   1 -10  22   26.35    1.21 
   1  10  22   24.11    1.32 
   1  10  22   27.43    1.48 
  -1  10 -22   25.10    1.40 
  -2  10  22   11.79    0.94 
   2  10 -22   12.89    0.99 
   2 -10  22   12.81    0.98 
  -2  10 -22   10.63    0.95 
   2  10  22   10.48    0.91 
   2  10  22   10.57    1.00 
   3  10 -22    5.32    0.66 
  -3  10  22    6.97    0.66 
   3  10  22    7.44    0.94 
   0  11  22    9.41    0.87 
   0  11  22   10.23    0.99 
  -1  11  22    5.19    0.68 
   1 -11  22    6.24    0.65 
   1  11  22    9.28    1.02 
   2 -11  22   13.18    1.01 
  -2  11  22   11.32    0.95 
   2  11  22   10.13    1.00 
  -3  11  22   17.28    1.06 
   0  12  22    8.61    0.95 
   1 -12  22   29.98    1.33 
   1  12  22   25.85    1.57 
   0   0  23    0.23    0.35 
   1   0  23   37.34    1.49 
  -1   0  23   37.89    1.40 
  -2   0  23   10.88    0.71 
   2   0  23   11.07    0.91 
   3   0  23    4.74    0.66 
   4   0  23   19.47    1.20 
   5   0  23    0.19    0.51 
   0  -1  23   27.72    1.20 
   0   1  23   28.10    1.23 
   1  -1  23    2.57    0.50 
  -1   1  23    2.19    0.43 
   1   1  23    5.96    0.65 
  -1  -1  23    5.14    0.54 
  -2   1  23   16.00    0.85 
   2  -1  23   17.03    1.03 
   2   1  23   16.80    1.04 
  -2  -1  23   16.51    0.86 
   3  -1  23   18.33    1.11 
   3   1  23   22.67    1.22 
   4  -1  23    1.30    0.52 
   4   1  23    1.06    0.52 
   5  -1  23   21.19    1.33 
   5   1  23   23.64    1.38 
   0   2  23    2.97    0.58 
   0   2  23    2.92    0.50 
   0  -2  23    2.77    0.47 
   1  -2  23   18.51    1.02 
  -1   2  23   18.23    0.97 
  -1  -2  23   21.05    0.98 
   1   2  23   20.26    1.09 
   1   2  23   19.07    1.18 
   2  -2  23   19.50    1.10 
  -2   2  23   20.36    0.96 
   2   2  23   16.60    1.03 
   3  -2  23    3.49    0.59 
   3   2  23    4.94    0.67 
   4  -2  23   31.18    1.46 
   4   2  23   31.54    1.50 
   5  -2  23    5.60    0.82 
   5   2  23    6.38    0.89 
   0  -3  23   28.94    1.25 
   0   3  23   30.79    1.41 
   0   3  23   30.15    1.29 
  -1   3  23    8.68    0.70 
   1  -3  23    7.42    0.69 
  -1  -3  23   12.12    0.79 
   1   3  23   12.17    1.00 
   1   3  23   11.55    0.89 
  -2   3  23   16.94    0.92 
   2  -3  23   18.20    1.06 
   2   3  23   20.46    1.25 
   2   3  23   20.39    1.15 
   3  -3  23   27.75    1.33 
   3   3  23   32.72    1.49 
   3   3  23   33.36    1.62 
   4  -3  23    3.65    0.64 
   4   3  23    6.51    0.77 
   0  -4  23   11.27    0.82 
   0   4  23   10.76    0.86 
   0   4  23   12.26    0.98 
  -1   4  23   51.60    1.77 
   1  -4  23   49.64    1.79 
  -1  -4  23   51.56    1.71 
   1   4  23   52.94    2.00 
   1   4  23   48.85    1.84 
  -2   4  23    8.17    0.67 
   2  -4  23   10.60    0.82 
   2   4  23   12.76    0.98 
   2   4  23   11.17    0.99 
   3  -4  23   15.66    1.04 
   3   4  23   13.47    1.11 
   3   4  23   11.38    0.94 
   4  -4  23   13.65    1.05 
   4   4  23   18.04    1.33 
   4   4  23   17.67    1.20 
   0  -5  23   24.66    1.14 
   0   5  23   25.61    1.36 
   0   5  23   23.56    1.20 
  -1   5  23   21.62    1.10 
   1  -5  23   20.92    1.10 
  -1  -5  23   20.76    0.98 
   1   5  23   21.13    1.27 
   1   5  23   23.55    1.20 
  -2   5  23   15.26    0.89 
   2  -5  23   14.56    1.01 
   2   5  23   17.56    1.11 
   2   5  23   16.09    1.17 
   3  -5  23   13.41    1.02 
   3   5  23   15.66    1.19 
   3   5  23   16.61    1.14 
   4  -5  23   16.70    1.15 
   4   5  23   19.27    1.32 
   4   5  23   16.67    1.19 
   0   6  23   20.81    1.26 
   0   6  23   18.46    1.10 
   0  -6  23   18.81    1.00 
  -1   6  23    7.42    0.71 
   1  -6  23    7.45    0.71 
   1   6  23    6.71    0.72 
  -1  -6  23    6.20    0.56 
   1   6  23    5.17    0.74 
  -2   6  23   14.38    0.91 
   2  -6  23   15.30    1.02 
   2   6  23   12.38    1.00 
   2   6  23   11.38    1.01 
   3  -6  23   19.62    1.18 
   3   6  23   20.19    1.26 
   3   6  23   23.00    1.37 
   4  -6  23    8.10    0.91 
   4   6  23    7.28    0.91 
   0   7  23    0.13    0.50 
   0  -7  23    0.70    0.38 
   0   7  23    0.23    0.44 
   1  -7  23   26.17    1.24 
  -1   7  23   28.05    1.29 
   1   7  23   23.07    1.35 
   1   7  23   22.73    1.24 
   2  -7  23   13.09    0.99 
  -2   7  23   14.34    0.93 
   2   7  23   10.91    0.91 
   2   7  23   10.78    1.04 
   3  -7  23    9.27    0.86 
   3   7  23   10.03    0.92 
   3   7  23   11.97    1.12 
   5   7 -23    4.94    0.59 
   0   8  23   50.97    2.07 
   0  -8  23   52.31    1.76 
   0   8  23   50.32    1.90 
  -1   8  23    3.22    0.56 
   1  -8  23    3.76    0.57 
   1   8  23    3.57    0.70 
   1   8  23    4.85    0.68 
   2  -8  23   26.94    1.30 
  -2   8  23   26.04    1.25 
   2   8  23   31.33    1.49 
   2   8  23   28.54    1.57 
   3  -8  23   15.35    1.11 
   3   8  23   14.73    1.23 
   4   8 -23    1.09    0.49 
   0   9  23    2.02    0.56 
   0  -9  23    1.44    0.43 
   0   9  23    1.63    0.61 
  -1   9  23   18.83    1.13 
   1  -9  23   20.37    1.10 
   1   9  23   18.07    1.26 
   1   9  23   16.99    1.16 
   2  -9  23   16.10    1.07 
   2   9 -23   17.06    1.11 
  -2   9  23   14.93    1.00 
   2   9  23   15.04    1.23 
  -2   9 -23   14.28    1.21 
   0  10  23   18.58    1.20 
   0  10  23   18.69    1.28 
   1 -10  23    5.64    0.64 
  -1  10  23    4.88    0.67 
   1  10  23    4.86    0.77 
   2 -10  23    7.31    0.75 
  -2  10  23    7.96    0.75 
   2  10  23    9.05    0.99 
   0  11  23    4.13    0.75 
   1 -11  23   17.58    1.05 
   1  11  23   17.41    1.34 
   0  12  23   12.88    1.19 
   0   0  24   24.37    1.15 
   1   0  24    3.50    0.56 
  -1   0  24    3.23    0.48 
   2   0  24   11.14    0.88 
   3   0  24   26.46    1.35 
   4   0  24    0.60    0.51 
   0   1  24    0.31    0.39 
   0  -1  24    0.32    0.37 
  -1   1  24   29.19    1.22 
   1  -1  24   27.15    1.27 
   1   1  24   29.22    1.34 
  -1  -1  24   29.81    1.22 
   2  -1  24    7.75    0.76 
   2   1  24    6.45    0.71 
   3  -1  24    7.20    0.76 
   3   1  24    6.25    0.72 
   4  -1  24   13.38    1.06 
   4   1  24   14.55    1.10 
   0  -2  24   13.51    0.88 
   0   2  24   13.10    0.91 
  -1   2  24    7.57    0.68 
   1  -2  24    8.11    0.73 
  -1  -2  24    7.36    0.62 
   1   2  24    6.46    0.69 
   2  -2  24    7.27    0.72 
  -2   2  24    6.61    0.59 
   2   2  24   11.86    0.93 
   3  -2  24   28.44    1.40 
   3   2  24   29.43    1.42 
   4  -2  24    1.12    0.56 
   4   2  24    2.28    0.65 
   0   3  24   15.36    0.97 
   0   3  24   16.43    1.13 
   0  -3  24   15.31    0.94 
  -1   3  24   33.11    1.35 
   1  -3  24   31.68    1.37 
  -1  -3  24   33.72    1.30 
   1   3  24   30.80    1.54 
   1   3  24   32.56    1.42 
  -2   3  24   11.28    0.80 
   2  -3  24   11.45    0.88 
   2   3  24   12.07    0.94 
   2   3  24   13.79    1.11 
   3  -3  24   11.49    0.93 
   3   3  24    9.44    0.86 
   0   4  24   10.31    0.82 
   0   4  24   12.96    1.03 
   0  -4  24   10.65    0.84 
   1  -4  24    7.56    0.71 
  -1   4  24    7.20    0.67 
   1   4  24    9.04    0.91 
  -1  -4  24   11.32    0.78 
   1   4  24   11.51    0.92 
   2  -4  24   13.76    1.00 
  -2   4  24   12.55    0.85 
   2   4  24   13.10    1.03 
   2   4  24   16.16    1.17 
   3  -4  24   28.49    1.40 
   3   4  24   31.12    1.48 
   3   4  24   32.06    1.63 
   4   4  24   12.47    1.12 
   0   5  24   21.74    1.19 
   0  -5  24   24.69    1.15 
   0   5  24   24.65    1.37 
  -1   5  24   30.29    1.34 
   1  -5  24   32.64    1.39 
   1   5  24   32.33    1.56 
   1   5  24   30.23    1.43 
  -2   5  24    8.59    0.70 
   2  -5  24    7.04    0.74 
   2   5  24    7.82    0.81 
   2   5  24    8.91    0.92 
   3  -5  24   12.94    1.04 
   3   5  24    9.34    0.89 
   3   5  24   10.22    1.01 
   0   6  24    0.27    0.51 
   0   6  24    0.53    0.45 
   0  -6  24    0.84    0.41 
  -1   6  24    8.37    0.75 
   1  -6  24    7.98    0.74 
   1   6  24   10.94    1.01 
   1   6  24   10.19    0.89 
   2  -6  24   27.78    1.35 
  -2   6  24   27.53    1.23 
   2   6  24   23.79    1.45 
   2   6  24   28.44    1.40 
   3  -6  24   14.53    1.09 
   3   6  24   17.81    1.30 
   0   7  24   46.09    1.93 
   0  -7  24   48.48    1.68 
   0   7  24   43.72    1.78 
  -1   7  24    4.15    0.60 
   1  -7  24    4.02    0.58 
   1   7  24    4.51    0.74 
   1   7  24    4.04    0.65 
   2  -7  24   30.21    1.41 
  -2   7  24   30.72    1.34 
   2   7  24   32.24    1.66 
   2   7  24   31.07    1.59 
   3   7  24    4.76    0.79 
   0  -8  24    0.34    0.40 
   0   8  24    0.17    0.52 
   0   8  24   -0.04    0.45 
   1  -8  24    7.72    0.71 
  -1   8  24    6.28    0.72 
   1   8  24    6.86    0.86 
   1   8  24    4.38    0.70 
  -2   8  24   22.67    1.17 
   2  -8  24   20.50    1.19 
   2   8  24   17.69    1.31 
   0   9  24   40.78    1.85 
   1  -9  24    1.21    0.47 
  -1   9  24    1.42    0.51 
   1   9  24    0.20    0.57 
  -2   9  24   18.80    1.11 
   2   9  24   19.81    1.52 
   0  10  24    0.00    0.59 
   1 -10  24    7.13    0.71 
   1  10  24    8.56    0.98 
   0   0  25    0.27    0.40 
  -1   0  25   50.41    1.74 
   1   0  25   49.69    1.84 
   2   0  25    1.08    0.51 
   3   0  25    5.02    0.70 
   0   1  25    3.02    0.53 
   0  -1  25    3.72    0.55 
  -1   1  25    9.53    0.75 
   1  -1  25   11.24    0.86 
   1   1  25    7.91    0.77 
  -1  -1  25    6.90    0.64 
   2  -1  25    1.66    0.53 
   2   1  25    2.91    0.59 
   3  -1  25   31.90    1.50 
   3   1  25   28.71    1.50 
   0  -2  25    6.62    0.66 
   0   2  25    6.87    0.69 
   1  -2  25   31.37    1.37 
  -1   2  25   28.39    1.26 
  -1  -2  25   33.79    1.31 
   1   2  25   29.57    1.41 
   2  -2  25    7.29    0.75 
   2   2  25    5.22    0.68 
   3  -2  25    4.51    0.71 
   0  -3  25    3.45    0.55 
   0   3  25    3.99    0.59 
  -1   3  25    8.59    0.74 
   1  -3  25    7.37    0.72 
   1   3  25    6.55    0.72 
   1   3  25    6.83    0.85 
   2  -3  25    3.80    0.61 
   2   3  25    5.39    0.70 
   0  -4  25   28.86    1.26 
   0   4  25   26.50    1.29 
  -1   4  25   43.65    1.64 
   1  -4  25   42.59    1.66 
   1   4  25   41.41    1.68 
   1   4  25   40.54    1.81 
   2  -4  25   13.11    1.02 
   2   4  25   13.83    1.17 
   2   4  25   13.25    1.07 
   3   4  25   10.45    1.07 
   0  -5  25   -0.27    0.40 
   0   5  25    0.04    0.41 
   1  -5  25    3.52    0.57 
  -1   5  25    3.49    0.56 
   1   5  25    5.11    0.78 
   1   5  25    5.87    0.72 
   2  -5  25   17.44    1.13 
   2   5  25   20.88    1.36 
   3   5  25   12.50    1.12 
   0  -6  25   28.90    1.26 
   0   6  25   27.89    1.37 
   1  -6  25   12.65    0.98 
  -1   6  25   14.89    0.99 
   1   6  25   15.71    1.20 
   1   6  25   14.58    1.11 
   2  -6  25   18.56    1.17 
   2   6  25   19.37    1.34 
   0  -7  25    0.53    0.42 
   0   7  25    0.07    0.46 
   1  -7  25   -0.66    0.39 
  -1   7  25   -0.13    0.42 
   1   7  25    0.75    0.58 
  -2   7  25   13.92    1.00 
   2   7  25   10.54    1.06 
   1  -8  25    0.32    0.44 
  -1   8  25    0.72    0.53 
   1   8  25    0.84    0.58 
  -2   8  25   32.07    1.47 
   0   0  26    0.92    0.43 
   1   0  26    4.25    0.62 
  -1   0  26    3.66    0.53 
   0  -1  26    0.68    0.42 
   0   1  26   -0.30    0.39 
   1  -1  26   38.78    1.61 
  -1   1  26   39.93    1.52 
   1   1  26   36.58    1.55 
   0   2  26    0.62    0.45 
   0  -2  26    0.93    0.45 
  -1   2  26    9.70    0.77 
   1  -2  26    9.86    0.84 
   1   2  26    6.15    0.72 
   0   3  26   29.27    1.38 
   0  -3  26   30.41    1.33 
   1  -3  26   21.80    1.20 
  -1   3  26   22.79    1.15 
   1   3  26   24.85    1.31 
   0  -4  26    1.52    0.47 
   0   4  26    0.47    0.46 
   1  -4  26    1.69    0.53 
  -1   4  26    3.01    0.54 
   1   4  26    3.13    0.73 
   2   4  26    6.60    0.89 
   0   5  26   17.71    1.13 
   0  -5  26   18.36    1.03 
   1  -5  26   14.71    1.01 
  -1   5  26   12.82    0.96 
   1   5  26   15.29    1.24 
   2   5  26    7.04    0.89 
  -1   6  26    2.20    0.52 
   1  -6  26    3.40    0.59 
   1   6  26    4.60    0.78 
   1   7  26    2.23    0.66 
   0   0  27    0.57    0.43 
   0   1  27   10.12    0.84 
   0  -1  27   10.34    0.83 
   0  -2  27    3.78    0.58 
   0   2  27    3.60    0.59 
   0  -3  27    3.24    0.54 
  -1   4  27   14.35    1.01 
   0   0   0    0.00    0.00 
;
_shelx_hkl_checksum              87590
#END Tags that were not found in dictionaries
loop_
_space_group_symop_operation_xyz
'x, y, z'
'-x+1/2, -y, z+1/2'
'-x, y+1/2, -z+1/2'
'x+1/2, -y+1/2, -z'
loop_
_atom_site_label
_atom_site_type_symbol
_atom_site_fract_x
_atom_site_fract_y
_atom_site_fract_z
_atom_site_U_iso_or_equiv
_atom_site_adp_type
_atom_site_occupancy
_atom_site_site_symmetry_order
_atom_site_calc_flag
_atom_site_refinement_flags_posn
_atom_site_refinement_flags_adp
Au1 Au 0.44093(2) 0.77811(2) 0.45109(2) 0.01573(3) Uani 1 1 d . .
Cl1 Cl 0.44009(10) 0.86118(4) 0.34238(3) 0.02501(13) Uani 1 1 d . .
C1 C 0.4557(3) 0.70562(16) 0.54500(14) 0.0163(4) Uani 1 1 d . .
C2 C 0.4979(3) 0.61254(17) 0.55897(14) 0.0168(5) Uani 1 1 d . .
N1 N 0.5067(3) 0.60098(15) 0.63435(12) 0.0182(5) Uani 1 1 d . .
N2 N 0.4704(3) 0.68004(15) 0.66917(12) 0.0191(5) Uani 1 1 d . .
N3 N 0.4389(3) 0.74185(14) 0.61521(11) 0.0164(4) Uani 1 1 d . .
C3 C 0.5571(5) 0.51731(18) 0.67710(14) 0.0253(6) Uani 1 1 d . .
H3A H 0.5851 0.5360 0.7282 0.038 Uiso 1 1 calc R U
H3B H 0.6612 0.4878 0.6544 0.038 Uiso 1 1 calc R U
H3C H 0.4587 0.4721 0.6774 0.038 Uiso 1 1 calc R U
S1 S 0.52831(10) 0.52332(4) 0.49048(4) 0.02210(14) Uani 1 1 d . .
O1 O 0.7104(3) 0.48375(14) 0.49641(13) 0.0345(5) Uani 1 1 d . .
C4 C 0.3830(3) 0.43734(17) 0.53135(14) 0.0167(5) Uani 1 1 d . .
C5 C 0.4495(4) 0.34769(17) 0.54565(15) 0.0247(5) Uani 1 1 d . .
H5 H 0.5688 0.3323 0.5340 0.030 Uiso 1 1 calc R U
C6 C 0.3379(4) 0.2808(2) 0.57746(15) 0.0302(6) Uani 1 1 d . .
H6 H 0.3820 0.2191 0.5875 0.036 Uiso 1 1 calc R U
C7 C 0.1649(4) 0.3019(2) 0.59470(16) 0.0307(7) Uani 1 1 d . .
C8 C 0.1000(4) 0.3912(2) 0.57785(16) 0.0273(7) Uani 1 1 d . .
H8 H -0.0203 0.4057 0.5882 0.033 Uiso 1 1 calc R U
C9 C 0.2079(3) 0.45969(18) 0.54615(16) 0.0213(5) Uani 1 1 d . .
H9 H 0.1626 0.5207 0.5348 0.026 Uiso 1 1 calc R U
C10 C 0.0494(6) 0.2291(3) 0.63295(18) 0.0503(10) Uani 1 1 d . .
H10A H 0.0901 0.1654 0.6199 0.075 Uiso 1 1 calc R U
H10B H -0.0736 0.2372 0.6169 0.075 Uiso 1 1 calc R U
H10C H 0.0569 0.2377 0.6869 0.075 Uiso 1 1 calc R U
C11 C 0.3885(3) 0.84000(19) 0.63503(16) 0.0197(5) Uani 1 1 d . .
H11 H 0.3251 0.8682 0.5916 0.024 Uiso 1 1 calc R U
C12 C 0.2605(4) 0.8386(2) 0.70062(19) 0.0332(7) Uani 1 1 d . .
H12A H 0.1610 0.7965 0.6893 0.050 Uiso 1 1 calc R U
H12B H 0.2161 0.9028 0.7097 0.050 Uiso 1 1 calc R U
H12C H 0.3222 0.8156 0.7450 0.050 Uiso 1 1 calc R U
C13 C 0.5479(3) 0.90137(16) 0.65176(13) 0.0145(4) Uani 1 1 d . .
C14 C 0.5454(4) 0.99437(18) 0.62631(14) 0.0197(5) Uani 1 1 d . .
H14 H 0.4534 1.0151 0.5942 0.024 Uiso 1 1 calc R U
C15 C 0.6784(4) 1.05711(19) 0.64800(16) 0.0237(6) Uani 1 1 d . .
H15 H 0.6771 1.1205 0.6304 0.028 Uiso 1 1 calc R U
C16 C 0.8117(4) 1.0274(2) 0.69484(15) 0.0230(6) Uani 1 1 d . .
H16 H 0.9007 1.0706 0.7104 0.028 Uiso 1 1 calc R U
C17 C 0.8155(4) 0.93446(19) 0.71918(14) 0.0194(5) Uani 1 1 d . .
H17 H 0.9083 0.9139 0.7509 0.023 Uiso 1 1 calc R U
C18 C 0.6850(3) 0.87107(18) 0.69769(14) 0.0176(5) Uani 1 1 d . .
H18 H 0.6890 0.8072 0.7142 0.021 Uiso 1 1 calc R U
loop_
_atom_site_aniso_label
_atom_site_aniso_U_11
_atom_site_aniso_U_22
_atom_site_aniso_U_33
_atom_site_aniso_U_23
_atom_site_aniso_U_13
_atom_site_aniso_U_12
Au1 0.01697(4) 0.01392(4) 0.01629(4) 0.00034(4) 0.00175(4) -0.00203(4)
Cl1 0.0325(3) 0.0217(3) 0.0208(3) 0.0059(2) 0.0050(3) 0.0029(3)
C1 0.0140(10) 0.0174(11) 0.0174(11) -0.0028(9) 0.0004(11) -0.0054(8)
C2 0.0228(11) 0.0153(11) 0.0122(12) -0.0007(9) 0.0043(9) -0.0055(9)
N1 0.0253(11) 0.0162(10) 0.0132(10) -0.0004(8) 0.0035(9) -0.0044(8)
N2 0.0218(12) 0.0201(11) 0.0155(10) -0.0033(8) 0.0031(9) -0.0043(9)
N3 0.0160(9) 0.0149(10) 0.0183(10) -0.0037(7) 0.0011(9) -0.0039(8)
C3 0.0379(15) 0.0208(13) 0.0171(12) 0.0051(10) 0.0032(14) -0.0016(13)
S1 0.0329(4) 0.0166(3) 0.0168(3) -0.0038(2) 0.0115(3) -0.0077(3)
O1 0.0284(11) 0.0300(11) 0.0452(14) -0.0127(10) 0.0197(10) -0.0059(9)
C4 0.0232(12) 0.0134(12) 0.0134(12) -0.0030(9) 0.0037(9) -0.0042(9)
C5 0.0289(13) 0.0180(12) 0.0271(13) -0.0037(11) 0.0027(16) 0.0009(10)
C6 0.0484(17) 0.0133(12) 0.0289(14) 0.0006(12) 0.0010(13) -0.0049(14)
C7 0.0439(18) 0.0303(17) 0.0179(13) -0.0060(11) 0.0055(13) -0.0224(13)
C8 0.0227(15) 0.0394(17) 0.0199(13) -0.0072(12) 0.0030(11) -0.0123(12)
C9 0.0241(13) 0.0236(13) 0.0162(12) -0.0019(12) -0.0009(13) 0.0003(10)
C10 0.075(3) 0.045(2) 0.0307(16) -0.0043(15) 0.0127(17) -0.043(2)
C11 0.0155(12) 0.0177(13) 0.0259(14) -0.0091(11) -0.0030(10) 0.0016(9)
C12 0.0196(14) 0.0333(17) 0.0467(19) -0.0200(15) 0.0124(13) -0.0101(12)
C13 0.0137(11) 0.0177(11) 0.0120(10) -0.0064(8) 0.0010(11) -0.0007(10)
C14 0.0182(13) 0.0244(13) 0.0167(12) 0.0013(9) -0.0015(11) -0.0014(11)
C15 0.0283(14) 0.0204(13) 0.0223(13) 0.0042(11) -0.0009(13) -0.0071(11)
C16 0.0213(13) 0.0271(14) 0.0207(13) -0.0017(11) -0.0001(12) -0.0107(11)
C17 0.0127(11) 0.0283(14) 0.0171(12) -0.0028(11) -0.0008(11) -0.0014(10)
C18 0.0170(12) 0.0161(12) 0.0197(13) -0.0021(10) 0.0012(11) 0.0012(10)
loop_
_atom_type_symbol
_atom_type_description
_atom_type_scat_dispersion_real
_atom_type_scat_dispersion_imag
_atom_type_scat_source
C C 0.0033 0.0016 'International Tables Vol C Tables 4.2.6.8 and 6.1.1.4'
H H 0.0000 0.0000 'International Tables Vol C Tables 4.2.6.8 and 6.1.1.4'
N N 0.0061 0.0033 'International Tables Vol C Tables 4.2.6.8 and 6.1.1.4'
O O 0.0106 0.0060 'International Tables Vol C Tables 4.2.6.8 and 6.1.1.4'
S S 0.1246 0.1234 'International Tables Vol C Tables 4.2.6.8 and 6.1.1.4'
Cl Cl 0.1484 0.1585 'International Tables Vol C Tables 4.2.6.8 and 6.1.1.4'
Au Au -2.0133 8.8022 'International Tables Vol C Tables 4.2.6.8 and 6.1.1.4'
loop_
_geom_angle_atom_site_label_1
_geom_angle_atom_site_label_2
_geom_angle_atom_site_label_3
_geom_angle
C1 Au1 Cl1 176.92(7)
N3 C1 C2 102.1(2)
N3 C1 Au1 126.13(16)
C2 C1 Au1 131.55(19)
N1 C2 C1 107.9(2)
N1 C2 S1 126.64(19)
C1 C2 S1 125.5(2)
N2 N1 C2 111.3(2)
N2 N1 C3 119.5(2)
C2 N1 C3 129.2(2)
N1 N2 N3 104.37(19)
N2 N3 C1 114.39(19)
N2 N3 C11 119.0(2)
C1 N3 C11 126.6(2)
N1 C3 H3A 109.5
N1 C3 H3B 109.5
H3A C3 H3B 109.5
N1 C3 H3C 109.5
H3A C3 H3C 109.5
H3B C3 H3C 109.5
O1 S1 C2 109.63(12)
O1 S1 C4 106.37(12)
C2 S1 C4 96.67(11)
C9 C4 C5 121.2(2)
C9 C4 S1 120.6(2)
C5 C4 S1 118.2(2)
C4 C5 C6 118.5(3)
C4 C5 H5 120.7
C6 C5 H5 120.7
C7 C6 C5 121.4(3)
C7 C6 H6 119.3
C5 C6 H6 119.3
C6 C7 C8 118.9(3)
C6 C7 C10 120.2(3)
C8 C7 C10 120.9(3)
C7 C8 C9 121.1(3)
C7 C8 H8 119.4
C9 C8 H8 119.4
C4 C9 C8 118.7(3)
C4 C9 H9 120.6
C8 C9 H9 120.6
C7 C10 H10A 109.5
C7 C10 H10B 109.5
H10A C10 H10B 109.5
C7 C10 H10C 109.5
H10A C10 H10C 109.5
H10B C10 H10C 109.5
N3 C11 C13 112.26(19)
N3 C11 C12 109.7(2)
C13 C11 C12 110.9(2)
N3 C11 H11 107.9
C13 C11 H11 107.9
C12 C11 H11 107.9
C11 C12 H12A 109.5
C11 C12 H12B 109.5
H12A C12 H12B 109.5
C11 C12 H12C 109.5
H12A C12 H12C 109.5
H12B C12 H12C 109.5
C14 C13 C18 119.7(2)
C14 C13 C11 117.7(2)
C18 C13 C11 122.3(2)
C13 C14 C15 119.9(2)
C13 C14 H14 120.1
C15 C14 H14 120.1
C16 C15 C14 120.2(2)
C16 C15 H15 119.9
C14 C15 H15 119.9
C15 C16 C17 119.8(3)
C15 C16 H16 120.1
C17 C16 H16 120.1
C16 C17 C18 120.6(3)
C16 C17 H17 119.7
C18 C17 H17 119.7
C17 C18 C13 119.7(2)
C17 C18 H18 120.1
C13 C18 H18 120.1
loop_
_geom_bond_atom_site_label_1
_geom_bond_atom_site_label_2
_geom_bond_distance
Au1 C1 1.980(2)
Au1 Cl1 2.2817(6)
C1 N3 1.370(3)
C1 C2 1.376(3)
C2 N1 1.368(3)
C2 S1 1.778(3)
N1 N2 1.310(3)
N1 C3 1.461(3)
N2 N3 1.327(3)
N3 C11 1.481(3)
C3 H3A 0.9800
C3 H3B 0.9800
C3 H3C 0.9800
S1 O1 1.489(2)
S1 C4 1.795(3)
C4 C9 1.385(4)
C4 C5 1.387(3)
C5 C6 1.390(4)
C5 H5 0.9500
C6 C7 1.376(5)
C6 H6 0.9500
C7 C8 1.387(5)
C7 C10 1.514(4)
C8 C9 1.388(4)
C8 H8 0.9500
C9 H9 0.9500
C10 H10A 0.9800
C10 H10B 0.9800
C10 H10C 0.9800
C11 C13 1.514(3)
C11 C12 1.526(4)
C11 H11 1.0000
C12 H12A 0.9800
C12 H12B 0.9800
C12 H12C 0.9800
C13 C14 1.391(3)
C13 C18 1.392(4)
C14 C15 1.395(4)
C14 H14 0.9500
C15 C16 1.379(4)
C15 H15 0.9500
C16 C17 1.384(4)
C16 H16 0.9500
C17 C18 1.387(4)
C17 H17 0.9500
C18 H18 0.9500
