#------------------------------------------------------------------------------
#$Date: 2016-04-28 05:18:19 +0300 (Thu, 28 Apr 2016) $
#$Revision: 182314 $
#$URL: svn://www.crystallography.net/cod/cif/1/54/31/1543174.cif $
#------------------------------------------------------------------------------
#
# This file is available in the Crystallography Open Database (COD),
# http://www.crystallography.net/. The original data for this entry
# were provided by IUCr Journals, http://journals.iucr.org/.
#
# The file may be used within the scientific community so long as
# proper attribution is given to the journal article from which the
# data were obtained.
#
data_1543174
loop_
_publ_author_name
'Mague, Joel T.'
'Mohamed, Shaaban K.'
'Akkurt, Mehmet'
'Bakhite, Etify A.'
'Albayati, Mustafa R.'
_publ_section_title
;
 <i>N</i>'-Benzylidene-2-({5-[(4-chlorophenoxy)methyl]-4-phenyl-4<i>H</i>-1,2,4-triazol-3-yl}sulfanyl)acetohydrazide
 hemihydrate
;
_journal_coeditor_code           SJ4023
_journal_issue                   4
_journal_name_full               IUCrData
_journal_page_first              x160627
_journal_paper_doi               10.1107/S2414314616006271
_journal_volume                  1
_journal_year                    2016
_chemical_formula_iupac          '2C24 H20 Cl N5 O2 S, H2 O'
_chemical_formula_moiety         '2(C24 H20 Cl N5 O2 S), H2 O'
_chemical_formula_sum            'C48 H42 Cl2 N10 O5 S2'
_chemical_formula_weight         973.93
_chemical_name_systematic
'<i>N</i>'-Benzylidene-2-({5-[(4-chlorophenoxy)methyl]-4-phenyl-4<i>H</i>-1,2,4-triazol-3-yl}sulfanyl)acetohydrazide hemihydrate'
_space_group_crystal_system      triclinic
_space_group_IT_number           2
_space_group_name_Hall           '-P 1'
_space_group_name_H-M_alt        'P -1'
_symmetry_space_group_name_Hall  '-P 1'
_symmetry_space_group_name_H-M   'P -1'
_atom_sites_solution_hydrogens   mixed
_atom_sites_solution_primary     direct
_atom_sites_solution_secondary   difmap
_audit_creation_method           SHELXL-2014/7
_cell_angle_alpha                96.662(2)
_cell_angle_beta                 102.6730(10)
_cell_angle_gamma                98.0670(10)
_cell_formula_units_Z            3
_cell_length_a                   10.7330(4)
_cell_length_b                   16.0616(6)
_cell_length_c                   20.9885(8)
_cell_measurement_reflns_used    9989
_cell_measurement_temperature    150.(2)
_cell_measurement_theta_max      72.3262
_cell_measurement_theta_min      4.3185
_cell_volume                     3454.5(2)
_computing_cell_refinement
;
<i>SAINT</i> (Bruker, 2016)
;
_computing_data_collection
;
<i>APEX3</i> (Bruker, 2016)
;
_computing_data_reduction
;
<i>SAINT</i>  (Bruker, 2016)
;
_computing_molecular_graphics
;
<i>DIAMOND</i> (Brandenburg & Putz, 2012)
;
_computing_publication_material
;
<i>SHELXTL</i> (Sheldrick, 2008)
;
_computing_structure_refinement
;
<i>SHELXL2014</i> (Sheldrick, 2015b)
;
_computing_structure_solution
;
<i>SHELXT</i> (Sheldrick, 2015a)
;
_diffrn_ambient_temperature      150(2)
_diffrn_detector_area_resol_mean 10.4167
_diffrn_measured_fraction_theta_full 0.961
_diffrn_measured_fraction_theta_max 0.939
_diffrn_measurement_device_type  'Bruker D8 VENTURE PHOTON 100 CMOS'
_diffrn_measurement_method       '\w scans'
_diffrn_radiation_monochromator  mirror
_diffrn_radiation_type           CuK\a
_diffrn_radiation_wavelength     1.54178
_diffrn_reflns_av_R_equivalents  0.0291
_diffrn_reflns_limit_h_max       13
_diffrn_reflns_limit_h_min       -11
_diffrn_reflns_limit_k_max       19
_diffrn_reflns_limit_k_min       -18
_diffrn_reflns_limit_l_max       25
_diffrn_reflns_limit_l_min       -25
_diffrn_reflns_number            26548
_diffrn_reflns_theta_full        68.000
_diffrn_reflns_theta_max         72.320
_diffrn_reflns_theta_min         3.287
_exptl_absorpt_coefficient_mu    2.606
_exptl_absorpt_correction_T_max  0.78
_exptl_absorpt_correction_T_min  0.70
_exptl_absorpt_correction_type   multi-scan
_exptl_absorpt_process_details
;
(<i>SADABS</i>; Bruker, 2016)
;
_exptl_crystal_colour            colourless
_exptl_crystal_density_diffrn    1.404
_exptl_crystal_density_method    'not measured'
_exptl_crystal_description       block
_exptl_crystal_F_000             1518
_exptl_crystal_size_max          0.190
_exptl_crystal_size_mid          0.143
_exptl_crystal_size_min          0.103
_refine_diff_density_max         0.363
_refine_diff_density_min         -0.360
_refine_ls_extinction_method     none
_refine_ls_goodness_of_fit_ref   1.018
_refine_ls_hydrogen_treatment    constr
_refine_ls_matrix_type           full
_refine_ls_number_parameters     910
_refine_ls_number_reflns         12824
_refine_ls_number_restraints     0
_refine_ls_restrained_S_all      1.018
_refine_ls_R_factor_all          0.0523
_refine_ls_R_factor_gt           0.0402
_refine_ls_shift/su_max          0.001
_refine_ls_shift/su_mean         0.000
_refine_ls_structure_factor_coef Fsqd
_refine_ls_weighting_details
'w=1/[\s^2^(Fo^2^)+(0.0615P)^2^+0.7789P] where P=(Fo^2^+2Fc^2^)/3'
_refine_ls_weighting_scheme      calc
_refine_ls_wR_factor_gt          0.1059
_refine_ls_wR_factor_ref         0.1146
_reflns_number_gt                10286
_reflns_number_total             12824
_reflns_threshold_expression     'I > 2\s(I)'
_cod_data_source_file            sj4023sup1.cif
_cod_data_source_block           I
_cod_database_code               1543174
_shelx_space_group_comment
;
The symmetry employed for this shelxl refinement is uniquely defined
by the following loop, which should always be used as a source of
symmetry information in preference to the above space-group names.
They are only intended as comments.
;
_shelx_estimated_absorpt_t_min   0.637
_shelx_estimated_absorpt_t_max   0.775
_shelx_hkl_file
;
  -1   0   0    0.00    0.00
   1   0   0    0.01    0.00
  -2   0   0    3.70    0.14
   2   0   0    3.68    0.14
  -3   0   0  255.95    9.38
   3   0   0  264.11    9.39
  -4   0   0   19.99    0.76
   4   0   0   21.04    0.76
  -5   0   0    9.07    0.34
   5   0   0    7.87    0.34
  -6   0   0    0.52    0.11
   7   0   0    0.88    0.15
   8   0   0   14.60    0.60
   8   0   0   14.41    0.59
   9   0   0    3.31    0.24
   9   0   0    3.40    0.21
  10   0   0    2.68    0.21
  10   0   0    2.42    0.17
  11   0   0    0.26    0.07
  11   0   0    0.12    0.10
  12   0   0    4.21    0.20
  12  -1   0    0.29    0.06
  11  -1   0   -0.03    0.09
  11  -1   0   -0.04    0.06
  10  -1   0    0.99    0.13
  10  -1   0    0.63    0.12
   9  -1   0    1.27    0.15
   9  -1   0    1.74    0.19
   8  -1   0   -0.04    0.08
   7  -1   0    1.95    0.17
  -6   1   0    0.24    0.09
  -6   1   0    0.16    0.05
   5  -1   0    5.28    0.23
  -5   1   0    5.73    0.23
   4  -1   0   12.66    0.48
  -4   1   0   12.63    0.47
   3  -1   0   61.87    2.15
  -3   1   0   57.27    2.15
   2  -1   0    0.78    0.04
  -2   1   0    0.69    0.04
   1  -1   0    0.45    0.02
  -1   1   0    0.41    0.02
  -1  -1   0    0.03    0.01
   1   1   0    0.02    0.01
  -2  -1   0    0.26    0.03
   2   1   0    0.29    0.03
  -3  -1   0    5.03    0.20
   3   1   0    4.98    0.20
  -4  -1   0   11.07    0.42
   4   1   0   10.93    0.42
  -5  -1   0    9.93    0.39
  -6  -1   0   12.72    0.51
   7   1   0    9.11    0.41
   7   1   0    8.97    0.41
   7   1   0    9.13    0.39
   8   1   0    1.24    0.15
   8   1   0    1.58    0.20
   9   1   0    0.12    0.08
   9   1   0    0.14    0.10
  10   1   0    0.20    0.10
  10   1   0    0.19    0.08
  11   1   0    0.13    0.09
  11   1   0   -0.02    0.06
  12   1   0    0.01    0.05
  12  -2   0    0.14    0.06
  11  -2   0    1.33    0.18
  11  -2   0    1.46    0.13
  10  -2   0    3.45    0.23
  10  -2   0    3.32    0.20
   9  -2   0   23.59    0.91
   8  -2   0    0.09    0.08
   7  -2   0   13.47    0.55
  -7   2   0   13.79    0.55
  -6   2   0   35.87    1.31
  -6   2   0   35.08    1.31
   5  -2   0    0.00    0.04
  -5   2   0    0.05    0.04
  -5   2   0    0.07    0.07
   4  -2   0   16.80    0.62
  -4   2   0   16.44    0.62
   3  -2   0    6.28    0.24
  -3   2   0    6.07    0.24
   2  -2   0    0.03    0.01
  -2   2   0    0.01    0.01
   1  -2   0    0.06    0.01
  -1   2   0    0.07    0.01
   0   2   0    0.33    0.01
  -1  -2   0    0.27    0.02
   1   2   0    0.31    0.02
  -2  -2   0    6.56    0.25
   2   2   0    6.89    0.25
  -3  -2   0   12.38    0.47
   3   2   0   12.66    0.47
  -4  -2   0    0.36    0.05
   4   2   0    0.27    0.06
  -5  -2   0    2.69    0.14
   6   2   0   15.34    0.61
   7   2   0    0.29    0.09
   7   2   0    0.23    0.11
   7   2   0    0.24    0.10
   8   2   0    1.01    0.14
   8   2   0    0.97    0.18
   9   2   0    4.70    0.25
   9   2   0    4.56    0.27
  10   2   0    3.89    0.23
  10   2   0    4.24    0.26
  11   2   0    0.08    0.10
  11   2   0    0.01    0.06
  12   2   0    0.67    0.10
  12  -3   0    4.77    0.22
  11  -3   0    0.90    0.16
  11  -3   0    0.79    0.12
  10  -3   0    1.27    0.15
  10  -3   0    1.73    0.19
   9  -3   0    6.73    0.32
   8  -3   0    1.71    0.16
  -8   3   0    1.78    0.17
   7  -3   0    1.05    0.15
  -7   3   0    1.26    0.20
  -7   3   0    1.17    0.13
  -6   3   0   67.38    2.42
  -6   3   0   65.34    2.42
   5  -3   0    8.18    0.34
  -5   3   0    8.76    0.33
  -5   3   0    8.11    0.34
   4  -3   0    8.84    0.34
  -4   3   0    8.84    0.34
   3  -3   0    9.17    0.34
  -3   3   0    9.05    0.34
   2  -3   0    1.63    0.07
  -2   3   0    1.56    0.07
   1  -3   0    2.64    0.10
  -1   3   0    2.47    0.10
  -1  -3   0    2.30    0.09
   1   3   0    2.35    0.09
  -2  -3   0    5.08    0.20
   2   3   0    5.23    0.20
  -3  -3   0   30.92    1.17
   3   3   0   33.33    1.17
  -4  -3   0   18.52    0.70
   4   3   0   19.14    0.71
  -5  -3   0    0.59    0.07
   6   3   0   33.00    1.26
   6   3   0   33.44    1.25
   6   3   0   33.19    1.24
   7   3   0   31.99    1.19
   7   3   0   30.87    1.18
   7   3   0   30.93    1.18
   8   3   0    2.55    0.21
   8   3   0    2.21    0.18
   9   3   0    3.93    0.24
   9   3   0    3.31    0.22
 -10  -3   0    9.69    0.41
  10   3   0    9.88    0.41
  10   3   0    9.11    0.42
  11   3   0    0.06    0.06
  11   3   0    0.14    0.10
  12   3   0    1.58    0.11
  12  -4   0    0.46    0.09
  11  -4   0    1.25    0.13
  11  -4   0    1.08    0.16
  10  -4   0    0.55    0.13
   9  -4   0    0.15    0.08
  -9   4   0    0.09    0.10
   8  -4   0    0.59    0.13
  -8   4   0    0.62    0.13
  -8   4   0    0.67    0.14
  -7   4   0    0.15    0.07
  -7   4   0    0.09    0.12
  -6   4   0    0.19    0.06
  -6   4   0    0.31    0.07
   5  -4   0    2.00    0.13
  -5   4   0    1.89    0.12
  -5   4   0    2.01    0.11
   4  -4   0    3.28    0.14
  -4   4   0    3.19    0.16
  -4   4   0    3.22    0.14
   3  -4   0   18.95    0.69
  -3   4   0   18.69    0.69
   2  -4   0    0.54    0.03
  -2   4   0    0.47    0.03
   1  -4   0    3.51    0.13
   0  -4   0    0.48    0.02
  -1  -4   0    5.66    0.21
   1   4   0    5.79    0.21
  -2  -4   0    0.51    0.04
   2   4   0    0.59    0.04
  -3  -4   0    9.62    0.37
   3   4   0   10.04    0.38
  -4  -4   0    2.89    0.14
   4   4   0    2.64    0.15
  -5  -4   0    0.92    0.12
   6   4   0    1.59    0.16
   6   4   0    1.56    0.16
   6   4   0    1.19    0.19
   6   4   0    1.47    0.28
   7   4   0   24.18    0.92
   7   4   0   23.26    0.97
   7   4   0   24.30    0.94
   7   4   0   24.63    0.93
   8   4   0   -0.03    0.10
   8   4   0    0.01    0.09
   9   4   0    2.10    0.17
   9   4   0    1.81    0.20
 -10  -4   0    1.07    0.14
  10   4   0    1.08    0.12
  10   4   0    0.99    0.17
  11   4   0    0.22    0.06
  12   4   0    1.66    0.12
  12  -5   0    5.33    0.24
  11  -5   0   -0.12    0.09
  11  -5   0    0.07    0.06
  10  -5   0    0.67    0.13
 -10   5   0    0.78    0.16
   9  -5   0   23.67    0.91
  -9   5   0   23.74    0.91
  -8   5   0    1.80    0.21
  -8   5   0    2.04    0.17
  -7   5   0    5.92    0.32
  -7   5   0    6.10    0.28
  -6   5   0   10.39    0.42
  -6   5   0    9.79    0.44
   5  -5   0   13.63    0.55
  -5   5   0   15.04    0.55
  -5   5   0   14.73    0.56
   4  -5   0   12.00    0.45
  -4   5   0   11.87    0.46
  -4   5   0   11.61    0.44
   3  -5   0   10.67    0.40
  -3   5   0   10.73    0.40
   2  -5   0    0.73    0.04
  -2   5   0    0.69    0.04
   0  -5   0  119.00    4.07
   0  -5   0  107.53    4.07
  -1  -5   0    2.84    0.11
   1   5   0    2.78    0.11
  -2  -5   0    0.38    0.04
   2   5   0    0.39    0.04
  -3  -5   0   68.82    2.54
   3   5   0   71.99    2.55
  -4  -5   0   13.06    0.49
   4   5   0   12.39    0.50
  -5  -5   0    0.24    0.08
   5   5   0    0.12    0.09
   5   5   0    0.19    0.12
   5   5   0    0.17    0.10
   6   5   0    2.45    0.18
   6   5   0    2.57    0.20
   6   5   0    2.88    0.23
   6   5   0    2.95    0.26
   7   5   0   45.85    1.81
   7   5   0   47.95    1.82
   7   5   0   50.27    1.80
   7   5   0   49.80    1.80
   8   5   0    9.79    0.45
   8   5   0   10.14    0.43
   9   5   0    0.37    0.09
   9   5   0    0.32    0.11
 -10  -5   0    0.25    0.07
  10   5   0    0.24    0.10
  10   5   0    0.26    0.07
 -11  -5   0    1.69    0.14
  11   5   0    1.79    0.13
  12  -6   0    0.08    0.05
  11  -6   0    0.12    0.10
  11  -6   0    0.29    0.06
  10  -6   0    0.17    0.07
 -10   6   0    0.24    0.11
   9  -6   0    7.94    0.36
  -8   6   0    0.63    0.13
  -8   6   0    0.90    0.18
  -7   6   0    1.94    0.14
  -7   6   0    1.73    0.21
  -6   6   0    0.66    0.17
  -6   6   0    1.06    0.11
  -6   6   0    0.82    0.20
  -6   6   0    1.17    0.17
   5  -6   0    0.18    0.06
  -5   6   0    0.28    0.06
  -5   6   0    0.25    0.06
   4  -6   0    0.47    0.07
  -4   6   0    0.50    0.06
  -4   6   0    0.61    0.08
   3  -6   0   15.33    0.55
  -3   6   0   14.48    0.57
  -3   6   0   15.04    0.55
   2  -6   0    0.07    0.01
   0  -6   0   20.66    0.78
   0  -6   0   22.72    0.78
  -1  -6   0    1.51    0.07
   1   6   0    1.56    0.07
  -2  -6   0    4.66    0.18
   2   6   0    4.49    0.19
  -3  -6   0  117.17    4.33
   3   6   0  122.50    4.32
  -4  -6   0    1.06    0.12
   5   6   0   -0.02    0.11
   5   6   0    0.00    0.09
   5   6   0    0.23    0.08
   5   6   0   -0.23    0.12
   6   6   0   37.89    1.40
   6   6   0   36.23    1.39
   6   6   0   38.86    1.41
   6   6   0   35.52    1.39
   7   6   0    0.22    0.09
   7   6   0    0.09    0.12
   7   6   0    0.34    0.11
   7   6   0   -0.08    0.08
   8   6   0    0.33    0.14
   8   6   0    0.12    0.09
   8   6   0    0.01    0.10
   9   6   0    3.00    0.19
 -10  -6   0   10.17    0.41
  10   6   0   10.40    0.42
  10   6   0    9.75    0.43
 -11  -6   0    0.25    0.07
  11   6   0    0.26    0.10
  12  -7   0    0.14    0.05
  11  -7   0   -0.02    0.06
  10  -7   0    0.11    0.07
 -10   7   0    0.11    0.09
   9  -7   0    3.62    0.21
  -9   7   0    3.31    0.22
  -9   7   0    3.93    0.25
  -8   7   0    0.43    0.11
  -8   7   0    0.64    0.13
  -7   7   0    2.99    0.18
  -7   7   0    2.93    0.22
  -6   7   0    1.83    0.18
  -6   7   0    1.49    0.12
  -6   7   0    1.82    0.20
  -5   7   0    2.78    0.18
  -5   7   0    3.19    0.16
   4  -7   0    0.76    0.12
  -4   7   0    0.80    0.09
  -4   7   0    0.73    0.08
   3  -7   0   42.02    1.51
  -3   7   0   41.83    1.54
  -2   7   0    0.37    0.07
  -1  -7   0    1.17    0.06
  -2  -7   0    6.27    0.25
   2   7   0    6.61    0.26
  -3  -7   0   24.82    0.90
   3   7   0   23.73    0.91
  -4  -7   0    0.25    0.08
   4   7   0    0.12    0.12
   4   7   0    0.30    0.12
   4   7   0    0.23    0.10
   4   7   0    0.18    0.11
   5   7   0    0.96    0.19
   5   7   0    0.90    0.16
   5   7   0    0.96    0.18
   5   7   0    0.98    0.15
   6   7   0   -0.17    0.11
   6   7   0    0.11    0.09
   6   7   0    0.17    0.08
   7   7   0   31.22    1.16
   7   7   0   29.25    1.16
   7   7   0   30.26    1.16
   8   7   0    0.69    0.16
   8   7   0    0.39    0.13
   8   7   0    0.61    0.14
   9   7   0    0.32    0.10
   9   7   0    0.33    0.08
 -10  -7   0    1.57    0.12
  10   7   0    1.50    0.13
  10   7   0    1.32    0.16
 -11  -7   0    0.72    0.10
  11   7   0    0.36    0.09
  12  -8   0    1.04    0.09
  11  -8   0    0.40    0.09
 -11   8   0    0.40    0.14
  10  -8   0    0.82    0.12
 -10   8   0    0.59    0.14
  -9   8   0    0.40    0.11
  -9   8   0    0.50    0.13
  -8   8   0    4.26    0.27
  -8   8   0    5.05    0.25
  -7   8   0    4.53    0.23
  -7   8   0    4.50    0.27
  -6   8   0   45.68    1.71
  -6   8   0   47.26    1.72
  -6   8   0   45.14    1.70
  -5   8   0   15.81    0.60
  -5   8   0   14.94    0.61
  -5   8   0   14.86    0.62
  -4   8   0    5.61    0.25
  -3   8   0  199.45    7.19
  -2   8   0    2.43    0.14
  -1   8   0    0.12    0.07
  -1  -8   0    0.20    0.03
  -2  -8   0    2.98    0.14
   3   8   0   69.09    2.51
   3   8   0   66.93    2.49
   3   8   0   69.83    2.51
   3   8   0   66.75    2.50
   4   8   0    2.22    0.20
   4   8   0    2.25    0.20
   4   8   0    2.38    0.19
   4   8   0    2.19    0.21
   5   8   0    0.76    0.18
   5   8   0    0.66    0.16
   5   8   0    0.64    0.10
   5   8   0    0.54    0.12
   6   8   0   20.67    0.81
   6   8   0   20.73    0.83
   6   8   0   21.00    0.82
   6   8   0   20.32    0.81
   7   8   0    1.97    0.18
   7   8   0    1.61    0.20
   7   8   0    1.78    0.19
   8   8   0    2.95    0.20
   8   8   0    3.42    0.23
   8   8   0    3.03    0.24
   9   8   0    0.61    0.12
   9   8   0    0.28    0.09
 -10  -8   0    9.59    0.37
  10   8   0    9.43    0.38
  10   8   0    8.99    0.39
  12  -9   0    0.75    0.09
  11  -9   0    0.06    0.05
 -11   9   0    0.10    0.12
  10  -9   0    4.23    0.24
 -10   9   0    4.55    0.24
  -9   9   0    1.02    0.18
  -9   9   0    1.04    0.14
  -8   9   0    0.16    0.10
  -7   9   0    1.43    0.14
  -7   9   0    1.59    0.18
  -7   9   0    1.73    0.17
  -6   9   0   15.84    0.62
  -6   9   0   15.82    0.64
  -6   9   0   15.42    0.63
  -5   9   0    1.80    0.19
  -5   9   0    1.87    0.14
  -5   9   0    2.01    0.19
  -4   9   0    3.93    0.24
  -4   9   0    4.22    0.20
  -4   9   0    3.60    0.25
  -3   9   0    1.28    0.11
  -2   9   0    0.86    0.11
  -1   9   0    0.55    0.13
   2   9   0    0.92    0.18
   2   9   0    0.69    0.11
   2   9   0    0.76    0.13
   3   9   0    0.63    0.11
   3   9   0    0.63    0.17
   3   9   0    0.75    0.19
   3   9   0    0.67    0.11
   4   9   0    3.16    0.24
   4   9   0    3.28    0.22
   4   9   0    3.44    0.24
   4   9   0    3.52    0.22
   5   9   0    0.11    0.10
   5   9   0    0.09    0.08
   5   9   0   -0.01    0.10
   5   9   0    0.01    0.09
   6   9   0    6.41    0.34
   6   9   0    6.44    0.33
   6   9   0    6.10    0.31
   7   9   0    2.74    0.20
   7   9   0    3.06    0.23
   7   9   0    2.60    0.22
   8   9   0    0.07    0.07
   8   9   0    0.03    0.10
   8   9   0    0.12    0.09
  -9  -9   0    3.92    0.19
   9   9   0    3.59    0.21
   9   9   0    3.70    0.19
 -10  -9   0    1.00    0.09
  10   9   0    0.97    0.10
  12 -10   0    1.34    0.09
  11 -10   0    0.22    0.06
 -11  10   0    0.10    0.11
  10 -10   0    0.62    0.11
 -10  10   0    0.41    0.09
  -9  10   0   36.84    1.32
  -9  10   0   32.78    1.31
  -8  10   0    0.12    0.08
  -8  10   0    0.05    0.10
  -7  10   0    3.26    0.24
  -7  10   0    3.96    0.23
  -7  10   0    4.14    0.22
  -6  10   0    7.92    0.37
  -6  10   0    7.92    0.35
  -5  10   0    2.46    0.19
  -5  10   0    1.99    0.15
  -5  10   0    2.27    0.20
  -4  10   0    3.96    0.21
  -4  10   0    3.89    0.24
  -4  10   0    3.94    0.25
  -3  10   0    0.56    0.11
  -3  10   0    0.65    0.13
  -3  10   0    0.76    0.16
  -2  10   0    0.00    0.10
  -2  10   0    0.05    0.07
  -2  10   0    0.09    0.09
  -1  10   0    0.19    0.10
  -1  10   0    0.22    0.10
  -1  10   0    0.17    0.12
   0  10   0    3.56    0.23
   0  10   0    3.95    0.28
   0  10   0    3.91    0.24
   1  10   0    0.25    0.12
   1  10   0   -0.05    0.09
   1  10   0    0.01    0.11
   2  10   0    1.95    0.23
   2  10   0    2.40    0.18
   2  10   0    2.06    0.20
   2  10   0    2.13    0.20
   3  10   0   56.92    2.08
   3  10   0   54.47    2.06
   3  10   0   54.26    2.05
   3  10   0   57.41    2.08
   4  10   0    3.33    0.25
   4  10   0    3.54    0.22
   4  10   0    3.67    0.23
   5  10   0    0.61    0.12
   5  10   0    0.59    0.11
   5  10   0    0.36    0.10
   6  10   0    0.12    0.09
   6  10   0   -0.14    0.10
   6  10   0    0.15    0.11
   7  10   0   11.74    0.50
   7  10   0   11.58    0.50
   7  10   0   11.91    0.49
   8  10   0    0.30    0.09
   8  10   0    0.28    0.09
   8  10   0    0.25    0.07
  -9 -10   0    0.10    0.05
   9  10   0    0.15    0.09
   9  10   0    0.06    0.06
  11 -11   0    1.97    0.12
 -11  11   0    2.27    0.19
  10 -11   0    7.82    0.33
 -10  11   0    7.73    0.35
  -9  11   0    0.10    0.08
  -8  11   0    0.69    0.16
  -8  11   0    0.88    0.13
  -7  11   0    3.14    0.20
  -7  11   0    2.72    0.21
  -7  11   0    2.58    0.26
  -6  11   0   28.95    1.10
  -6  11   0   28.66    1.10
  -6  11   0   28.37    1.10
  -5  11   0    0.45    0.14
  -5  11   0    0.47    0.12
  -4  11   0    1.15    0.18
  -4  11   0    1.93    0.15
  -4  11   0    1.62    0.17
  -3  11   0   21.00    0.84
  -3  11   0   22.58    0.87
  -3  11   0   22.66    0.86
  -2  11   0    0.10    0.11
  -2  11   0   -0.08    0.09
  -2  11   0    0.01    0.08
  -1  11   0    0.33    0.09
  -1  11   0    0.51    0.12
  -1  11   0    0.38    0.15
   0  11   0    0.45    0.11
   0  11   0    0.42    0.13
   0  11   0    0.34    0.10
   1  11   0    0.03    0.11
   1  11   0    0.18    0.11
   1  11   0    0.29    0.08
   2  11   0    4.70    0.29
   2  11   0    5.10    0.28
   2  11   0    4.80    0.27
   3  11   0    0.54    0.12
   3  11   0    0.60    0.15
   3  11   0    0.73    0.17
   4  11   0    0.11    0.10
   4  11   0   -0.01    0.08
   4  11   0   -0.10    0.09
   5  11   0    3.13    0.21
   5  11   0    3.28    0.23
   5  11   0    3.38    0.23
   6  11   0   19.81    0.81
   6  11   0   21.25    0.82
   6  11   0   20.60    0.82
   7  11   0    5.03    0.25
   7  11   0    4.83    0.26
   7  11   0    4.92    0.26
  -8 -11   0    0.45    0.09
   8  11   0    0.44    0.09
   8  11   0    0.44    0.09
   8  11   0    0.42    0.10
  -9 -11   0    6.57    0.31
   9  11   0    7.12    0.29
  11 -12   0    0.03    0.06
  10 -12   0    0.33    0.06
 -10  12   0    0.43    0.09
  -9  12   0    0.96    0.13
  -9  12   0    1.24    0.15
  -8  12   0    0.04    0.08
  -8  12   0    0.02    0.09
  -7  12   0    1.45    0.16
  -7  12   0    1.79    0.18
  -7  12   0    1.49    0.16
  -6  12   0   44.09    1.70
  -6  12   0   43.20    1.69
  -6  12   0   49.22    1.77
  -5  12   0    1.34    0.17
  -5  12   0    1.62    0.15
  -5  12   0    1.46    0.18
  -4  12   0    0.03    0.09
  -4  12   0    0.03    0.09
  -4  12   0   -0.02    0.08
  -3  12   0    2.76    0.20
  -3  12   0    3.20    0.20
  -3  12   0    3.04    0.22
  -2  12   0    2.40    0.20
  -2  12   0    2.80    0.20
  -2  12   0    2.66    0.19
  -1  12   0   -0.02    0.09
  -1  12   0    0.13    0.13
  -1  12   0    0.13    0.08
   0  12   0    1.08    0.17
   0  12   0    0.66    0.15
   0  12   0    0.94    0.21
   1  12   0    0.83    0.16
   1  12   0    0.64    0.12
   2  12   0    2.16    0.19
   2  12   0    2.14    0.20
   2  12   0    2.16    0.21
   3  12   0   34.45    1.32
   3  12   0   33.75    1.31
   3  12   0   34.97    1.32
   4  12   0    3.65    0.23
   4  12   0    3.81    0.25
   4  12   0    3.72    0.25
   5  12   0    0.60    0.14
   5  12   0    0.47    0.11
   5  12   0    0.64    0.16
   6  12   0    1.02    0.17
   6  12   0    0.86    0.15
   6  12   0    1.01    0.18
   7  12   0    0.75    0.11
   7  12   0    0.67    0.12
   7  12   0    0.53    0.13
  -8 -12   0    0.01    0.05
   8  12   0    0.01    0.05
   8  12   0   -0.08    0.08
  11 -13   0   -0.02    0.04
  10 -13   0    1.10    0.10
 -10  13   0    1.21    0.14
  -9  13   0    3.03    0.19
  -9  13   0    3.51    0.20
  -8  13   0    0.13    0.07
  -8  13   0    0.19    0.09
  -7  13   0    0.21    0.08
  -7  13   0    0.25    0.08
  -7  13   0    0.17    0.09
  -6  13   0   36.75    1.35
  -6  13   0   35.58    1.34
  -6  13   0   33.77    1.34
  -5  13   0    0.95    0.16
  -5  13   0    1.16    0.15
  -4  13   0    1.25    0.16
  -4  13   0    1.19    0.17
  -4  13   0    0.97    0.16
  -3  13   0    1.30    0.17
  -3  13   0    1.23    0.17
  -3  13   0    1.14    0.16
  -2  13   0    0.23    0.10
  -2  13   0    0.07    0.08
  -1  13   0   -0.05    0.13
  -1  13   0    0.08    0.09
  -1  13   0    0.07    0.10
   0  13   0   13.02    0.55
   0  13   0   13.29    0.56
   0  13   0   13.45    0.57
   1  13   0    5.17    0.30
   1  13   0    5.07    0.28
   1  13   0    5.21    0.29
   2  13   0    1.58    0.18
   2  13   0    1.83    0.20
   2  13   0    1.85    0.18
   3  13   0   20.41    0.81
   3  13   0   20.09    0.81
   3  13   0   19.78    0.80
   4  13   0    0.82    0.16
   4  13   0    0.40    0.09
   4  13   0    0.57    0.15
   5  13   0    1.36    0.21
   5  13   0    1.30    0.24
   6  13   0   12.03    0.50
   6  13   0   12.49    0.51
   6  13   0   12.08    0.50
  -7 -13   0    5.23    0.23
   7  13   0    5.30    0.24
   7  13   0    4.91    0.24
  -8 -13   0    0.09    0.05
   8  13   0    0.02    0.05
  10 -14   0    0.10    0.05
  -9  14   0    0.19    0.08
  -9  14   0    0.07    0.08
  -8  14   0    0.09    0.07
  -8  14   0    0.06    0.08
  -7  14   0    0.23    0.08
  -7  14   0    0.32    0.12
  -7  14   0    0.29    0.09
  -6  14   0    9.95    0.42
  -6  14   0    8.82    0.41
  -6  14   0    9.27    0.41
  -5  14   0    1.67    0.16
  -5  14   0    1.28    0.16
  -5  14   0    1.70    0.17
  -4  14   0    0.41    0.11
  -4  14   0    0.28    0.09
  -4  14   0    0.29    0.09
  -3  14   0   15.32    0.64
  -3  14   0   15.33    0.63
  -2  14   0    3.07    0.22
  -2  14   0    2.71    0.20
  -1  14   0    0.45    0.10
  -1  14   0    0.95    0.22
  -1  14   0    0.70    0.15
   0  14   0    1.41    0.17
   0  14   0    1.08    0.15
   0  14   0    1.33    0.19
   1  14   0   11.89    0.53
   1  14   0   11.88    0.52
   1  14   0   12.35    0.52
   2  14   0    1.48    0.18
   2  14   0    1.45    0.18
   2  14   0    1.48    0.17
   3  14   0    2.33    0.20
   3  14   0    2.23    0.19
   3  14   0    2.28    0.19
   4  14   0    0.82    0.21
  -5 -14   0    0.91    0.13
   5  14   0    0.99    0.14
   5  14   0    1.19    0.13
   5  14   0    1.14    0.14
  -6 -14   0    0.06    0.06
   6  14   0    0.21    0.06
   6  14   0   -0.01    0.07
   6  14   0    0.13    0.06
  -7 -14   0    0.00    0.05
   7  14   0    0.03    0.08
   7  14   0    0.05    0.05
  -9  15   0    2.52    0.17
  -8  15   0    1.01    0.13
  -8  15   0    0.99    0.14
  -7  15   0   -0.02    0.08
  -7  15   0    0.00    0.07
  -7  15   0    0.05    0.07
  -6  15   0    2.38    0.18
  -5  15   0    0.14    0.09
  -5  15   0    0.03    0.07
  -5  15   0    0.17    0.08
  -4  15   0    3.25    0.23
  -4  15   0    3.29    0.21
  -4  15   0    2.96    0.21
  -3  15   0    2.59    0.20
  -3  15   0    2.74    0.20
  -2  15   0    0.10    0.09
  -2  15   0    0.13    0.09
  -1  15   0    0.13    0.09
  -1  15   0    0.01    0.08
   0  15   0    4.30    0.26
   0  15   0    4.83    0.28
   0  15   0    4.19    0.24
   1  15   0    0.54    0.13
   1  15   0    0.58    0.15
   1  15   0    0.49    0.11
   2  15   0    1.07    0.16
   2  15   0    1.66    0.17
   2  15   0    1.40    0.16
   3  15   0    1.47    0.16
   3  15   0    1.30    0.15
   3  15   0    1.15    0.15
  -4 -15   0   10.72    0.45
   4  15   0   10.93    0.46
   4  15   0   11.13    0.46
   4  15   0   11.06    0.46
  -5 -15   0    0.13    0.08
   5  15   0    0.22    0.07
   5  15   0    0.05    0.06
  -6 -15   0    0.05    0.06
   6  15   0    0.03    0.07
   9 -16   0    0.07    0.04
  -9  16   0    0.10    0.07
  -8  16   0    0.09    0.09
  -8  16   0    0.02    0.06
  -7  16   0    0.70    0.11
  -7  16   0    1.05    0.16
  -6  16   0   34.65    1.33
  -6  16   0   35.13    1.30
  -6  16   0   34.61    1.30
  -5  16   0    0.32    0.08
  -5  16   0    0.41    0.13
  -5  16   0    0.25    0.08
  -4  16   0    1.68    0.17
  -4  16   0    1.68    0.17
  -3  16   0   58.84    2.18
  -3  16   0   58.98    2.18
  -2  16   0    0.10    0.08
  -2  16   0    0.07    0.09
  -1  16   0    0.34    0.09
  -1  16   0    0.48    0.09
   0  16   0   14.15    0.58
   0  16   0   13.94    0.57
   1  16   0    0.17    0.08
   1  16   0    0.05    0.08
   2  16   0    0.15    0.08
   2  16   0    0.18    0.08
   3  16   0    5.61    0.27
   3  16   0    5.84    0.27
   4  16   0    0.24    0.06
   4  16   0    0.16    0.07
   5  16   0    2.62    0.15
  -8  17   0    0.24    0.07
  -7  17   0    0.99    0.10
  -6  17   0    5.68    0.25
  -6  17   0    4.96    0.32
  -6  17   0    5.47    0.25
  -5  17   0   -0.03    0.06
  -5  17   0   -0.02    0.06
  -4  17   0    0.43    0.11
  -4  17   0    0.46    0.11
  -3  17   0   -0.03    0.07
  -3  17   0    0.08    0.07
  -2  17   0    0.36    0.08
  -2  17   0    0.47    0.11
  -1  17   0    0.22    0.07
  -1  17   0    0.08    0.07
   0  17   0    1.43    0.14
   0  17   0    1.47    0.14
   1  17   0    0.94    0.13
   1  17   0    1.08    0.12
   2  17   0    0.09    0.06
   2  17   0   -0.06    0.07
   3  17   0    7.22    0.30
   3  17   0    7.09    0.31
   4  17   0    0.11    0.06
   4  17   0    0.01    0.05
  -7  18   0    0.71    0.10
  -6  18   0    6.30    0.27
  -5  18   0    0.27    0.06
  -5  18   0    0.33    0.08
  -4  18   0    0.17    0.06
  -4  18   0    0.23    0.06
  -3  18   0    1.14    0.12
  -3  18   0    1.06    0.11
  -2  18   0    0.48    0.11
  -2  18   0    0.44    0.10
  -1  18   0    0.24    0.07
  -1  18   0    0.30    0.07
   0  18   0    0.56    0.11
   0  18   0    0.54    0.10
   1  18   0    0.65    0.10
   1  18   0    0.65    0.10
   2  18   0    0.03    0.06
   2  18   0    0.01    0.05
   3  18   0    2.20    0.14
   3  18   0    2.26    0.13
  -5  19   0    0.09    0.05
  -5  19   0    0.13    0.06
  -3  19   0    9.99    0.40
  -3  19   0    9.95    0.39
  -2  19   0    0.21    0.06
  -2  19   0    0.23    0.05
  -1  19   0    0.14    0.05
  -1  19   0    0.12    0.06
   0  19   0   10.40    0.42
   0  19   0   10.12    0.41
   1  19   0    1.92    0.12
   1  19   0    1.69    0.12
   1  19  -1    0.73    0.10
   1  19  -1    0.76    0.09
   0  19  -1    0.07    0.06
  -1  19  -1    0.53    0.09
  -1  19  -1    0.44    0.09
  -2  19  -1    0.20    0.05
  -2  19  -1    0.07    0.05
  -3  19  -1    0.09    0.05
  -3  19  -1    0.11    0.06
  -4  19  -1    7.41    0.32
  -5  19  -1   -0.10    0.05
  -5  19  -1   -0.09    0.05
   3  18  -1    0.24    0.07
   3  18  -1    0.14    0.05
   2  18  -1    2.14    0.14
   2  18  -1    2.07    0.13
   1  18  -1    1.38    0.12
   1  18  -1    1.16    0.12
   0  18  -1    0.13    0.06
   0  18  -1    0.18    0.07
  -1  18  -1    1.88    0.14
  -1  18  -1    2.03    0.14
  -2  18  -1    0.43    0.10
  -2  18  -1    0.09    0.06
  -3  18  -1    0.30    0.07
  -3  18  -1    0.42    0.07
  -4  18  -1    3.13    0.17
  -4  18  -1    3.24    0.18
  -5  18  -1    0.70    0.09
  -5  18  -1    0.57    0.09
  -6  18  -1    0.06    0.06
   4  17  -1    0.01    0.06
   4  17  -1    0.04    0.06
   3  17  -1    0.07    0.06
   3  17  -1    0.11    0.06
   2  17  -1    1.07    0.12
   2  17  -1    1.22    0.12
   1  17  -1    0.00    0.07
   1  17  -1    0.09    0.06
   0  17  -1   -0.06    0.07
   0  17  -1    0.03    0.07
  -1  17  -1    1.21    0.14
  -1  17  -1    1.25    0.13
  -2  17  -1    0.49    0.12
  -2  17  -1    0.24    0.08
  -3  17  -1    0.11    0.07
  -3  17  -1    0.12    0.07
  -4  17  -1    2.33    0.16
  -4  17  -1    2.07    0.16
  -5  17  -1    1.39    0.13
  -5  17  -1    1.50    0.13
  -6  17  -1    0.45    0.10
  -6  17  -1    0.25    0.15
  -6  17  -1    0.47    0.09
  -7  17  -1    0.72    0.10
  -8  17  -1    0.11    0.06
   5  16  -1   10.95    0.43
   5  16  -1   10.80    0.43
   4  16  -1    0.00    0.06
   4  16  -1    0.07    0.07
   4  16  -1    0.04    0.05
   3  16  -1    0.75    0.11
   3  16  -1    0.81    0.12
   3  16  -1    0.74    0.13
   2  16  -1   31.94    1.19
   2  16  -1   31.50    1.18
   2  16  -1   30.45    1.19
   1  16  -1    0.42    0.11
   0  16  -1   -0.02    0.07
   0  16  -1   -0.01    0.08
  -1  16  -1    3.88    0.22
  -1  16  -1    3.60    0.23
  -2  16  -1    0.18    0.08
  -2  16  -1    0.17    0.08
  -3  16  -1    1.33    0.15
  -3  16  -1    1.59    0.16
  -4  16  -1    4.57    0.24
  -4  16  -1    4.29    0.24
  -5  16  -1    5.68    0.27
  -5  16  -1    5.26    0.27
  -5  16  -1    5.63    0.31
  -6  16  -1    3.17    0.19
  -6  16  -1    3.33    0.27
  -6  16  -1    3.33    0.19
  -7  16  -1    2.53    0.16
  -7  16  -1    2.28    0.18
  -8  16  -1    0.11    0.07
  -8  16  -1    0.15    0.10
  -9  16  -1    0.02    0.06
   9 -16   1   -0.01    0.04
   6  15  -1    0.49    0.09
   6  15  -1    0.86    0.12
  -6 -15   1    0.48    0.10
   5  15  -1    2.27    0.15
   5  15  -1    2.23    0.16
   5  15  -1    2.35    0.15
  -5 -15   1    2.29    0.16
   4  15  -1    0.51    0.12
   4  15  -1    0.58    0.13
   4  15  -1    0.58    0.13
  -4 -15   1    0.42    0.10
   3  15  -1    1.72    0.17
   3  15  -1    1.90    0.16
   2  15  -1   42.23    1.58
   2  15  -1   42.87    1.58
   2  15  -1   40.64    1.57
   1  15  -1    1.07    0.14
   1  15  -1    1.27    0.17
   1  15  -1    1.19    0.18
   0  15  -1    0.27    0.09
   0  15  -1    0.52    0.13
   0  15  -1    0.37    0.12
  -1  15  -1   11.64    0.51
  -1  15  -1   11.95    0.50
  -2  15  -1    0.06    0.08
  -2  15  -1    0.14    0.09
  -3  15  -1    1.79    0.17
  -3  15  -1    1.60    0.17
  -4  15  -1    0.07    0.09
  -4  15  -1    0.12    0.10
  -4  15  -1   -0.02    0.07
  -5  15  -1    1.27    0.16
  -5  15  -1    1.70    0.16
  -5  15  -1    1.74    0.17
  -6  15  -1    3.08    0.20
  -7  15  -1    9.94    0.41
  -7  15  -1    9.86    0.43
  -7  15  -1    9.76    0.42
  -8  15  -1   -0.04    0.08
  -8  15  -1    0.06    0.07
  -9  15  -1   -0.10    0.09
  -9  15  -1    0.07    0.06
   7  14  -1    0.54    0.13
   7  14  -1    0.79    0.10
  -7 -14   1    0.69    0.09
   6  14  -1   10.82    0.45
   6  14  -1   11.07    0.45
   6  14  -1   10.83    0.45
  -6 -14   1   11.18    0.44
   5  14  -1    8.79    0.39
   5  14  -1    8.91    0.40
   5  14  -1    9.20    0.39
   4  14  -1   -0.01    0.08
   4  14  -1   -0.02    0.08
   3  14  -1    0.64    0.16
   3  14  -1    0.60    0.14
   3  14  -1    0.88    0.16
   2  14  -1   23.95    0.97
   2  14  -1   25.31    0.98
   2  14  -1   25.59    0.98
   1  14  -1    0.13    0.09
   1  14  -1    0.10    0.09
   1  14  -1    0.16    0.10
   0  14  -1    4.76    0.29
   0  14  -1    4.81    0.26
   0  14  -1    4.52    0.27
  -1  14  -1   28.01    1.07
  -1  14  -1   28.02    1.08
  -1  14  -1   27.15    1.06
  -2  14  -1    0.17    0.10
  -2  14  -1    0.05    0.08
  -3  14  -1    0.04    0.09
  -3  14  -1   -0.03    0.08
  -4  14  -1    0.28    0.10
  -4  14  -1    0.19    0.08
  -4  14  -1    0.37    0.10
  -5  14  -1    0.36    0.09
  -5  14  -1    0.34    0.10
  -5  14  -1    0.39    0.10
  -6  14  -1    0.09    0.08
  -6  14  -1    0.20    0.08
  -6  14  -1   -0.05    0.08
  -7  14  -1    2.03    0.17
  -7  14  -1    2.26    0.22
  -8  14  -1    0.58    0.13
  -8  14  -1    0.55    0.12
  -9  14  -1    0.03    0.07
  -9  14  -1    0.05    0.08
  10 -14   1    0.52    0.13
   8  13  -1    2.45    0.14
  -8 -13   1    2.78    0.14
   7  13  -1    0.01    0.06
   7  13  -1   -0.07    0.06
   7  13  -1   -0.01    0.08
  -7 -13   1    0.17    0.06
   6  13  -1    0.73    0.13
   6  13  -1    1.03    0.12
   6  13  -1    0.69    0.14
   5  13  -1    0.41    0.10
   5  13  -1    0.54    0.13
   5  13  -1    0.41    0.14
   4  13  -1    0.76    0.14
   4  13  -1    1.37    0.17
   4  13  -1    0.99    0.16
   3  13  -1    5.54    0.29
   3  13  -1    5.72    0.30
   3  13  -1    5.51    0.31
   2  13  -1   42.00    1.58
   2  13  -1   41.46    1.57
   1  13  -1    0.29    0.10
   1  13  -1    0.30    0.10
   1  13  -1    0.35    0.12
   0  13  -1   -0.05    0.08
   0  13  -1    0.01    0.10
   0  13  -1    0.05    0.13
  -1  13  -1   63.72    2.31
  -1  13  -1   61.20    2.33
  -1  13  -1   62.41    2.31
  -2  13  -1    0.12    0.10
  -2  13  -1    0.35    0.09
  -2  13  -1    0.33    0.12
  -3  13  -1    0.61    0.16
  -3  13  -1    0.34    0.09
  -3  13  -1    0.64    0.17
  -4  13  -1    8.38    0.38
  -4  13  -1    8.36    0.38
  -5  13  -1    3.30    0.22
  -5  13  -1    3.22    0.21
  -6  13  -1    0.12    0.09
  -6  13  -1    0.03    0.08
  -6  13  -1    0.04    0.08
  -7  13  -1    3.46    0.22
  -7  13  -1    2.92    0.20
  -7  13  -1    3.33    0.21
  -8  13  -1    3.26    0.20
  -8  13  -1    3.08    0.21
  -9  13  -1    0.60    0.13
  -9  13  -1    0.77    0.12
 -10  13  -1    0.22    0.09
  10 -13   1    0.28    0.06
   8  12  -1    0.83    0.12
   8  12  -1    0.83    0.14
   8  12  -1    0.67    0.10
  -8 -12   1    0.80    0.09
   7  12  -1    0.31    0.08
   7  12  -1    0.42    0.09
   7  12  -1    0.39    0.07
   6  12  -1    1.98    0.22
   6  12  -1    2.07    0.19
   6  12  -1    2.37    0.18
   5  12  -1    5.48    0.29
   5  12  -1    4.75    0.27
   5  12  -1    5.16    0.29
   4  12  -1    1.35    0.16
   4  12  -1    1.63    0.19
   4  12  -1    1.51    0.18
   3  12  -1    1.38    0.18
   3  12  -1    1.12    0.16
   3  12  -1    1.07    0.18
   2  12  -1   15.09    0.62
   2  12  -1   14.84    0.61
   1  12  -1    0.20    0.12
   0  12  -1    0.49    0.12
   0  12  -1    0.67    0.15
   0  12  -1    0.81    0.21
  -1  12  -1   53.28    1.96
  -1  12  -1   51.21    1.94
  -1  12  -1   53.02    1.95
  -2  12  -1    1.60    0.16
  -2  12  -1    1.01    0.17
  -2  12  -1    1.30    0.17
  -3  12  -1   -0.02    0.09
  -3  12  -1    0.02    0.08
  -3  12  -1    0.14    0.09
  -4  12  -1    0.02    0.08
  -4  12  -1    0.02    0.08
  -4  12  -1    0.03    0.09
  -5  12  -1    3.88    0.21
  -5  12  -1    3.59    0.22
  -5  12  -1    2.86    0.22
  -6  12  -1   -0.04    0.09
  -6  12  -1   -0.05    0.09
  -7  12  -1    3.42    0.22
  -7  12  -1    3.36    0.21
  -7  12  -1    3.09    0.20
  -8  12  -1    0.95    0.13
  -8  12  -1    0.97    0.15
  -9  12  -1   -0.03    0.08
  -9  12  -1    0.07    0.07
 -10  12  -1    2.68    0.17
  10 -12   1    2.74    0.15
  11 -12   1    1.60    0.10
   9  11  -1    0.00    0.05
  -9 -11   1    0.01    0.05
   8  11  -1    0.17    0.08
   8  11  -1    0.05    0.09
   8  11  -1    0.07    0.06
   7  11  -1    2.12    0.18
   7  11  -1    1.84    0.18
   7  11  -1    2.02    0.15
   6  11  -1    5.29    0.29
   6  11  -1    5.23    0.27
   6  11  -1    5.23    0.29
   5  11  -1    1.80    0.20
   5  11  -1    2.42    0.20
   5  11  -1    2.40    0.18
   4  11  -1    0.74    0.16
   4  11  -1    1.05    0.18
   4  11  -1    0.85    0.15
   4  11  -1    0.74    0.17
   3  11  -1   14.81    0.61
   3  11  -1   14.25    0.60
   3  11  -1   14.65    0.61
   3  11  -1   14.65    0.66
   2  11  -1   68.64    2.60
   2  11  -1   71.95    2.61
   2  11  -1   68.68    2.59
   2  11  -1   73.99    2.61
   1  11  -1    0.14    0.12
   1  11  -1    0.03    0.10
   1  11  -1    0.08    0.09
   0  11  -1    1.51    0.19
   0  11  -1    1.44    0.23
   0  11  -1    1.37    0.17
  -1  11  -1  105.41    3.70
  -1  11  -1  103.16    3.69
  -1  11  -1   95.79    3.70
  -2  11  -1    0.04    0.10
  -2  11  -1    0.23    0.09
  -2  11  -1    0.13    0.09
  -3  11  -1    0.51    0.10
  -3  11  -1    0.32    0.12
  -3  11  -1    0.32    0.08
  -4  11  -1   12.98    0.52
  -4  11  -1   12.85    0.53
  -4  11  -1   12.49    0.54
  -5  11  -1    7.77    0.37
  -5  11  -1    9.06    0.46
  -6  11  -1    2.23    0.19
  -6  11  -1    2.34    0.19
  -6  11  -1    2.06    0.17
  -7  11  -1    1.65    0.15
  -7  11  -1    1.48    0.17
  -7  11  -1    1.66    0.17
  -8  11  -1    2.95    0.20
  -8  11  -1    2.63    0.19
  -9  11  -1    1.50    0.15
  10 -11   1   -0.01    0.05
  11 -11   1    3.07    0.15
 -10 -10   1    0.12    0.04
   9  10  -1   -0.08    0.05
   9  10  -1   -0.03    0.10
  -9 -10   1   -0.03    0.05
   8  10  -1   -0.02    0.06
   8  10  -1    0.04    0.09
   8  10  -1   -0.09    0.08
   7  10  -1    0.13    0.08
   7  10  -1    0.22    0.09
   7  10  -1    0.30    0.10
   6  10  -1    5.49    0.31
   6  10  -1    5.91    0.32
   6  10  -1    6.20    0.30
   5  10  -1   12.10    0.51
   5  10  -1   12.44    0.53
   5  10  -1   11.47    0.50
   5  10  -1   12.45    0.53
   4  10  -1    0.22    0.11
   4  10  -1    0.44    0.10
   4  10  -1    0.14    0.15
   4  10  -1    0.43    0.15
   3  10  -1    5.19    0.27
   3  10  -1    5.46    0.28
   3  10  -1    5.08    0.29
   3  10  -1    5.11    0.29
   2  10  -1    1.39    0.20
   2  10  -1    1.38    0.19
   2  10  -1    1.58    0.16
   2  10  -1    1.17    0.16
   1  10  -1    0.64    0.12
   1  10  -1    0.61    0.12
   1  10  -1    0.64    0.14
   0  10  -1   -0.05    0.10
   0  10  -1    0.11    0.10
  -1  10  -1    0.66    0.11
  -1  10  -1    0.60    0.13
  -1  10  -1    0.77    0.17
  -2  10  -1    3.34    0.22
  -2  10  -1    3.34    0.23
  -2  10  -1    3.46    0.19
  -3  10  -1    0.91    0.17
  -3  10  -1    0.86    0.12
  -3  10  -1    0.77    0.13
  -4  10  -1    0.17    0.10
  -4  10  -1    0.34    0.09
  -4  10  -1    0.44    0.10
  -5  10  -1    3.72    0.25
  -5  10  -1    4.31    0.24
  -5  10  -1    4.12    0.22
  -6  10  -1    2.93    0.23
  -6  10  -1    2.64    0.18
  -6  10  -1    2.74    0.20
  -7  10  -1    8.25    0.36
  -7  10  -1    7.69    0.36
  -7  10  -1    7.44    0.37
  -8  10  -1    0.74    0.13
  -8  10  -1    0.76    0.15
  -9  10  -1    0.32    0.10
  -9  10  -1    0.23    0.08
 -10  10  -1   11.04    0.47
  10 -10   1   11.46    0.46
 -11  10  -1    4.56    0.26
  11 -10   1    4.91    0.22
  12 -10   1    0.21    0.05
  10   9  -1    0.11    0.05
 -10  -9   1    0.17    0.06
   9   9  -1    1.86    0.17
   9   9  -1    1.51    0.19
   9   9  -1    1.92    0.14
   8   9  -1    0.31    0.10
   8   9  -1    0.40    0.10
   7   9  -1    0.40    0.09
   7   9  -1    0.50    0.12
   7   9  -1    0.42    0.11
   6   9  -1    6.74    0.34
   6   9  -1    6.94    0.33
   6   9  -1    6.66    0.32
   6   9  -1    6.66    0.35
   5   9  -1   26.17    0.99
   5   9  -1   24.39    0.98
   5   9  -1   25.05    0.97
   5   9  -1   24.92    0.96
   4   9  -1    0.17    0.09
   4   9  -1    0.51    0.10
   4   9  -1    0.52    0.13
   4   9  -1    0.42    0.11
   3   9  -1    1.68    0.19
   3   9  -1    1.03    0.19
   3   9  -1    1.08    0.20
   3   9  -1    1.60    0.17
   2   9  -1   73.08    2.71
   2   9  -1   75.70    2.72
   2   9  -1   73.73    2.72
  -1   9  -1    2.20    0.16
  -2   9  -1    0.09    0.06
  -3   9  -1    3.78    0.19
  -4   9  -1   -0.06    0.09
  -4   9  -1    0.03    0.10
  -4   9  -1   -0.01    0.06
  -5   9  -1    0.39    0.10
  -5   9  -1    0.49    0.10
  -5   9  -1    0.62    0.16
  -6   9  -1    3.33    0.19
  -6   9  -1    2.76    0.21
  -6   9  -1    2.90    0.22
  -7   9  -1   16.61    0.67
  -7   9  -1   16.47    0.66
  -7   9  -1   16.60    0.67
  -8   9  -1    1.84    0.19
  -9   9  -1    0.90    0.17
  -9   9  -1    1.04    0.14
 -10   9  -1    1.51    0.16
  10  -9   1    1.33    0.13
 -11   9  -1    4.51    0.27
  11  -9   1    5.00    0.22
  12  -9   1    0.07    0.05
  10   8  -1    0.56    0.10
 -10  -8   1    0.60    0.09
   9   8  -1    7.01    0.36
   9   8  -1    7.46    0.35
   9   8  -1    7.93    0.34
   8   8  -1   11.72    0.50
   8   8  -1   11.39    0.48
   8   8  -1   11.23    0.50
   7   8  -1    4.37    0.27
   7   8  -1    4.49    0.28
   7   8  -1    4.62    0.26
   6   8  -1    2.78    0.19
   6   8  -1    2.71    0.22
   6   8  -1    2.65    0.22
   6   8  -1    2.41    0.20
   5   8  -1   17.42    0.69
   5   8  -1   17.13    0.71
   5   8  -1   17.67    0.71
   5   8  -1   17.29    0.68
   4   8  -1    0.33    0.12
   4   8  -1    0.29    0.10
   4   8  -1    0.31    0.11
   4   8  -1    0.39    0.12
   3   8  -1    8.68    0.40
   3   8  -1    8.52    0.41
   3   8  -1    9.32    0.42
  -3  -8   1    8.84    0.36
  -2  -8   1    0.29    0.05
  -1  -8   1    1.85    0.09
  -1  -8   1    1.87    0.10
  -1   8  -1    1.53    0.13
  -2   8  -1   -0.02    0.06
  -3   8  -1    0.66    0.10
   3  -8   1    0.77    0.06
  -4   8  -1   73.95    2.72
  -5   8  -1   13.30    0.51
  -5   8  -1   12.45    0.52
  -5   8  -1   12.04    0.53
  -6   8  -1    3.59    0.20
  -6   8  -1    3.66    0.22
  -6   8  -1    3.71    0.24
  -7   8  -1    0.13    0.07
  -7   8  -1    0.13    0.13
  -8   8  -1   34.85    1.27
  -8   8  -1   32.01    1.27
  -9   8  -1    0.30    0.09
  -9   8  -1    0.19    0.10
 -10   8  -1    3.97    0.25
  10  -8   1    4.79    0.24
 -11   8  -1    5.34    0.35
  11  -8   1    5.09    0.24
  11   7  -1    0.38    0.08
 -11  -7   1    0.40    0.09
  10   7  -1    0.11    0.06
  10   7  -1    0.22    0.11
 -10  -7   1    0.21    0.06
   9   7  -1    3.35    0.23
   8   7  -1    5.79    0.31
   8   7  -1    5.50    0.29
   8   7  -1    5.68    0.31
   7   7  -1    0.19    0.08
   7   7  -1    0.08    0.11
   7   7  -1    0.41    0.12
   7   7  -1    0.10    0.09
   6   7  -1    0.23    0.11
   6   7  -1    0.35    0.11
   5   7  -1    2.53    0.19
   5   7  -1    2.41    0.20
   5   7  -1    2.68    0.22
   5   7  -1    2.53    0.23
   4   7  -1    1.90    0.21
   4   7  -1    2.12    0.19
   4   7  -1    1.89    0.19
   4   7  -1    2.08    0.22
  -4  -7   1    2.02    0.16
   3   7  -1    1.45    0.13
  -3  -7   1    1.46    0.11
   2   7  -1    1.80    0.10
  -2  -7   1    1.83    0.10
  -1  -7   1    0.09    0.02
   0  -7   1    0.09    0.02
   0  -7   1    0.05    0.02
   1  -7   1   19.93    0.72
  -2   7  -1    0.10    0.06
   2  -7   1    0.08    0.02
  -3   7  -1    0.09    0.03
  -3   7  -1    0.02    0.05
   3  -7   1    0.06    0.03
  -4   7  -1    1.81    0.12
  -4   7  -1    1.72    0.11
   4  -7   1    1.69    0.11
  -5   7  -1   11.96    0.47
  -5   7  -1   11.62    0.47
  -6   7  -1    0.80    0.11
  -6   7  -1    0.87    0.16
  -6   7  -1    0.83    0.18
  -7   7  -1    0.24    0.10
  -7   7  -1   -0.06    0.06
  -8   7  -1    3.60    0.25
  -8   7  -1    3.75    0.22
  -9   7  -1   -0.02    0.08
  -9   7  -1   -0.14    0.09
   9  -7   1    0.01    0.07
 -10   7  -1    0.32    0.11
  10  -7   1    0.56    0.12
  11  -7   1    0.07    0.06
  12  -7   1    0.06    0.05
  12  -7   1   -0.06    0.10
  11   6  -1    3.08    0.16
 -11  -6   1    3.14    0.16
  10   6  -1    0.51    0.11
  10   6  -1    0.65    0.17
   9   6  -1    5.56    0.33
   9   6  -1    5.87    0.28
   8   6  -1    0.03    0.08
   8   6  -1    0.13    0.14
   8   6  -1    0.07    0.11
   7   6  -1   21.94    0.86
   7   6  -1   20.33    0.85
   7   6  -1   21.80    0.84
   7   6  -1   22.06    0.84
   6   6  -1   10.10    0.46
   6   6  -1   10.37    0.44
   6   6  -1   10.13    0.46
   6   6  -1   10.11    0.43
   5   6  -1    9.67    0.41
   5   6  -1    8.94    0.44
   5   6  -1    9.66    0.41
   5   6  -1    9.68    0.44
  -4  -6   1    0.43    0.10
   3   6  -1   46.07    1.58
  -3  -6   1   40.47    1.60
   2   6  -1    0.36    0.05
  -2  -6   1    0.38    0.05
  -1  -6   1    0.39    0.04
   0  -6   1    0.97    0.05
   0  -6   1    0.97    0.05
   1  -6   1  199.86    7.04
   1  -6   1  191.80    7.04
   2  -6   1    0.11    0.03
  -3   6  -1    1.53    0.11
  -3   6  -1    1.57    0.08
   3  -6   1    1.58    0.08
  -4   6  -1   34.88    1.29
  -4   6  -1   35.03    1.27
   4  -6   1   34.83    1.27
  -5   6  -1   17.02    0.63
  -5   6  -1   16.63    0.62
   5  -6   1   14.99    0.62
  -6   6  -1    2.47    0.21
  -6   6  -1    2.53    0.15
  -6   6  -1    2.13    0.22
  -6   6  -1    2.42    0.21
  -7   6  -1    7.77    0.35
  -7   6  -1    8.18    0.38
  -8   6  -1    9.70    0.42
  -8   6  -1    9.74    0.44
  -9   6  -1    2.86    0.21
   9  -6   1    3.06    0.20
 -10   6  -1    2.01    0.21
  10  -6   1    2.23    0.17
  11  -6   1    0.49    0.10
  11  -6   1    0.22    0.09
  12  -6   1    0.03    0.05
  12  -6   1    0.08    0.09
  11   5  -1    0.85    0.10
  10   5  -1    0.10    0.10
  10   5  -1    0.23    0.07
   9   5  -1    2.27    0.17
   9   5  -1    1.77    0.21
   8   5  -1   33.37    1.23
   8   5  -1   31.42    1.21
   8   5  -1   30.93    1.22
   7   5  -1    0.44    0.15
   7   5  -1    0.60    0.14
   7   5  -1    0.61    0.13
   7   5  -1    0.83    0.15
   6   5  -1    7.57    0.39
   6   5  -1    7.81    0.39
   6   5  -1    8.18    0.36
   6   5  -1    8.35    0.37
   5   5  -1   -0.02    0.09
   5   5  -1    0.10    0.10
  -5  -5   1    0.19    0.07
   4   5  -1    5.95    0.27
  -4  -5   1    6.35    0.26
   3   5  -1    0.49    0.07
  -3  -5   1    0.40    0.05
   2   5  -1   54.42    1.94
  -2  -5   1   52.91    1.94
   1   5  -1    2.80    0.11
  -1  -5   1    2.75    0.11
   0  -5   1    0.02    0.01
   0  -5   1    0.03    0.01
   1  -5   1  108.21    3.89
  -2   5  -1    1.09    0.05
   2  -5   1    1.00    0.05
  -3   5  -1    0.11    0.02
  -3   5  -1    0.00    0.05
   3  -5   1    0.18    0.04
  -4   5  -1  146.48    5.22
  -4   5  -1  143.92    5.23
   4  -5   1  144.74    5.22
  -5   5  -1    1.31    0.11
  -5   5  -1    1.21    0.11
   5  -5   1    1.19    0.12
  -6   5  -1    0.57    0.10
  -6   5  -1    0.26    0.12
  -6   5  -1    0.24    0.08
  -7   5  -1    0.21    0.11
  -7   5  -1    0.31    0.08
  -8   5  -1    4.30    0.29
  -8   5  -1    4.31    0.23
   8  -5   1    3.79    0.23
  -9   5  -1    0.44    0.11
   9  -5   1    0.39    0.08
  10  -5   1    1.56    0.15
  11  -5   1    1.35    0.12
  11  -5   1    1.33    0.16
  12  -5   1    1.98    0.17
  12  -5   1    2.01    0.12
  12   4  -1    1.50    0.10
  11   4  -1    3.45    0.18
 -11  -4   1    3.16    0.19
  10   4  -1    0.04    0.10
   9   4  -1    0.57    0.13
   9   4  -1    0.67    0.14
   8   4  -1    6.94    0.33
   8   4  -1    6.79    0.33
   8   4  -1    6.80    0.35
   7   4  -1    0.05    0.08
   7   4  -1    0.06    0.16
   7   4  -1   -0.06    0.11
   7   4  -1    0.23    0.08
   6   4  -1    3.35    0.21
   6   4  -1    2.95    0.32
   6   4  -1    3.03    0.26
   6   4  -1    3.47    0.22
  -5  -4   1   11.15    0.44
   4   4  -1   11.63    0.45
  -4  -4   1   11.47    0.44
   3   4  -1    1.38    0.08
  -3  -4   1    1.43    0.08
   2   4  -1   43.91    1.54
  -2  -4   1   41.17    1.54
   1   4  -1    5.25    0.19
  -1  -4   1    5.01    0.19
   0  -4   1    2.14    0.08
   0  -4   1    2.02    0.08
   1  -4   1   39.25    1.41
  -2   4  -1    0.21    0.02
   2  -4   1    0.21    0.02
  -3   4  -1    1.33    0.07
   3  -4   1    1.41    0.07
  -4   4  -1    5.75    0.25
  -4   4  -1    6.16    0.24
   4  -4   1    5.78    0.24
  -5   4  -1    0.08    0.06
  -5   4  -1    0.02    0.04
   5  -4   1    0.00    0.05
  -6   4  -1    1.45    0.12
  -6   4  -1    1.60    0.15
  -7   4  -1    2.34    0.23
  -7   4  -1    2.63    0.17
  -8   4  -1   -0.02    0.09
  -9   4  -1   -0.04    0.11
   9  -4   1   -0.04    0.08
  10  -4   1   -0.05    0.07
  11  -4   1   10.19    0.41
  11  -4   1    9.72    0.43
  12  -4   1    0.09    0.09
  12  -4   1    0.12    0.05
  12   3  -1   25.82    1.00
  11   3  -1    1.43    0.19
  11   3  -1    1.15    0.12
  10   3  -1    0.20    0.12
  10   3  -1    0.02    0.07
   9   3  -1   10.92    0.46
   9   3  -1   10.80    0.48
   8   3  -1    7.51    0.34
   8   3  -1    7.12    0.34
   8   3  -1    7.54    0.37
   7   3  -1    1.88    0.22
   7   3  -1    2.61    0.18
   7   3  -1    2.18    0.19
   6   3  -1    8.33    0.37
   6   3  -1    8.26    0.37
  -5  -3   1    0.17    0.05
   4   3  -1    0.15    0.04
  -4  -3   1    0.16    0.03
   3   3  -1    2.40    0.11
  -3  -3   1    2.36    0.11
   2   3  -1    5.69    0.21
  -2  -3   1    5.46    0.21
   1   3  -1    1.13    0.05
  -1  -3   1    1.06    0.05
   0  -3   1    0.22    0.02
  -2   3  -1    0.18    0.02
   2  -3   1    0.19    0.02
  -3   3  -1    2.95    0.13
   3  -3   1    3.14    0.13
  -4   3  -1   81.17    2.99
   4  -3   1   84.36    2.99
  -5   3  -1    6.11    0.24
  -5   3  -1    5.65    0.25
   5  -3   1    5.27    0.24
  -6   3  -1    0.29    0.07
  -6   3  -1    0.36    0.08
  -7   3  -1    0.28    0.09
  -7   3  -1    0.38    0.12
   7  -3   1    0.22    0.08
  -8   3  -1   15.04    0.60
   8  -3   1   15.07    0.61
   9  -3   1    1.77    0.16
  10  -3   1    0.29    0.08
  10  -3   1    0.44    0.10
  11  -3   1   11.65    0.50
  11  -3   1   12.80    0.50
  12  -3   1    0.65    0.15
  12  -3   1    0.61    0.10
  12   2  -1    0.62    0.09
  11   2  -1    1.55    0.13
  11   2  -1    1.52    0.20
  10   2  -1    1.92    0.17
  10   2  -1    2.27    0.21
   9   2  -1    2.09    0.18
   9   2  -1    2.36    0.22
   8   2  -1    7.87    0.36
   8   2  -1    7.42    0.35
   7   2  -1    1.72    0.16
   7   2  -1    1.62    0.21
   7   2  -1    1.82    0.19
   6   2  -1    1.97    0.19
  -5  -2   1  188.00    6.77
   4   2  -1    0.73    0.06
   3   2  -1   34.52    1.21
  -3  -2   1   32.25    1.21
   2   2  -1  177.14    6.10
  -2  -2   1  160.72    6.10
   1   2  -1    1.12    0.05
  -1  -2   1    1.11    0.05
  -1   2  -1   16.69    0.62
   1  -2   1   17.58    0.62
  -2   2  -1    2.69    0.11
   2  -2   1    2.83    0.11
  -3   2  -1    0.02    0.01
   3  -2   1    0.04    0.02
  -4   2  -1   68.29    2.51
   4  -2   1   70.44    2.51
  -5   2  -1    0.44    0.11
  -5   2  -1    0.40    0.07
   5  -2   1    0.23    0.05
  -6   2  -1    0.69    0.11
  -6   2  -1    0.82    0.13
  -7   2  -1   47.84    1.74
   7  -2   1   46.36    1.74
   8  -2   1   -0.04    0.08
   9  -2   1    1.18    0.15
  10  -2   1    2.43    0.19
  10  -2   1    2.13    0.17
  11  -2   1    0.27    0.09
  11  -2   1    0.22    0.06
  12  -2   1    0.00    0.10
  12  -2   1    0.08    0.06
  12   1  -1    9.78    0.39
  11   1  -1    3.30    0.23
  11   1  -1    2.76    0.18
  10   1  -1    0.01    0.07
  10   1  -1   -0.04    0.11
   9   1  -1    1.54    0.20
   9   1  -1    1.26    0.15
   8   1  -1   67.71    2.49
   7   1  -1    2.62    0.22
   7   1  -1    1.93    0.17
   7   1  -1    1.88    0.22
  -6  -1   1   11.24    0.45
   5   1  -1   13.55    0.55
  -5  -1   1   15.24    0.55
   4   1  -1    8.97    0.35
  -4  -1   1    9.47    0.35
   3   1  -1   30.74    1.12
  -3  -1   1   30.67    1.12
   2   1  -1  275.84    9.75
  -2  -1   1  265.39    9.74
   1   1  -1    0.02    0.01
  -1  -1   1    0.02    0.01
   0  -1   1    0.01    0.00
  -1   1  -1   11.81    0.45
   1  -1   1   12.91    0.45
  -2   1  -1    6.80    0.27
   2  -1   1    7.61    0.27
  -3   1  -1    0.35    0.03
  -4   1  -1  202.11    7.24
   4  -1   1  200.60    7.24
  -5   1  -1   11.31    0.42
   5  -1   1   10.07    0.42
  -6   1  -1    0.83    0.11
  -6   1  -1    0.55    0.15
   7  -1   1    3.95    0.23
   8  -1   1   17.12    0.70
   9  -1   1    1.14    0.17
   9  -1   1    0.63    0.14
  10  -1   1    0.86    0.16
  10  -1   1    0.57    0.13
  11  -1   1    0.78    0.15
  11  -1   1    0.69    0.12
  12  -1   1    0.19    0.06
  12  -1   1    0.10    0.10
  12   0  -1   -0.04    0.05
  11   0  -1    0.12    0.07
  11   0  -1    0.24    0.11
  10   0  -1    0.60    0.12
  10   0  -1    0.79    0.19
   9   0  -1    0.83    0.14
   9   0  -1    0.69    0.14
   8   0  -1   36.87    1.37
   8   0  -1   36.24    1.38
   7   0  -1    3.28    0.20
  -6   0   1    5.99    0.27
   5   0  -1    0.38    0.07
  -5   0   1    0.38    0.06
   4   0  -1    3.48    0.15
  -4   0   1    3.45    0.15
   3   0  -1    4.27    0.17
  -3   0   1    4.13    0.17
   2   0  -1  464.45   16.68
  -2   0   1  463.53   16.68
   1   0  -1    0.44    0.02
  -1   0   1    0.45    0.02
  -1   0  -1   21.43    0.81
   1   0   1   23.65    0.81
  -2   0  -1    3.28    0.13
   2   0   1    3.20    0.13
  -3   0  -1   19.03    0.71
   3   0   1   19.55    0.71
  -4   0  -1   62.15    2.26
   4   0   1   62.59    2.26
  -5   0  -1   11.85    0.46
  -6   0  -1    6.94    0.31
   7   0   1   64.90    2.38
   8   0   1   28.03    1.15
   9   0   1    0.12    0.09
   9   0   1    0.05    0.08
  10   0   1    0.14    0.10
  10   0   1    0.30    0.08
  11   0   1   16.47    0.67
  11   0   1   17.64    0.67
  12   0   1    0.44    0.13
  12   0   1    0.20    0.06
  12  -1  -1    1.78    0.13
  11  -1  -1    0.03    0.06
  11  -1  -1    0.15    0.11
  10  -1  -1    0.86    0.13
  10  -1  -1    0.82    0.18
   9  -1  -1    3.68    0.26
   9  -1  -1    3.52    0.21
   8  -1  -1    1.92    0.16
   7  -1  -1    0.26    0.08
  -6   1   1    1.06    0.14
  -6   1   1    0.79    0.10
   5  -1  -1   17.33    0.67
  -5   1   1   18.37    0.67
   4  -1  -1    5.57    0.22
  -4   1   1    5.35    0.22
   3  -1  -1    0.27    0.03
  -3   1   1    0.22    0.03
   2  -1  -1   35.02    1.25
  -2   1   1   34.37    1.25
   1  -1  -1    0.41    0.02
  -1   1   1    0.39    0.02
   0  -1  -1    0.32    0.01
   0   1   1    0.30    0.01
  -1  -1  -1   49.12    1.91
   1   1   1   57.06    1.92
  -2  -1  -1    0.01    0.01
   2   1   1    0.02    0.01
  -3  -1  -1    0.08    0.02
   3   1   1    0.03    0.02
  -4  -1  -1   24.01    0.89
   4   1   1   23.96    0.89
  -5  -1  -1   14.22    0.54
   7   1   1    2.38    0.21
   7   1   1    2.12    0.18
   8   1   1   46.19    1.72
   8   1   1   46.15    1.73
   9   1   1    0.07    0.07
   9   1   1   -0.06    0.09
  10   1   1    0.96    0.14
  10   1   1    0.79    0.16
  11   1   1    2.01    0.18
  11   1   1    2.45    0.15
  13  -2  -1    0.06    0.05
  12  -2  -1   16.12    0.62
  11  -2  -1    2.30    0.16
  11  -2  -1    2.28    0.21
  10  -2  -1    0.86    0.13
  10  -2  -1    0.66    0.12
   9  -2  -1   24.86    0.96
   8  -2  -1    7.74    0.34
  -8   2   1    7.05    0.37
   7  -2  -1    0.61    0.14
  -7   2   1    0.70    0.14
  -6   2   1    2.73    0.16
  -6   2   1    2.28    0.15
   5  -2  -1   47.20    1.72
  -5   2   1   50.32    1.72
  -5   2   1   43.93    1.72
   4  -2  -1   15.85    0.60
  -4   2   1   16.59    0.60
   3  -2  -1    0.37    0.03
  -3   2   1    0.35    0.03
   2  -2  -1   10.58    0.37
  -2   2   1    9.89    0.37
   1  -2  -1    1.56    0.06
  -1   2   1    1.44    0.06
   0  -2  -1    0.22    0.01
   0   2   1    0.23    0.01
  -1  -2  -1   11.39    0.44
   1   2   1   12.58    0.44
  -2  -2  -1    5.06    0.20
   2   2   1    5.56    0.20
  -3  -2  -1    0.42    0.04
   3   2   1    0.62    0.05
  -4  -2  -1   11.29    0.43
   4   2   1   11.05    0.43
  -5  -2  -1    1.96    0.12
   6   2   1    0.04    0.09
   6   2   1    0.13    0.12
   6   2   1   -0.24    0.10
   7   2   1   64.78    2.39
   7   2   1   65.07    2.39
   8   2   1    1.94    0.19
   8   2   1    1.70    0.16
   9   2   1    0.68    0.14
   9   2   1    0.85    0.16
 -10  -2  -1    1.04    0.17
  10   2   1    0.84    0.13
  11   2   1    8.24    0.37
  11   2   1    8.59    0.36
  12   2   1    0.11    0.06
  13  -3  -1    0.44    0.08
  12  -3  -1    0.09    0.05
  11  -3  -1    2.58    0.21
  11  -3  -1    2.52    0.17
  10  -3  -1    0.69    0.13
  10  -3  -1    1.02    0.18
   9  -3  -1    0.10    0.08
   8  -3  -1    0.04    0.08
  -8   3   1    0.33    0.10
  -7   3   1    1.27    0.13
  -7   3   1    1.20    0.22
  -6   3   1    1.91    0.13
  -6   3   1    1.70    0.13
   5  -3  -1   32.28    1.20
  -5   3   1   32.11    1.20
  -5   3   1   33.23    1.19
   4  -3  -1    0.22    0.04
  -4   3   1    0.23    0.04
   3  -3  -1    1.58    0.07
  -3   3   1    1.53    0.07
   2  -3  -1  131.51    4.64
  -2   3   1  126.03    4.64
   0  -3  -1    0.93    0.04
   0   3   1    0.86    0.04
  -1  -3  -1  145.13    5.43
   1   3   1  156.04    5.42
  -2  -3  -1   18.94    0.73
   2   3   1   21.08    0.73
  -3  -3  -1    2.86    0.13
   3   3   1    3.01    0.13
  -4  -3  -1   47.64    1.74
   4   3   1   47.79    1.74
  -5  -3  -1    2.68    0.15
   6   3   1    4.21    0.26
   6   3   1    4.24    0.24
   6   3   1    4.52    0.24
   7   3   1    0.41    0.12
   7   3   1    0.39    0.09
   8   3   1    0.25    0.10
   8   3   1    0.45    0.09
   9   3   1    0.07    0.08
   9   3   1    0.03    0.10
 -10  -3  -1    1.05    0.14
  10   3   1    0.62    0.12
  10   3   1    1.08    0.16
  11   3   1    4.10    0.20
  11   3   1    4.09    0.22
  12   3   1    0.49    0.10
  13  -4  -1    0.11    0.05
  12  -4  -1    2.33    0.14
  11  -4  -1    1.27    0.13
  11  -4  -1    1.30    0.18
  10  -4  -1    2.93    0.19
   9  -4  -1    0.32    0.09
  -9   4   1    0.33    0.11
   8  -4  -1    0.16    0.08
  -8   4   1    0.22    0.09
  -8   4   1    0.19    0.12
  -7   4   1   -0.07    0.14
  -7   4   1    0.13    0.07
  -6   4   1    0.12    0.06
  -6   4   1    0.19    0.07
   5  -4  -1    3.80    0.18
  -5   4   1    4.07    0.17
  -5   4   1    3.66    0.18
   4  -4  -1    0.05    0.03
  -4   4   1    0.07    0.02
  -4   4   1    0.02    0.05
   3  -4  -1    1.63    0.07
  -3   4   1    1.55    0.07
   2  -4  -1   22.95    0.82
  -2   4   1   22.39    0.82
   0  -4  -1    2.82    0.12
   0   4   1    3.46    0.12
  -1  -4  -1    2.50    0.10
   1   4   1    2.79    0.11
  -2  -4  -1    0.53    0.04
   2   4   1    0.59    0.04
  -3  -4  -1    0.48    0.05
   3   4   1    0.49    0.06
  -4  -4  -1    0.57    0.08
   4   4   1    0.83    0.10
  -5  -4  -1    1.96    0.15
   6   4   1    0.10    0.09
   6   4   1    0.20    0.08
   6   4   1    0.21    0.16
   6   4   1    0.12    0.09
   7   4   1   27.42    1.08
   7   4   1   28.96    1.09
   8   4   1   17.41    0.67
   8   4   1   16.03    0.68
   9   4   1    0.95    0.17
   9   4   1    0.82    0.14
 -10  -4  -1    1.97    0.15
  10   4   1    1.82    0.15
  10   4   1    1.73    0.17
 -11  -4  -1    0.95    0.14
  11   4   1    0.93    0.11
  12  -5  -1    1.31    0.11
  11  -5  -1   -0.02    0.10
  11  -5  -1    0.07    0.06
  10  -5  -1    0.06    0.07
 -10   5   1   -0.09    0.11
   9  -5  -1   13.34    0.57
  -9   5   1   14.73    0.58
  -8   5   1   16.45    0.69
  -8   5   1   17.17    0.67
  -7   5   1   -0.01    0.13
  -7   5   1   -0.02    0.06
  -6   5   1    3.55    0.20
   5  -5  -1  331.45   12.28
  -5   5   1  352.84   12.29
  -5   5   1  341.16   12.28
  -4   5   1    0.19    0.05
  -4   5   1    0.26    0.04
   3  -5  -1    1.31    0.07
  -3   5   1    1.49    0.07
   2  -5  -1   37.22    1.33
  -2   5   1   36.69    1.33
  -1  -5  -1   38.25    1.41
   1   5   1   39.70    1.41
  -2  -5  -1    1.75    0.08
   2   5   1    1.79    0.09
  -3  -5  -1   23.68    0.86
   3   5   1   23.03    0.86
  -4  -5  -1    2.80    0.15
  -5  -5  -1    0.18    0.08
   5   5   1    0.15    0.11
   5   5   1    0.25    0.08
   5   5   1    0.33    0.10
   6   5   1    2.35    0.21
   6   5   1    2.08    0.19
   6   5   1    2.73    0.18
   6   5   1    1.84    0.25
   7   5   1   59.52    2.19
   7   5   1   60.32    2.19
   7   5   1   57.16    2.18
   8   5   1    0.44    0.11
   8   5   1    0.63    0.14
   9   5   1    0.66    0.14
   9   5   1    0.48    0.11
 -10  -5  -1    4.87    0.23
  10   5   1    4.78    0.24
  10   5   1    4.99    0.25
 -11  -5  -1   12.95    0.50
  11   5   1   12.23    0.51
  11   5   1   13.66    0.51
  12  -6  -1    3.25    0.16
  11  -6  -1    2.23    0.15
  11  -6  -1    2.02    0.19
  10  -6  -1    0.17    0.07
 -10   6   1    0.00    0.10
   9  -6  -1    5.17    0.27
  -9   6   1    5.87    0.28
  -8   6   1   32.65    1.23
  -7   6   1    0.12    0.12
  -7   6   1    0.05    0.06
  -6   6   1    6.79    0.29
  -6   6   1    7.17    0.39
  -6   6   1    6.07    0.30
  -6   6   1    6.17    0.31
   5  -6  -1   13.08    0.52
  -5   6   1   14.32    0.54
   4  -6  -1    1.08    0.09
  -4   6   1    1.44    0.10
  -4   6   1    1.40    0.08
   3  -6  -1    6.52    0.24
  -3   6   1    5.95    0.26
  -3   6   1    6.31    0.23
  -1  -6  -1   12.23    0.45
   1   6   1   12.21    0.45
  -2  -6  -1    2.76    0.12
   2   6   1    2.85    0.13
  -3  -6  -1    1.01    0.11
   3   6   1    1.01    0.11
  -4  -6  -1    5.09    0.24
   4   6   1    5.16    0.28
   5   6   1   16.57    0.66
   5   6   1   16.23    0.65
   5   6   1   16.76    0.64
   5   6   1   15.41    0.66
   6   6   1    0.49    0.10
   6   6   1    0.38    0.08
   6   6   1    0.30    0.12
   6   6   1    0.33    0.11
   7   6   1    0.16    0.10
   7   6   1   -0.05    0.09
   7   6   1    0.04    0.13
   8   6   1    4.20    0.38
   8   6   1    3.04    0.23
   8   6   1    3.29    0.21
   9   6   1    2.94    0.21
 -10  -6  -1    0.30    0.07
  10   6   1    0.51    0.11
  10   6   1    0.39    0.09
 -11  -6  -1    0.15    0.07
  11   6   1    0.25    0.06
  12  -7  -1    3.62    0.17
  11  -7  -1    2.41    0.15
  10  -7  -1    2.52    0.17
 -10   7   1    2.15    0.19
   9  -7  -1   11.92    0.48
  -9   7   1   11.01    0.48
  -9   7   1   11.60    0.50
  -8   7   1    9.41    0.42
  -8   7   1    8.39    0.39
  -7   7   1   -0.14    0.10
  -7   7   1   -0.02    0.06
  -6   7   1    4.25    0.27
  -6   7   1    4.55    0.22
  -6   7   1    4.70    0.25
  -5   7   1    0.52    0.09
   4  -7  -1    0.28    0.07
  -4   7   1    0.55    0.08
  -4   7   1    0.41    0.06
  -3   7   1    0.17    0.05
  -2   7   1   76.59    2.78
  -1  -7  -1    8.68    0.32
  -2  -7  -1    0.06    0.03
   2   7   1    0.02    0.04
  -3  -7  -1    4.71    0.21
  -4  -7  -1    5.99    0.30
   4   7   1    6.63    0.33
   4   7   1    6.47    0.30
   4   7   1    6.40    0.33
   4   7   1    6.14    0.32
   5   7   1    4.01    0.26
   5   7   1    4.68    0.24
   5   7   1    4.74    0.27
   5   7   1    4.54    0.28
   6   7   1    2.73    0.29
   6   7   1    3.04    0.23
   6   7   1    2.89    0.21
   7   7   1   20.95    0.86
   7   7   1   22.51    0.87
   7   7   1   22.18    0.87
   8   7   1    8.47    0.36
   8   7   1    8.00    0.38
   8   7   1    7.38    0.39
   9   7   1    0.20    0.09
   9   7   1    0.22    0.08
 -10  -7  -1    1.82    0.12
  10   7   1    1.84    0.16
  10   7   1    1.83    0.13
  12  -8  -1    3.64    0.17
  11  -8  -1    3.02    0.17
 -11   8   1    2.86    0.23
  10  -8  -1    1.13    0.13
 -10   8   1    0.70    0.15
  -9   8   1    1.61    0.16
  -9   8   1    1.25    0.20
  -8   8   1    9.49    0.43
  -8   8   1    9.03    0.40
  -7   8   1    0.26    0.12
  -7   8   1    0.03    0.07
  -6   8   1    9.33    0.39
  -6   8   1    9.28    0.42
  -6   8   1    9.21    0.41
  -5   8   1   76.12    2.81
  -5   8   1   76.32    2.79
  -5   8   1   77.52    2.80
  -4   8   1   -0.11    0.05
  -3   8   1    3.15    0.16
  -2   8   1  356.58   12.81
  -1   8   1    0.10    0.06
  -1  -8  -1   60.36    2.17
  -2  -8  -1    6.96    0.28
   3   8   1    0.71    0.17
   3   8   1    0.88    0.18
   3   8   1    0.86    0.18
   3   8   1    0.86    0.18
   4   8   1    2.09    0.20
   4   8   1    1.79    0.17
   4   8   1    1.93    0.20
   4   8   1    1.94    0.19
   5   8   1   14.28    0.58
   5   8   1   13.63    0.58
   5   8   1   12.86    0.59
   5   8   1   14.23    0.57
   6   8   1    1.10    0.18
   6   8   1    1.19    0.17
   6   8   1    1.03    0.17
   7   8   1    1.73    0.17
   7   8   1    1.31    0.18
   7   8   1    1.66    0.20
   8   8   1    0.63    0.13
   8   8   1    0.61    0.16
   8   8   1    0.30    0.14
  -9  -8  -1    1.15    0.11
   9   8   1    0.95    0.12
   9   8   1    1.16    0.15
 -10  -8  -1    6.10    0.26
  10   8   1    6.01    0.26
  10   8   1    6.07    0.28
  12  -9  -1    0.15    0.05
  11  -9  -1   -0.02    0.05
 -11   9   1    0.09    0.11
 -10   9   1    0.01    0.08
  -9   9   1    0.71    0.13
  -9   9   1    0.38    0.12
  -8   9   1   35.73    1.32
  -8   9   1   33.61    1.32
  -7   9   1   -0.01    0.09
  -7   9   1   -0.24    0.10
  -6   9   1    0.66    0.11
  -6   9   1    0.56    0.11
  -6   9   1    0.65    0.12
  -5   9   1    0.31    0.12
  -5   9   1    0.23    0.07
  -5   9   1    0.15    0.09
  -4   9   1    0.06    0.06
  -4   9   1    0.13    0.11
  -4   9   1   -0.06    0.09
  -3   9   1    0.01    0.06
  -2   9   1    0.27    0.07
  -1   9   1    0.05    0.08
   1   9   1    3.09    0.25
   1   9   1    2.72    0.22
   2   9   1    0.09    0.11
   2   9   1    0.06    0.08
   2   9   1   -0.07    0.11
   2   9   1    0.08    0.12
   3   9   1    0.46    0.12
   3   9   1    0.53    0.11
   3   9   1    0.43    0.10
   3   9   1    0.45    0.11
   4   9   1   24.70    0.93
   4   9   1   23.82    0.94
   4   9   1   24.48    0.95
   4   9   1   24.28    0.95
   5   9   1    0.23    0.09
   5   9   1    0.27    0.10
   5   9   1    0.46    0.11
   6   9   1    0.37    0.11
   6   9   1    0.42    0.11
   6   9   1    0.32    0.09
   7   9   1    0.20    0.10
   7   9   1   -0.03    0.10
   7   9   1   -0.02    0.08
   8   9   1    1.35    0.14
   8   9   1    1.15    0.17
   8   9   1    1.17    0.15
  -9  -9  -1    0.11    0.05
   9   9   1    0.00    0.08
   9   9   1    0.04    0.06
 -10  -9  -1    0.06    0.04
  10   9   1   -0.01    0.06
  12 -10  -1    0.38    0.07
  11 -10  -1    3.83    0.19
 -11  10   1    3.86    0.23
  10 -10  -1    0.07    0.06
 -10  10   1    0.02    0.08
  -9  10   1   12.79    0.53
  -9  10   1   12.87    0.54
  -8  10   1   11.54    0.48
  -8  10   1   10.06    0.46
  -7  10   1    1.03    0.18
  -7  10   1    1.04    0.15
  -7  10   1    1.03    0.13
  -6  10   1    6.59    0.34
  -6  10   1    6.72    0.36
  -6  10   1    7.35    0.32
  -5  10   1   49.97    1.81
  -5  10   1   47.38    1.81
  -5  10   1   49.10    1.82
  -4  10   1    0.06    0.07
  -4  10   1    0.08    0.11
  -4  10   1    0.13    0.09
  -3  10   1    0.16    0.10
  -3  10   1   -0.02    0.07
  -3  10   1   -0.08    0.11
  -2  10   1    4.69    0.23
  -2  10   1    4.64    0.27
  -2  10   1    4.72    0.26
  -1  10   1    1.43    0.16
  -1  10   1    1.40    0.19
  -1  10   1    1.14    0.18
   0  10   1    0.03    0.10
   0  10   1    0.01    0.13
   0  10   1   -0.01    0.10
   1  10   1   27.46    1.04
   1  10   1   26.71    1.04
   1  10   1   26.59    1.03
   2  10   1   11.88    0.52
   2  10   1   11.88    0.52
   2  10   1   12.28    0.51
   3  10   1    1.84    0.19
   3  10   1    1.65    0.17
   3  10   1    1.83    0.20
   4  10   1    9.98    0.45
   4  10   1    9.54    0.44
   4  10   1    9.29    0.43
   5  10   1    3.59    0.24
   5  10   1    3.30    0.22
   5  10   1    3.39    0.25
   6  10   1    0.90    0.14
   6  10   1    0.96    0.17
   6  10   1    0.87    0.16
   7  10   1    4.76    0.26
  -8 -10  -1    0.10    0.05
   8  10   1    0.07    0.08
   8  10   1   -0.01    0.06
   8  10   1    0.01    0.09
  -9 -10  -1    0.61    0.08
   9  10   1    0.74    0.10
   9  10   1    0.57    0.12
  11 -11  -1   11.49    0.45
 -11  11   1   11.13    0.47
  10 -11  -1    0.02    0.05
 -10  11   1    0.05    0.07
  -9  11   1    1.55    0.15
  -8  11   1    1.66    0.16
  -8  11   1    1.87    0.18
  -7  11   1    0.99    0.16
  -7  11   1    0.63    0.16
  -6  11   1    0.21    0.08
  -6  11   1    0.29    0.10
  -6  11   1    0.33    0.09
  -5  11   1   63.07    2.42
  -5  11   1   68.94    2.46
  -4  11   1    1.02    0.12
  -4  11   1    1.05    0.18
  -4  11   1    1.10    0.17
  -3  11   1    0.09    0.10
  -3  11   1    0.18    0.08
  -3  11   1    0.04    0.09
  -2  11   1    0.15    0.16
  -2  11   1   -0.03    0.10
  -2  11   1    0.02    0.08
  -2  11   1    0.08    0.09
  -1  11   1   -0.06    0.10
  -1  11   1    0.06    0.12
  -1  11   1    0.00    0.11
   0  11   1    0.15    0.09
   0  11   1    0.06    0.12
   0  11   1    0.05    0.10
   1  11   1    5.01    0.29
   1  11   1    5.19    0.27
   1  11   1    4.80    0.28
   2  11   1    7.62    0.37
   2  11   1    7.57    0.37
   2  11   1    7.55    0.36
   3  11   1    3.76    0.24
   3  11   1    3.58    0.23
   3  11   1    3.25    0.24
   4  11   1    0.39    0.11
   4  11   1    0.24    0.09
   4  11   1    0.18    0.09
   5  11   1    5.69    0.30
   5  11   1    5.10    0.29
   5  11   1    5.46    0.29
   6  11   1    0.79    0.15
   6  11   1    0.60    0.13
   6  11   1    0.66    0.15
   7  11   1    0.76    0.14
   7  11   1    0.76    0.13
   7  11   1    0.91    0.14
  -8 -11  -1    3.90    0.19
   8  11   1    4.17    0.20
   8  11   1    3.71    0.20
  -9 -11  -1    1.81    0.11
   9  11   1    1.82    0.12
  11 -12  -1    1.01    0.09
  10 -12  -1   -0.02    0.05
 -10  12   1   -0.06    0.08
  -9  12   1    6.07    0.30
  -9  12   1    6.32    0.30
  -8  12   1    3.85    0.23
  -8  12   1    3.43    0.21
  -7  12   1    0.42    0.10
  -7  12   1    0.39    0.09
  -7  12   1    0.28    0.08
  -6  12   1    1.66    0.20
  -6  12   1    1.65    0.17
  -6  12   1    1.69    0.19
  -5  12   1    4.15    0.26
  -5  12   1    4.06    0.25
  -5  12   1    4.62    0.24
  -4  12   1    0.11    0.08
  -4  12   1   -0.02    0.08
  -4  12   1    0.17    0.10
  -3  12   1    0.68    0.16
  -3  12   1    0.54    0.14
  -3  12   1    0.50    0.12
  -2  12   1   16.65    0.66
  -2  12   1   15.97    0.66
  -2  12   1   16.91    0.67
  -1  12   1    0.65    0.14
  -1  12   1    0.50    0.10
  -1  12   1    0.60    0.12
   0  12   1    0.89    0.19
   0  12   1    0.75    0.17
   0  12   1    0.80    0.15
   1  12   1    1.32    0.17
   1  12   1    1.11    0.20
   1  12   1    1.14    0.17
   2  12   1   11.23    0.49
   2  12   1   11.43    0.50
   2  12   1   11.09    0.50
   3  12   1    2.22    0.20
   3  12   1    1.89    0.18
   3  12   1    1.98    0.20
   4  12   1    6.97    0.35
   4  12   1    7.25    0.36
   4  12   1    6.96    0.34
   5  12   1    2.26    0.19
   5  12   1    2.26    0.18
   5  12   1    2.17    0.19
   6  12   1    0.37    0.09
   6  12   1    0.51    0.13
   6  12   1    0.73    0.13
  -7 -12  -1    0.19    0.06
   7  12   1    0.04    0.08
   7  12   1    0.10    0.07
   7  12   1    0.15    0.06
  -8 -12  -1    0.70    0.08
   8  12   1    0.66    0.11
  11 -13  -1    1.17    0.09
  10 -13  -1    0.06    0.05
 -10  13   1    0.08    0.08
  -9  13   1    0.40    0.09
  -9  13   1    0.49    0.11
  -8  13   1    0.35    0.10
  -8  13   1    0.38    0.09
  -7  13   1    0.88    0.15
  -7  13   1    0.99    0.14
  -7  13   1    0.78    0.14
  -6  13   1    1.87    0.18
  -6  13   1    1.65    0.17
  -6  13   1    1.97    0.17
  -5  13   1    4.73    0.26
  -5  13   1    4.71    0.27
  -4  13   1    0.15    0.10
  -4  13   1    0.16    0.09
  -4  13   1    0.07    0.08
  -3  13   1    0.05    0.08
  -3  13   1    0.02    0.10
  -3  13   1    0.11    0.10
  -2  13   1    5.19    0.27
  -2  13   1    4.46    0.27
  -1  13   1    0.55    0.12
  -1  13   1    0.79    0.14
  -1  13   1    0.42    0.14
   0  13   1    1.37    0.19
   0  13   1    1.40    0.18
   0  13   1    1.41    0.17
   1  13   1    8.45    0.40
   1  13   1    8.36    0.40
   1  13   1    8.37    0.39
   2  13   1    0.02    0.09
   2  13   1    0.07    0.09
   2  13   1    0.04    0.09
   3  13   1    0.17    0.09
   3  13   1    0.09    0.10
   3  13   1    0.19    0.09
   4  13   1    0.08    0.09
   4  13   1    0.15    0.08
   4  13   1    0.08    0.08
   5  13   1    8.23    0.39
   5  13   1    8.99    0.40
   5  13   1    9.18    0.39
  -6 -13  -1    2.35    0.15
   6  13   1    2.32    0.17
   6  13   1    2.38    0.17
   6  13   1    2.52    0.16
  -7 -13  -1    0.45    0.09
   7  13   1    0.55    0.10
   7  13   1    0.47    0.11
  10 -14  -1    0.51    0.08
 -10  14   1    0.53    0.13
  -9  14   1    4.74    0.24
  -9  14   1    4.82    0.24
  -8  14   1    0.81    0.13
  -8  14   1    0.74    0.12
  -7  14   1    0.03    0.08
  -7  14   1    0.13    0.07
  -6  14   1    8.12    0.38
  -6  14   1    8.38    0.38
  -6  14   1    8.69    0.38
  -5  14   1   22.61    0.87
  -5  14   1   22.49    0.86
  -5  14   1   20.70    0.86
  -4  14   1    0.02    0.09
  -4  14   1    0.13    0.09
  -4  14   1    0.09    0.10
  -3  14   1    3.28    0.23
  -3  14   1    3.35    0.31
  -3  14   1    4.28    0.24
  -2  14   1   10.34    0.46
  -2  14   1   10.21    0.45
  -1  14   1    0.19    0.10
  -1  14   1    0.05    0.08
   0  14   1    0.60    0.13
   0  14   1    0.77    0.16
   0  14   1    0.56    0.14
   1  14   1   48.41    1.84
   1  14   1   50.59    1.85
   1  14   1   49.11    1.85
   2  14   1   14.81    0.60
   2  14   1   14.47    0.61
   2  14   1   14.53    0.61
  -3 -14  -1   -0.06    0.10
   3  14   1   -0.14    0.08
   3  14   1    0.04    0.09
   3  14   1    0.04    0.08
  -4 -14  -1    5.23    0.26
   4  14   1    5.50    0.28
   4  14   1    5.36    0.28
   4  14   1    5.60    0.28
  -5 -14  -1    0.09    0.07
   5  14   1    0.08    0.07
   5  14   1    0.02    0.07
   5  14   1    0.08    0.07
  -6 -14  -1    0.31    0.07
   6  14   1    0.38    0.08
   6  14   1    0.44    0.09
  -7 -14  -1    5.71    0.24
   7  14   1    5.61    0.25
   7  14   1    6.17    0.25
  10 -15  -1    1.13    0.08
  -9  15   1    2.58    0.17
  -9  15   1    2.98    0.18
  -8  15   1    4.64    0.23
  -8  15   1    4.50    0.24
  -7  15   1    0.75    0.12
  -7  15   1    0.76    0.13
  -6  15   1    4.09    0.24
  -5  15   1    1.16    0.17
  -5  15   1    1.51    0.16
  -5  15   1    1.10    0.14
  -4  15   1    1.25    0.15
  -4  15   1    1.45    0.16
  -4  15   1    1.36    0.20
  -3  15   1    0.09    0.09
  -3  15   1    0.14    0.09
  -2  15   1   33.60    1.28
  -2  15   1   34.13    1.29
  -1  15   1    3.09    0.22
  -1  15   1    3.38    0.21
   0  15   1    1.87    0.17
   0  15   1    1.66    0.18
   1  15   1   19.34    0.78
   1  15   1   19.89    0.79
   1  15   1   20.12    0.79
   2  15   1    6.47    0.31
   2  15   1    6.64    0.32
   2  15   1    6.35    0.32
   3  15   1    0.10    0.08
   3  15   1    0.15    0.08
   3  15   1    0.05    0.07
  -4 -15  -1    7.11    0.33
   4  15   1    7.97    0.34
   4  15   1    7.25    0.33
   5  15   1   10.36    0.44
   5  15   1   11.22    0.44
  -6 -15  -1    0.70    0.12
   6  15   1    0.78    0.09
   6  15   1    0.56    0.10
   9 -16  -1    0.86    0.08
  -8  16   1    1.19    0.13
  -8  16   1    1.29    0.16
  -7  16   1    0.04    0.07
  -7  16   1    0.14    0.10
  -6  16   1    0.09    0.06
  -6  16   1   -0.01    0.10
  -6  16   1   -0.06    0.07
  -5  16   1    0.08    0.07
  -5  16   1   -0.04    0.11
  -5  16   1    0.11    0.08
  -3  16   1    0.18    0.08
  -3  16   1    0.21    0.09
  -2  16   1    0.75    0.14
  -2  16   1    0.41    0.09
  -1  16   1    0.00    0.07
  -1  16   1   -0.06    0.08
   0  16   1    1.31    0.19
   0  16   1    0.73    0.19
   1  16   1   11.41    0.48
   1  16   1   10.97    0.47
   2  16   1    0.08    0.07
   2  16   1    0.14    0.07
   3  16   1    0.27    0.08
   3  16   1    0.24    0.07
   4  16   1    8.65    0.36
   4  16   1    8.89    0.37
   5  16   1    5.05    0.22
   5  16   1    4.99    0.23
  -8  17   1    1.08    0.12
  -7  17   1    0.16    0.07
  -6  17   1    0.09    0.07
  -6  17   1    0.03    0.05
  -5  17   1    0.52    0.11
  -5  17   1    0.51    0.10
  -4  17   1    1.59    0.14
  -4  17   1    1.60    0.14
  -3  17   1    0.73    0.12
  -3  17   1    0.87    0.13
  -2  17   1    0.63    0.12
  -2  17   1    0.75    0.13
  -1  17   1    0.49    0.12
  -1  17   1    0.30    0.08
   0  17   1    0.25    0.08
   0  17   1    0.33    0.08
   1  17   1    1.18    0.12
   1  17   1    1.05    0.12
   2  17   1    2.86    0.17
   2  17   1    2.78    0.17
   3  17   1    0.71    0.09
   3  17   1    0.55    0.10
   4  17   1   -0.03    0.06
   4  17   1    0.04    0.05
  -7  18   1    0.12    0.07
  -5  18   1    0.02    0.06
  -5  18   1   -0.06    0.05
  -4  18   1    0.05    0.06
  -4  18   1    0.00    0.06
  -3  18   1    0.47    0.10
  -3  18   1    0.63    0.10
  -2  18   1    0.22    0.07
  -2  18   1    0.11    0.06
  -1  18   1    0.05    0.06
  -1  18   1    0.14    0.06
   0 -18  -1    0.05    0.08
   0  18   1    0.12    0.06
   0  18   1    0.12    0.06
   1  18   1   16.72    0.65
   1  18   1   17.36    0.66
   2  18   1    0.20    0.06
  -5  19   1    1.94    0.12
  -4  19   1    0.04    0.05
  -4  19   1    0.00    0.05
  -3  19   1    0.35    0.09
  -3  19   1    0.41    0.10
  -2  19   1    2.67    0.15
  -1  19   1    0.13    0.07
  -1  19   1    0.08    0.10
   0  19   1    0.17    0.06
   0  19   1    0.14    0.06
   1  19  -2    1.85    0.12
   1  19  -2    1.95    0.13
   0  19  -2    0.12    0.05
   0  19  -2    0.23    0.07
  -1  19  -2    0.27    0.06
  -1  19  -2    0.15    0.05
  -2  19  -2    0.36    0.08
  -3  19  -2    0.06    0.05
  -3  19  -2    0.14    0.06
  -4  19  -2    0.12    0.05
  -5  19  -2    2.94    0.15
   3  18  -2    0.54    0.10
   3  18  -2    0.38    0.08
   2  18  -2    0.68    0.09
   2  18  -2    0.69    0.11
   1  18  -2    0.19    0.07
   1  18  -2    0.21    0.06
   0  18  -2   -0.01    0.06
   0  18  -2    0.01    0.06
  -1  18  -2    0.51    0.11
  -1  18  -2    0.57    0.11
  -2  18  -2    6.05    0.28
  -2  18  -2    6.36    0.28
  -3  18  -2    0.10    0.06
  -3  18  -2    0.16    0.06
  -4  18  -2   -0.05    0.06
  -4  18  -2    0.06    0.06
  -5  18  -2    2.01    0.13
  -5  18  -2    1.76    0.12
  -6  18  -2    2.16    0.13
  -7  18  -2    0.21    0.06
   4  17  -2    0.31    0.08
   4  17  -2    0.28    0.06
   3  17  -2    0.55    0.11
   3  17  -2    0.64    0.10
   2  17  -2    1.40    0.12
   2  17  -2    1.44    0.14
   1  17  -2   20.47    0.81
   1  17  -2   21.40    0.82
   0  17  -2    0.10    0.07
   0  17  -2    0.19    0.08
  -1  17  -2    1.30    0.14
  -1  17  -2    1.36    0.14
  -2  17  -2   25.09    0.96
  -2  17  -2   24.69    0.95
  -3  17  -2    0.04    0.07
  -3  17  -2    0.05    0.07
  -4  17  -2    0.16    0.07
  -4  17  -2    0.18    0.07
  -5  17  -2   -0.04    0.06
  -5  17  -2    0.01    0.06
  -6  17  -2    1.99    0.14
  -6  17  -2    1.89    0.22
  -6  17  -2    2.06    0.13
  -7  17  -2    0.09    0.06
  -8  17  -2    2.48    0.14
   5  16  -2    0.08    0.05
   5  16  -2    0.06    0.07
   4  16  -2    0.84    0.10
   4  16  -2    0.79    0.12
   4  16  -2    0.76    0.12
   3  16  -2    0.03    0.08
   3  16  -2   -0.03    0.07
   3  16  -2    0.15    0.06
   2  16  -2    1.42    0.15
   2  16  -2    1.52    0.16
   2  16  -2    1.38    0.14
   1  16  -2    7.51    0.37
   1  16  -2    8.46    0.39
   0  16  -2    1.53    0.17
   0  16  -2    1.70    0.16
  -1  16  -2    1.77    0.16
  -1  16  -2    1.71    0.17
  -2  16  -2   15.67    0.65
  -2  16  -2   16.01    0.64
  -3  16  -2    0.71    0.14
  -3  16  -2    0.58    0.13
  -4  16  -2   -0.01    0.08
  -4  16  -2   -0.01    0.07
  -5  16  -2   11.31    0.46
  -5  16  -2   11.24    0.47
  -5  16  -2   10.80    0.48
  -6  16  -2    0.82    0.12
  -6  16  -2    0.65    0.11
  -6  16  -2    0.92    0.19
  -7  16  -2    0.24    0.10
  -7  16  -2    0.06    0.06
  -8  16  -2    1.68    0.12
  -8  16  -2    1.91    0.15
  -9  16  -2    1.54    0.11
   9 -16   2    1.55    0.10
   6  15  -2    0.06    0.08
   6  15  -2    0.03    0.05
   6  15  -2    0.06    0.05
  -6 -15   2    0.10    0.07
   5  15  -2    1.45    0.12
   5  15  -2    1.42    0.14
   5  15  -2    1.34    0.13
  -5 -15   2    1.41    0.14
   4  15  -2    0.74    0.12
   4  15  -2    0.90    0.13
   4  15  -2    0.72    0.14
   3  15  -2    1.14    0.21
   3  15  -2    1.54    0.19
   2  15  -2    0.17    0.10
   2  15  -2    0.55    0.15
   2  15  -2    0.26    0.08
   1  15  -2    9.21    0.43
   1  15  -2    9.47    0.41
   1  15  -2    9.14    0.42
   0  15  -2    1.13    0.16
   0  15  -2    1.62    0.15
   0  15  -2    1.03    0.20
  -1  15  -2   -0.09    0.08
  -1  15  -2    0.09    0.09
  -2  15  -2    1.68    0.18
  -2  15  -2    1.45    0.16
  -3  15  -2    0.19    0.09
  -3  15  -2    0.21    0.09
  -4  15  -2    0.04    0.07
  -4  15  -2    0.05    0.12
  -4  15  -2   -0.04    0.08
  -5  15  -2    4.48    0.24
  -5  15  -2    4.09    0.23
  -5  15  -2    3.82    0.24
  -6  15  -2    1.45    0.20
  -6  15  -2    1.65    0.17
  -7  15  -2   -0.01    0.07
  -7  15  -2   -0.02    0.09
  -8  15  -2    0.96    0.12
  -8  15  -2    1.13    0.14
  -9  15  -2    0.59    0.10
  -9  15  -2    0.76    0.12
   9 -15   2    0.77    0.08
   7  14  -2    8.57    0.37
   7  14  -2    9.14    0.36
   7  14  -2    8.74    0.36
   6  14  -2    0.46    0.11
   6  14  -2    0.67    0.11
   6  14  -2    0.42    0.09
   5  14  -2    0.04    0.08
   5  14  -2   -0.05    0.07
   5  14  -2    0.01    0.07
   4  14  -2    0.03    0.08
   4  14  -2    0.01    0.08
   4  14  -2    0.08    0.09
   3  14  -2    0.39    0.10
   3  14  -2    0.13    0.10
   3  14  -2    0.27    0.09
   2  14  -2    2.15    0.20
   2  14  -2    2.24    0.19
   2  14  -2    2.36    0.21
   1  14  -2   22.23    0.90
   1  14  -2   23.63    0.92
   1  14  -2   23.35    0.91
   0  14  -2   -0.08    0.09
   0  14  -2    0.05    0.07
   0  14  -2    0.01    0.11
  -1  14  -2    1.27    0.17
  -1  14  -2    1.47    0.24
  -1  14  -2    1.00    0.16
  -2  14  -2   14.30    0.60
  -3  14  -2    0.18    0.09
  -3  14  -2    0.09    0.09
  -4  14  -2    0.21    0.09
  -4  14  -2    0.24    0.09
  -4  14  -2    0.26    0.10
  -5  14  -2   28.87    1.09
  -5  14  -2   29.66    1.10
  -5  14  -2   26.59    1.08
  -6  14  -2    3.65    0.22
  -6  14  -2    4.03    0.23
  -6  14  -2    3.56    0.22
  -7  14  -2    0.07    0.08
  -8  14  -2    0.65    0.13
  -8  14  -2    0.56    0.12
  -9  14  -2    1.52    0.14
  -9  14  -2    1.41    0.13
  10 -14   2    0.05    0.05
  -8 -13   2    1.21    0.10
   7  13  -2    0.02    0.05
   7  13  -2   -0.08    0.06
   7  13  -2    0.08    0.09
   6  13  -2    0.03    0.07
   6  13  -2    0.04    0.08
   6  13  -2    0.04    0.06
   5  13  -2    0.75    0.16
   5  13  -2    0.40    0.10
   5  13  -2    0.53    0.10
   4  13  -2    5.96    0.32
   4  13  -2    6.42    0.32
   4  13  -2    6.12    0.31
   3  13  -2    0.85    0.17
   3  13  -2    0.99    0.17
   3  13  -2    1.14    0.15
   2  13  -2    4.31    0.26
   2  13  -2    4.03    0.27
   2  13  -2    3.99    0.25
   1  13  -2    0.67    0.17
   1  13  -2    1.10    0.19
   1  13  -2    0.43    0.10
   0  13  -2    0.19    0.10
   0  13  -2   -0.01    0.12
   0  13  -2   -0.02    0.09
  -1  13  -2   -0.07    0.09
  -1  13  -2    0.05    0.08
  -2  13  -2    0.98    0.15
  -2  13  -2    1.08    0.18
  -2  13  -2    1.07    0.17
  -3  13  -2    2.50    0.19
  -3  13  -2    2.19    0.19
  -3  13  -2    2.24    0.18
  -4  13  -2    0.03    0.08
  -4  13  -2    0.04    0.08
  -4  13  -2   -0.08    0.09
  -5  13  -2   13.80    0.55
  -5  13  -2   12.41    0.58
  -5  13  -2   13.88    0.57
  -6  13  -2    2.02    0.18
  -6  13  -2    1.62    0.17
  -6  13  -2    1.89    0.17
  -7  13  -2    0.84    0.13
  -7  13  -2    1.28    0.15
  -7  13  -2    0.87    0.15
  -8  13  -2   12.94    0.53
  -8  13  -2   12.89    0.54
  -9  13  -2   -0.10    0.07
 -10  13  -2   -0.03    0.07
  10 -13   2    0.08    0.05
   9  12  -2    0.32    0.08
  -9 -12   2    0.37    0.07
   8  12  -2    0.96    0.10
   8  12  -2    0.59    0.16
   8  12  -2    0.64    0.12
   7  12  -2    1.52    0.16
   7  12  -2    1.53    0.13
   7  12  -2    1.58    0.15
   6  12  -2    0.78    0.13
   6  12  -2    0.45    0.10
   5  12  -2    4.71    0.27
   5  12  -2    4.56    0.27
   5  12  -2    4.67    0.25
   4  12  -2   -0.03    0.08
   4  12  -2   -0.02    0.09
   4  12  -2    0.13    0.10
   4  12  -2   -0.03    0.09
   3  12  -2    1.68    0.19
   3  12  -2    1.65    0.19
   3  12  -2    1.56    0.20
   3  12  -2    1.81    0.17
   2  12  -2    2.92    0.25
   2  12  -2    2.65    0.23
   2  12  -2    2.63    0.20
   2  12  -2    2.66    0.21
   1  12  -2    8.64    0.41
   1  12  -2    6.84    0.40
   1  12  -2    8.82    0.41
   0  12  -2    1.83    0.19
   0  12  -2    1.69    0.24
   0  12  -2    2.05    0.18
  -1  12  -2    0.90    0.18
  -1  12  -2    0.96    0.17
  -1  12  -2    0.87    0.14
  -2  12  -2    1.40    0.16
  -2  12  -2    1.58    0.18
  -2  12  -2    1.33    0.18
  -3  12  -2    0.20    0.09
  -3  12  -2    0.36    0.10
  -3  12  -2    0.46    0.11
  -4  12  -2    0.40    0.09
  -4  12  -2    0.19    0.08
  -4  12  -2    0.64    0.15
  -5  12  -2   26.76    1.06
  -5  12  -2   26.86    1.05
  -5  12  -2   28.68    1.05
  -6  12  -2    1.72    0.18
  -6  12  -2    2.01    0.17
  -7  12  -2    0.30    0.08
  -7  12  -2    0.34    0.09
  -7  12  -2    0.33    0.09
  -8  12  -2    0.57    0.12
  -8  12  -2    0.86    0.14
  -9  12  -2    1.96    0.16
  -9  12  -2    1.73    0.16
 -10  12  -2    0.66    0.14
  10 -12   2    0.49    0.09
  11 -12   2    0.32    0.06
   9  11  -2    0.96    0.10
  -9 -11   2    1.00    0.09
   8  11  -2    5.85    0.28
   8  11  -2    5.86    0.27
   8  11  -2    5.52    0.28
   7  11  -2    9.66    0.42
   7  11  -2    8.70    0.43
   6  11  -2    0.52    0.13
   6  11  -2    0.32    0.10
   6  11  -2    0.71    0.18
   5  11  -2    3.20    0.25
   5  11  -2    3.84    0.22
   5  11  -2    3.45    0.22
   5  11  -2    3.49    0.24
   4  11  -2    0.08    0.09
   4  11  -2    0.23    0.10
   4  11  -2    0.30    0.09
   4  11  -2    0.37    0.11
   3  11  -2    7.63    0.36
   3  11  -2    7.53    0.35
   3  11  -2    7.54    0.37
   2  11  -2    0.60    0.12
   2  11  -2    0.45    0.12
   2  11  -2    0.67    0.14
   2  11  -2    0.63    0.14
   1  11  -2   35.38    1.30
   1  11  -2   33.76    1.31
   1  11  -2   33.91    1.29
   0  11  -2    0.38    0.10
   0  11  -2    0.12    0.15
   0  11  -2    0.28    0.11
  -1  11  -2    0.03    0.11
  -1  11  -2    0.19    0.09
  -1  11  -2   -0.22    0.16
  -1  11  -2    0.01    0.10
  -2  11  -2    1.28    0.17
  -2  11  -2    1.38    0.18
  -2  11  -2    1.54    0.15
  -3  11  -2    0.31    0.11
  -3  11  -2    0.38    0.09
  -3  11  -2    0.22    0.09
  -4  11  -2    0.01    0.09
  -4  11  -2    0.00    0.08
  -4  11  -2   -0.07    0.07
  -5  11  -2  153.92    5.51
  -5  11  -2  152.21    5.52
  -5  11  -2  149.98    5.51
  -6  11  -2    2.35    0.20
  -6  11  -2    2.47    0.17
  -6  11  -2    2.43    0.19
  -7  11  -2    0.29    0.10
  -7  11  -2    0.09    0.08
  -7  11  -2    0.19    0.09
  -8  11  -2    0.31    0.08
  -8  11  -2    0.53    0.10
  -9  11  -2   10.05    0.41
  -9  11  -2    8.73    0.42
 -10  11  -2    0.17    0.09
  10 -11   2   -0.02    0.05
  11 -11   2    0.08    0.05
  10  10  -2    0.06    0.05
 -10 -10   2    0.07    0.05
   9  10  -2    0.04    0.09
   9  10  -2   -0.05    0.05
   9  10  -2    0.24    0.17
   8  10  -2    0.21    0.10
   8  10  -2    0.23    0.07
   8  10  -2    0.24    0.09
   7  10  -2    4.17    0.24
   7  10  -2    4.44    0.26
   7  10  -2    4.34    0.26
   6  10  -2    0.14    0.10
   6  10  -2    0.35    0.11
   6  10  -2    0.22    0.08
   6  10  -2    0.61    0.14
   5  10  -2    0.30    0.11
   5  10  -2    0.20    0.10
   5  10  -2    0.16    0.08
   5  10  -2    0.26    0.11
   4  10  -2    0.04    0.10
   4  10  -2    0.03    0.11
   4  10  -2    0.18    0.10
   4  10  -2   -0.05    0.18
   3  10  -2    0.89    0.19
   3  10  -2    0.85    0.13
   3  10  -2    0.84    0.15
   3  10  -2    0.67    0.18
   2  10  -2    1.40    0.21
   2  10  -2    1.70    0.16
   2  10  -2    1.65    0.20
   2  10  -2    0.99    0.23
   1  10  -2    1.49    0.19
   1  10  -2    1.41    0.22
   1  10  -2    1.49    0.17
   0  10  -2    2.39    0.21
   0  10  -2    2.28    0.20
  -1  10  -2    0.23    0.11
  -1  10  -2    0.41    0.10
  -1  10  -2    0.12    0.10
  -2  10  -2   17.77    0.71
  -2  10  -2   17.70    0.69
  -2  10  -2   18.12    0.71
  -3  10  -2    2.40    0.20
  -3  10  -2    2.30    0.21
  -3  10  -2    2.77    0.16
  -4  10  -2    0.06    0.09
  -4  10  -2    0.05    0.06
  -4  10  -2    0.31    0.11
  -5  10  -2    1.66    0.14
  -5  10  -2    1.56    0.17
  -5  10  -2    1.49    0.18
  -6  10  -2    2.69    0.18
  -6  10  -2    2.44    0.20
  -6  10  -2    2.67    0.20
  -7  10  -2    0.67    0.15
  -7  10  -2    0.65    0.12
  -7  10  -2    0.85    0.13
  -8  10  -2   18.84    0.73
  -8  10  -2   17.08    0.71
  -9  10  -2    0.70    0.14
  -9  10  -2    0.94    0.13
 -10  10  -2    5.29    0.27
  10 -10   2    5.41    0.25
 -11  10  -2    0.20    0.14
  11 -10   2    0.34    0.06
  10   9  -2    0.09    0.05
 -10  -9   2    0.09    0.05
   9   9  -2   -0.11    0.10
   9   9  -2    0.08    0.09
   9   9  -2    0.05    0.06
   8   9  -2   13.54    0.58
   8   9  -2   14.76    0.58
   7   9  -2    5.28    0.27
   7   9  -2    5.53    0.29
   7   9  -2    5.45    0.31
   7   9  -2    5.30    0.28
   6   9  -2    1.31    0.15
   6   9  -2    1.24    0.18
   6   9  -2    1.17    0.16
   6   9  -2    1.47    0.21
   5   9  -2    1.04    0.15
   5   9  -2    1.17    0.17
   5   9  -2    1.37    0.18
   4   9  -2   30.51    1.12
   4   9  -2   28.48    1.10
   4   9  -2   28.31    1.10
   4   9  -2   28.73    1.12
   3   9  -2    0.36    0.11
   3   9  -2    0.36    0.11
   3   9  -2    0.32    0.13
   3   9  -2    0.60    0.11
   2   9  -2    2.89    0.23
   2   9  -2    2.88    0.24
   2   9  -2    2.95    0.21
  -1   9  -2    0.33    0.09
  -2   9  -2   18.66    0.71
  -3   9  -2    2.37    0.16
  -3   9  -2    2.93    0.35
  -4   9  -2    0.31    0.10
  -4   9  -2    0.24    0.10
  -4   9  -2    0.16    0.06
  -5   9  -2   48.49    1.77
  -5   9  -2   47.23    1.76
  -5   9  -2   46.84    1.76
  -6   9  -2    2.41    0.17
  -6   9  -2    2.37    0.19
  -6   9  -2    2.48    0.20
  -7   9  -2    4.33    0.25
  -7   9  -2    4.28    0.23
  -8   9  -2   48.40    1.89
  -8   9  -2   53.34    1.90
  -9   9  -2    9.33    0.42
  -9   9  -2    9.74    0.43
 -10   9  -2    0.63    0.15
 -11   9  -2    0.14    0.14
  11  -9   2    0.04    0.05
  12  -9   2    5.94    0.25
 -11  -8   2    1.38    0.11
  10   8  -2    0.08    0.05
   9   8  -2    2.01    0.21
   9   8  -2    2.47    0.22
   9   8  -2    2.39    0.17
   8   8  -2   -0.01    0.10
   8   8  -2    0.16    0.12
   8   8  -2    0.37    0.09
   7   8  -2    8.45    0.38
   7   8  -2    8.06    0.39
   7   8  -2    8.02    0.40
   7   8  -2    8.32    0.37
   6   8  -2    2.48    0.22
   6   8  -2    2.93    0.19
   6   8  -2    3.10    0.25
   6   8  -2    2.61    0.20
   5   8  -2    7.69    0.39
   5   8  -2    7.15    0.37
   5   8  -2    8.20    0.36
   5   8  -2    8.07    0.36
   4   8  -2    0.30    0.13
   4   8  -2   -0.02    0.11
   4   8  -2    0.32    0.10
   4   8  -2    0.14    0.10
   3   8  -2    1.66    0.20
   3   8  -2    2.03    0.19
  -3  -8   2    1.63    0.14
  -2  -8   2    8.36    0.33
  -1  -8   2   27.71    1.00
  -1  -8   2   27.11    1.00
   0  -8   2    0.02    0.02
   0  -8   2    0.05    0.03
  -1   8  -2    3.45    0.19
   1  -8   2    3.52    0.14
   1  -8   2    3.72    0.14
  -2   8  -2   22.56    0.89
   2  -8   2   24.92    0.87
   2  -8   2   24.39    0.87
  -3   8  -2    1.07    0.11
   3  -8   2    0.97    0.08
  -4   8  -2    0.78    0.10
  -5   8  -2    1.28    0.17
  -5   8  -2    1.27    0.12
  -5   8  -2    1.62    0.18
  -6   8  -2    0.22    0.09
  -6   8  -2    0.30    0.10
  -6   8  -2    0.30    0.08
  -7   8  -2    0.86    0.13
  -7   8  -2    0.90    0.16
  -8   8  -2    0.08    0.10
  -8   8  -2    0.11    0.08
  -9   8  -2    0.53    0.13
  -9   8  -2    0.64    0.15
   9  -8   2    0.54    0.12
 -10   8  -2    0.15    0.10
  10  -8   2    0.03    0.07
  11  -8   2    0.08    0.06
  12  -8   2    0.32    0.09
  12  -8   2    0.34    0.08
  11   7  -2    0.08    0.08
 -11  -7   2    0.07    0.06
  10   7  -2    0.81    0.11
   9   7  -2    0.05    0.12
   9   7  -2    0.17    0.13
   9   7  -2    0.14    0.08
   8   7  -2    0.40    0.12
   8   7  -2    0.34    0.12
   8   7  -2    0.30    0.09
   7   7  -2    1.25    0.20
   7   7  -2    0.93    0.20
   7   7  -2    1.09    0.16
   7   7  -2    1.00    0.15
   6   7  -2    4.26    0.24
   6   7  -2    4.71    0.27
   6   7  -2    4.05    0.28
   6   7  -2    4.07    0.24
   5   7  -2    6.25    0.31
   5   7  -2    6.36    0.30
   5   7  -2    6.02    0.33
   5   7  -2    6.40    0.34
   4   7  -2    0.17    0.10
   4   7  -2    0.22    0.09
   4   7  -2   -0.01    0.11
  -4  -7   2    0.00    0.07
   3   7  -2    3.20    0.18
  -3  -7   2    3.45    0.16
  -2  -7   2    8.74    0.34
  -1  -7   2   96.62    3.48
   0  -7   2    0.01    0.02
   0  -7   2    0.03    0.02
   1  -7   2    0.22    0.03
   1  -7   2    0.26    0.03
  -2   7  -2    0.11    0.06
   2  -7   2    0.07    0.02
  -3   7  -2    3.03    0.16
  -3   7  -2    2.99    0.13
  -4   7  -2    1.25    0.10
  -4   7  -2    1.12    0.10
   4  -7   2    0.88    0.10
  -5   7  -2    2.10    0.20
  -5   7  -2    1.91    0.16
  -5   7  -2    1.88    0.20
  -5   7  -2    2.27    0.14
  -6   7  -2    0.02    0.10
  -6   7  -2   -0.04    0.06
  -6   7  -2    0.01    0.10
  -7   7  -2    0.16    0.11
  -7   7  -2   -0.01    0.07
  -8   7  -2    3.29    0.20
  -8   7  -2    3.18    0.23
  -9   7  -2    1.08    0.17
  -9   7  -2    0.98    0.15
   9  -7   2    1.00    0.14
 -10   7  -2    0.90    0.18
  10  -7   2    0.91    0.12
  11  -7   2    1.28    0.14
  11  -7   2    1.34    0.12
  12  -7   2    0.63    0.09
  12  -7   2    0.65    0.13
  11   6  -2   14.69    0.56
 -11  -6   2   14.19    0.56
  10   6  -2    0.80    0.12
  10   6  -2    0.85    0.20
   9   6  -2    0.16    0.12
   9   6  -2    0.15    0.08
   8   6  -2   15.98    0.64
   8   6  -2   15.77    0.65
   8   6  -2   15.81    0.63
   8   6  -2   15.39    0.65
   7   6  -2   87.71    3.24
   7   6  -2   89.84    3.25
   7   6  -2   89.41    3.23
   7   6  -2   87.52    3.25
   6   6  -2    1.06    0.15
   6   6  -2    1.12    0.15
   6   6  -2    1.09    0.21
   6   6  -2    1.21    0.22
   5   6  -2    2.42    0.19
   5   6  -2    2.36    0.25
   5   6  -2    2.51    0.23
   5   6  -2    2.46    0.19
  -4  -6   2  141.65    5.11
   3   6  -2    1.62    0.11
  -3  -6   2    1.54    0.11
   2   6  -2    3.31    0.15
  -2  -6   2    3.52    0.15
  -1  -6   2   27.19    0.99
   0  -6   2    0.93    0.05
   0  -6   2    0.95    0.05
   1  -6   2    0.26    0.03
   1  -6   2    0.24    0.03
  -2   6  -2    4.03    0.16
   2  -6   2    4.03    0.16
  -3   6  -2    6.55    0.26
  -3   6  -2    6.66    0.28
   3  -6   2    6.88    0.26
  -4   6  -2   10.59    0.41
  -4   6  -2   10.15    0.40
   4  -6   2   10.05    0.40
  -5   6  -2   30.39    1.09
  -5   6  -2   29.98    1.10
   5  -6   2   28.01    1.10
  -6   6  -2    1.22    0.18
  -6   6  -2    1.02    0.11
  -6   6  -2    0.86    0.22
  -7   6  -2    0.40    0.09
  -7   6  -2    0.27    0.11
  -8   6  -2   45.62    1.69
  -8   6  -2   44.22    1.67
  -9   6  -2   13.50    0.56
   9  -6   2   13.64    0.55
 -10   6  -2    0.00    0.13
  10  -6   2    0.00    0.07
  11  -6   2    3.75    0.21
  11  -6   2    3.60    0.19
  12  -6   2   25.56    0.94
  12  -6   2   24.08    0.93
  11   5  -2    4.93    0.22
 -11  -5   2    4.60    0.22
  10   5  -2    0.07    0.07
  10   5  -2    0.08    0.12
   9   5  -2   -0.14    0.11
   9   5  -2    0.01    0.07
   8   5  -2    2.23    0.26
   8   5  -2    2.70    0.18
   8   5  -2    2.74    0.19
   8   5  -2    2.44    0.24
   7   5  -2    1.12    0.15
   7   5  -2    1.03    0.21
   7   5  -2    0.99    0.23
   6   5  -2    5.63    0.27
   6   5  -2    4.56    0.31
   6   5  -2    5.60    0.27
   6   5  -2    4.93    0.32
   5   5  -2    6.47    0.31
   5   5  -2    6.20    0.31
  -5  -5   2    6.06    0.28
   4   5  -2   53.10    2.02
  -4  -5   2   57.63    2.02
   3   5  -2    1.62    0.10
  -3  -5   2    1.73    0.09
   2   5  -2    0.03    0.02
  -2  -5   2    0.06    0.02
  -1  -5   2    1.49    0.07
   0  -5   2   -0.02    0.01
   0  -5   2    0.01    0.01
   1  -5   2    0.32    0.03
  -2   5  -2   22.60    0.83
   2  -5   2   22.74    0.82
  -3   5  -2    1.10    0.10
  -3   5  -2    1.07    0.06
   3  -5   2    1.14    0.07
  -4   5  -2    0.14    0.05
  -4   5  -2    0.11    0.04
   4  -5   2    0.16    0.04
  -5   5  -2   48.83    1.79
  -5   5  -2   52.18    1.79
   5  -5   2   45.64    1.79
  -6   5  -2    5.78    0.29
  -6   5  -2    6.07    0.27
  -6   5  -2    5.84    0.31
  -7   5  -2    0.49    0.09
  -7   5  -2    0.44    0.11
  -8   5  -2    0.51    0.13
  -8   5  -2    0.33    0.11
   8  -5   2    0.32    0.09
   9  -5   2    7.24    0.33
  10  -5   2    0.13    0.07
  11  -5   2    0.97    0.14
  11  -5   2    0.87    0.11
  12  -5   2    1.00    0.13
  12  -5   2    1.18    0.10
  12   4  -2    0.81    0.09
  11   4  -2   12.55    0.50
 -11  -4   2   12.82    0.50
  10   4  -2    2.14    0.16
  10   4  -2    1.80    0.22
   9   4  -2    1.02    0.14
   9   4  -2    0.78    0.14
   8   4  -2   23.68    0.96
   8   4  -2   24.35    0.94
   8   4  -2   25.15    0.94
   7   4  -2   54.87    1.97
   7   4  -2   52.44    1.99
   7   4  -2   52.83    1.97
   7   4  -2   53.61    1.99
   6   4  -2    1.27    0.17
   6   4  -2    1.19    0.19
   6   4  -2    1.25    0.24
   6   4  -2    1.07    0.15
  -5  -4   2    8.45    0.35
   4   4  -2  116.80    4.29
  -4  -4   2  121.15    4.29
   3   4  -2    0.34    0.05
  -3  -4   2    0.33    0.05
   2   4  -2    4.36    0.17
  -2  -4   2    4.26    0.17
   1   4  -2   22.69    0.80
  -1  -4   2   21.52    0.80
   0  -4   2    1.91    0.08
   0  -4   2    2.10    0.08
  -1   4  -2    0.05    0.01
   1  -4   2    0.01    0.01
  -2   4  -2    0.60    0.04
   2  -4   2    0.53    0.04
  -3   4  -2    0.23    0.04
   3  -4   2    0.27    0.04
  -4   4  -2    1.45    0.09
  -4   4  -2    1.44    0.11
   4  -4   2    1.47    0.09
  -5   4  -2    8.40    0.34
  -5   4  -2    8.39    0.33
   5  -4   2    7.46    0.34
  -6   4  -2   20.53    0.80
  -6   4  -2   21.53    0.79
  -6   4  -2   20.12    0.81
  -7   4  -2    0.03    0.08
  -7   4  -2   -0.16    0.11
  -8   4  -2   20.55    0.79
   8  -4   2   20.26    0.80
  -9   4  -2    0.92    0.20
   9  -4   2    1.45    0.16
  10  -4   2    0.30    0.08
  11  -4   2    2.11    0.15
  11  -4   2    2.23    0.17
  12  -4   2    1.02    0.14
  12  -4   2    1.15    0.11
  12   3  -2    0.17    0.05
  11   3  -2    0.09    0.06
 -11  -3   2   -0.02    0.12
  10   3  -2    4.49    0.41
  10   3  -2    4.91    0.25
   9   3  -2    0.80    0.20
   9   3  -2    0.82    0.14
   8   3  -2    1.02    0.24
   8   3  -2    1.24    0.17
   8   3  -2    1.19    0.15
   7   3  -2   23.44    0.87
   7   3  -2   23.28    0.89
   7   3  -2   20.40    0.93
   7   3  -2   22.47    0.86
   6   3  -2    9.87    0.41
   6   3  -2    9.26    0.42
  -5  -3   2   11.81    0.46
   4   3  -2   18.16    0.67
  -4  -3   2   17.75    0.67
   3   3  -2    0.05    0.02
  -3  -3   2    0.09    0.02
   2   3  -2   10.70    0.39
  -2  -3   2   10.22    0.39
  -1  -3   2    1.04    0.05
   0  -3   2    0.32    0.02
  -1   3  -2    1.19    0.05
   1  -3   2    1.28    0.05
  -2   3  -2   45.88    1.68
   2  -3   2   47.35    1.68
  -3   3  -2    8.56    0.34
   3  -3   2    9.51    0.34
  -4   3  -2    0.41    0.09
  -4   3  -2    0.62    0.06
   4  -3   2    0.54    0.06
  -5   3  -2    6.31    0.28
  -5   3  -2    6.35    0.27
   5  -3   2    6.87    0.30
  -6   3  -2    6.22    0.26
  -6   3  -2    5.13    0.27
  -7   3  -2    2.62    0.18
  -7   3  -2    2.54    0.22
   7  -3   2    2.88    0.20
  -8   3  -2    1.57    0.19
   8  -3   2    1.69    0.21
   9  -3   2    2.71    0.20
  10  -3   2    0.86    0.15
  10  -3   2    0.70    0.13
  11  -3   2    3.93    0.21
  11  -3   2    3.25    0.19
  12  -3   2    3.44    0.20
  12  -3   2    3.62    0.18
  12   2  -2    0.03    0.05
  11   2  -2    2.74    0.17
  10   2  -2    2.62    0.24
  10   2  -2    3.12    0.19
   9   2  -2    0.24    0.12
   9   2  -2    0.23    0.08
   8   2  -2   19.26    0.79
   8   2  -2   20.16    0.78
   8   2  -2   20.34    0.78
   7   2  -2    0.31    0.09
   7   2  -2    0.09    0.14
   7   2  -2    0.45    0.11
  -6  -2   2    0.04    0.07
  -5  -2   2   53.14    1.94
   4   2  -2    8.16    0.32
   3   2  -2   20.30    0.73
  -3  -2   2   19.57    0.73
   2   2  -2   20.13    0.72
  -2  -2   2   19.50    0.72
   1   2  -2    4.68    0.18
  -1  -2   2    4.79    0.18
   0  -2   2    1.06    0.05
  -1   2  -2    2.84    0.11
   1  -2   2    2.84    0.11
  -2   2  -2   40.45    1.52
   2  -2   2   43.64    1.52
  -3   2  -2    1.16    0.06
   3  -2   2    1.28    0.07
  -4   2  -2    4.70    0.20
   4  -2   2    4.62    0.19
  -5   2  -2   89.12    3.32
  -5   2  -2   94.10    3.32
  -6   2  -2    0.71    0.13
  -6   2  -2    0.54    0.12
  -7   2  -2    1.35    0.16
   7  -2   2    1.20    0.17
   8  -2   2    9.12    0.48
   9  -2   2   11.92    0.50
  10  -2   2    0.63    0.12
  10  -2   2    0.57    0.14
  11  -2   2    2.47    0.18
  11  -2   2    2.35    0.16
  12  -2   2    3.93    0.21
  12  -2   2    3.89    0.19
  12   1  -2    0.58    0.09
  11   1  -2    3.84    0.21
  10   1  -2    1.07    0.21
  10   1  -2    1.04    0.13
   9   1  -2    0.34    0.13
   9   1  -2    0.20    0.08
   8   1  -2   31.61    1.27
   8   1  -2   33.77    1.26
   8   1  -2   35.01    1.26
   7   1  -2    0.19    0.08
   7   1  -2    0.15    0.13
   7   1  -2    0.16    0.12
  -6  -1   2    4.73    0.22
   5   1  -2    1.12    0.10
  -5  -1   2    1.13    0.08
   4   1  -2  348.59   12.58
  -4  -1   2  351.07   12.59
   3   1  -2    8.90    0.36
  -3  -1   2    9.97    0.36
   2   1  -2    2.65    0.11
   1   1  -2    4.92    0.18
  -1  -1   2    4.99    0.18
   0   1  -2    0.28    0.02
   0  -1   2    0.30    0.02
  -1   1  -2    0.00    0.01
   1  -1   2    0.00    0.01
  -2   1  -2  102.96    3.83
   2  -1   2  110.22    3.83
  -3   1  -2    1.64    0.08
   3  -1   2    1.73    0.08
  -4   1  -2   14.07    0.58
   4  -1   2   15.92    0.57
  -5   1  -2    5.51    0.24
  -5   1  -2    5.79    0.26
  -6   1  -2    1.47    0.16
   7  -1   2    1.30    0.17
   8  -1   2   41.71    1.56
   9  -1   2    3.79    0.23
   9  -1   2    3.89    0.24
  10  -1   2    0.16    0.09
  10  -1   2    0.10    0.07
  11  -1   2    3.09    0.19
  11  -1   2    2.96    0.18
  12  -1   2   17.29    0.66
  12   0  -2    0.53    0.09
  11   0  -2   11.66    0.48
  10   0  -2    0.08    0.12
  10   0  -2    0.12    0.08
   9   0  -2    0.29    0.12
   9   0  -2    0.22    0.09
   8   0  -2    2.58    0.25
   8   0  -2    2.53    0.18
   8   0  -2    2.27    0.24
   7   0  -2    0.16    0.08
  -6   0   2    1.71    0.13
   5   0  -2    0.59    0.08
  -5   0   2    0.57    0.07
   4   0  -2  122.82    4.35
  -4   0   2  118.92    4.35
   3   0  -2    1.40    0.07
  -3   0   2    1.40    0.07
   2   0  -2    2.89    0.11
  -2   0   2    2.77    0.11
  -1   0   2    0.89    0.04
   0   0  -2    0.67    0.03
   0   0   2    0.66    0.03
  -1   0  -2    0.51    0.03
   1   0   2    0.56    0.03
  -2   0  -2  168.32    6.22
   2   0   2  176.20    6.21
  -3   0  -2    3.98    0.17
   3   0   2    4.40    0.17
  -4   0  -2    0.06    0.03
   4   0   2    0.09    0.03
  -5   0  -2   16.86    0.64
   7   0   2    5.82    0.29
   8   0   2    1.00    0.17
   8   0   2    0.77    0.15
   9   0   2    0.00    0.09
   9   0   2    0.10    0.08
  10   0   2    0.02    0.07
  10   0   2   -0.04    0.09
  11   0   2    0.64    0.12
  11   0   2    0.82    0.13
  12   0   2    0.27    0.07
  12   0   2    0.24    0.10
  13  -1  -2    0.34    0.08
  12  -1  -2    0.00    0.05
  11  -1  -2    4.21    0.24
  10  -1  -2    4.41    0.23
  10  -1  -2    3.65    0.27
   9  -1  -2    6.01    0.30
   9  -1  -2    6.19    0.34
   8  -1  -2    0.11    0.07
   7  -1  -2   11.95    0.50
  -7   1   2   12.50    0.50
  -6   1   2    0.17    0.05
  -6   1   2    0.09    0.08
   5  -1  -2    3.75    0.18
  -5   1   2    4.18    0.18
   4  -1  -2   40.68    1.45
  -4   1   2   39.30    1.45
   3  -1  -2    2.76    0.11
  -3   1   2    2.62    0.11
   2  -1  -2    4.91    0.18
  -2   1   2    4.84    0.18
   1  -1  -2  295.15   10.16
  -1   1   2  270.41   10.16
   0  -1  -2    0.04    0.01
   0   1   2    0.03    0.01
  -1  -1  -2    0.01    0.01
   1   1   2    0.00    0.01
  -2  -1  -2   30.95    1.16
   2   1   2   32.97    1.16
  -3  -1  -2    3.42    0.14
   3   1   2    3.32    0.14
  -4  -1  -2    4.30    0.18
   4   1   2    4.04    0.18
  -5  -1  -2    4.64    0.21
   6   1   2    2.25    0.19
   7   1   2    0.05    0.10
   7   1   2    0.16    0.11
   8   1   2   35.89    1.37
   8   1   2   36.83    1.38
  -9  -1  -2    0.10    0.11
   9   1   2    0.11    0.08
   9   1   2   -0.12    0.09
  10   1   2    0.04    0.08
  10   1   2   -0.05    0.10
  11   1   2    1.88    0.16
  11   1   2    1.96    0.14
  12   1   2    0.15    0.06
  13  -2  -2    1.27    0.09
  12  -2  -2    0.53    0.10
  10  -2  -2    4.21    0.27
  10  -2  -2    4.37    0.23
   9  -2  -2    4.75    0.25
   8  -2  -2   10.69    0.45
  -8   2   2   10.75    0.45
   7  -2  -2   15.18    0.61
  -7   2   2   15.69    0.60
  -6   2   2    2.84    0.17
  -6   2   2    2.99    0.17
   5  -2  -2   20.32    0.77
  -5   2   2   21.45    0.77
  -5   2   2   20.05    0.77
   4  -2  -2  171.93    6.09
  -4   2   2  166.73    6.09
   3  -2  -2    7.50    0.28
  -3   2   2    7.43    0.28
   2  -2  -2    1.40    0.06
  -2   2   2    1.42    0.06
  -1   2   2  210.08    7.55
   0  -2  -2    0.00    0.01
   0   2   2    0.00    0.01
  -1  -2  -2    0.30    0.02
   1   2   2    0.30    0.02
  -2  -2  -2    7.29    0.28
   2   2   2    7.76    0.28
  -3  -2  -2    4.06    0.17
   3   2   2    4.04    0.17
  -4  -2  -2    4.56    0.20
   4   2   2    4.65    0.20
  -5  -2  -2   49.17    1.80
   6   2   2   32.99    1.26
   6   2   2   33.67    1.25
   7   2   2   17.47    0.70
   7   2   2   17.27    0.69
   8   2   2    0.57    0.14
   8   2   2   -0.05    0.09
  -9  -2  -2    0.00    0.09
   9   2   2   -0.14    0.08
   9   2   2    0.05    0.08
 -10  -2  -2    1.08    0.17
  10   2   2    1.50    0.16
  11   2   2    0.96    0.14
  11   2   2    1.08    0.12
  12   2   2    0.19    0.07
  13  -3  -2    1.66    0.11
  12  -3  -2    0.16    0.05
  10  -3  -2   13.44    0.58
  10  -3  -2   14.03    0.56
   9  -3  -2    1.57    0.15
  -9   3   2    1.68    0.24
   8  -3  -2   24.49    0.94
  -8   3   2   24.59    0.94
  -7   3   2    9.31    0.40
  -7   3   2    9.86    0.48
  -6   3   2    0.32    0.07
  -6   3   2    0.27    0.06
   5  -3  -2   11.31    0.45
  -5   3   2   11.90    0.46
  -5   3   2   12.11    0.45
   4  -3  -2    5.58    0.22
  -4   3   2    5.52    0.22
   3  -3  -2    0.05    0.02
  -3   3   2    0.04    0.02
   2  -3  -2    0.21    0.02
  -2   3   2    0.19    0.02
   0  -3  -2    0.26    0.02
   0   3   2    0.26    0.02
  -1  -3  -2    1.62    0.07
   1   3   2    1.67    0.07
  -2  -3  -2  247.26    8.90
   2   3   2  246.77    8.90
  -3  -3  -2    0.19    0.04
   3   3   2    0.28    0.05
  -4  -3  -2    0.05    0.03
   4   3   2    0.05    0.05
  -5  -3  -2    3.14    0.17
   6   3   2    2.67    0.21
   6   3   2    3.02    0.21
   7   3   2    4.71    0.27
   7   3   2    4.45    0.25
   8   3   2   18.21    0.73
   8   3   2   18.83    0.75
   9   3   2    0.23    0.09
   9   3   2    0.29    0.09
 -10  -3  -2    0.16    0.09
  10   3   2    0.22    0.08
  10   3   2    0.24    0.09
  11   3   2    0.10    0.07
  11   3   2    0.17    0.08
  13  -4  -2    2.19    0.12
  12  -4  -2    0.03    0.05
  11  -4  -2   -0.03    0.10
  11  -4  -2    0.10    0.13
  10  -4  -2    5.79    0.28
   9  -4  -2    4.16    0.24
  -9   4   2    4.37    0.25
   8  -4  -2   17.95    0.70
  -8   4   2   17.27    0.72
  -8   4   2   18.19    0.70
  -7   4   2    0.26    0.15
  -6   4   2    0.76    0.12
  -6   4   2    0.71    0.10
   5  -4  -2   40.02    1.50
  -5   4   2   41.76    1.51
  -5   4   2   41.40    1.50
   4  -4  -2    0.81    0.06
  -4   4   2    0.77    0.09
  -4   4   2    0.85    0.06
   3  -4  -2    0.16    0.03
  -3   4   2    0.18    0.03
   2  -4  -2    1.53    0.06
  -2   4   2    1.47    0.06
   0  -4  -2    0.56    0.03
   0   4   2    0.60    0.03
  -1  -4  -2    0.25    0.02
   1   4   2    0.26    0.03
  -2  -4  -2    0.68    0.05
   2   4   2    0.79    0.05
  -3  -4  -2    3.90    0.17
   3   4   2    3.84    0.17
  -4  -4  -2    0.97    0.09
   4   4   2    1.15    0.12
  -5  -4  -2    4.76    0.24
   5   4   2    4.91    0.26
   5   4   2    5.09    0.28
   6   4   2    0.00    0.09
   6   4   2    0.05    0.17
   6   4   2    0.02    0.09
   7   4   2    1.41    0.17
   7   4   2    1.22    0.17
   8   4   2   11.13    0.49
   8   4   2   12.13    0.51
   9   4   2    1.87    0.16
   9   4   2    1.72    0.18
 -10  -4  -2    0.11    0.07
  10   4   2    0.14    0.07
  10   4   2    0.02    0.08
 -11  -4  -2    3.87    0.24
  11   4   2    3.03    0.21
  11   4   2    3.36    0.18
  13  -5  -2    0.49    0.08
  12  -5  -2    0.01    0.05
  11  -5  -2   12.16    0.56
  11  -5  -2   13.18    0.52
  10  -5  -2    0.33    0.08
 -10   5   2    0.36    0.12
   9  -5  -2    0.04    0.07
  -9   5   2    0.05    0.10
  -8   5   2    4.82    0.31
  -8   5   2    5.57    0.26
  -7   5   2    5.72    0.34
  -7   5   2    6.16    0.27
  -6   5   2   -0.01    0.07
   5  -5  -2    3.70    0.18
  -5   5   2    4.06    0.19
  -5   5   2    3.76    0.19
  -4   5   2    7.21    0.27
  -4   5   2    6.69    0.29
   3  -5  -2    1.95    0.08
  -3   5   2    1.93    0.08
  -3   5   2    1.73    0.11
  -1  -5  -2    1.76    0.08
   1   5   2    1.83    0.08
  -2  -5  -2  314.41   11.34
   2   5   2  315.04   11.34
  -3  -5  -2    9.49    0.37
   3   5   2    9.66    0.38
  -4  -5  -2    1.76    0.13
   5   5   2    6.50    0.32
   5   5   2    6.72    0.31
   5   5   2    6.61    0.33
   5   5   2    6.25    0.36
   6   5   2   29.04    1.08
   6   5   2   29.01    1.09
   6   5   2   27.14    1.10
   7   5   2    2.89    0.22
   7   5   2    2.96    0.20
   8   5   2    0.29    0.09
   8   5   2    0.23    0.10
  -9  -5  -2    4.20    0.22
   9   5   2    3.84    0.24
   9   5   2    4.47    0.23
 -10  -5  -2    1.30    0.13
  10   5   2    1.31    0.13
  10   5   2    1.03    0.14
 -11  -5  -2    0.11    0.08
  11   5   2    0.15    0.09
  11   5   2    0.08    0.06
  12  -6  -2    1.06    0.10
  11  -6  -2    0.73    0.11
  11  -6  -2    0.65    0.15
  10  -6  -2    4.16    0.22
 -10   6   2    3.77    0.24
   9  -6  -2    0.05    0.07
  -9   6   2    0.05    0.09
  -8   6   2    7.27    0.38
  -8   6   2    7.99    0.34
  -7   6   2   -0.01    0.12
  -7   6   2   -0.08    0.06
  -6   6   2    0.43    0.11
  -6   6   2    0.77    0.10
   5  -6  -2    4.07    0.20
  -5   6   2    5.01    0.21
  -5   6   2    4.31    0.20
   4  -6  -2   33.54    1.23
  -4   6   2   33.81    1.23
  -4   6   2   34.07    1.25
   3  -6  -2    6.00    0.22
  -3   6   2    5.79    0.25
  -3   6   2    5.72    0.22
  -1  -6  -2    1.20    0.06
   1   6   2    1.22    0.06
  -2  -6  -2   79.17    2.94
   2   6   2   84.19    2.95
  -3  -6  -2    0.42    0.07
   3   6   2    0.33    0.07
  -4  -6  -2    0.23    0.07
   4   6   2    0.12    0.12
   4   6   2    0.32    0.11
   4   6   2    0.22    0.09
   5   6   2    1.83    0.20
   5   6   2    1.94    0.19
   5   6   2    1.55    0.17
   5   6   2    1.88    0.22
   6   6   2    0.62    0.16
   7   6   2    2.98    0.23
   7   6   2    3.33    0.22
   7   6   2    2.84    0.27
   8   6   2    1.83    0.18
   8   6   2    1.65    0.18
  -9  -6  -2    3.54    0.20
   9   6   2    3.84    0.23
   9   6   2    3.77    0.21
 -10  -6  -2    0.19    0.06
  10   6   2    0.46    0.11
  10   6   2    0.17    0.08
  11   6   2   -0.13    0.06
  12  -7  -2    0.04    0.05
  11  -7  -2    0.72    0.11
 -11   7   2    0.82    0.15
  10  -7  -2    7.07    0.32
 -10   7   2    6.59    0.33
  -9   7   2    0.11    0.08
  -9   7   2    0.23    0.12
  -8   7   2    4.24    0.28
  -8   7   2    4.22    0.23
  -7   7   2   29.17    1.11
  -7   7   2   28.47    1.09
  -6   7   2    1.24    0.22
  -6   7   2    1.25    0.11
  -6   7   2    1.10    0.17
  -5   7   2    3.72    0.19
   4  -7  -2    0.66    0.06
  -4   7   2    0.70    0.06
  -4   7   2    0.75    0.09
  -3   7   2   -0.01    0.05
  -2   7   2    2.80    0.15
  -1  -7  -2    1.44    0.07
   1   7   2    1.53    0.07
  -2  -7  -2   91.75    3.36
   2   7   2   94.75    3.36
  -3  -7  -2    3.79    0.20
   3   7   2    4.38    0.32
   4   7   2    1.55    0.19
   4   7   2    1.85    0.20
   4   7   2    1.76    0.17
   4   7   2    1.91    0.20
   5   7   2   13.16    0.55
   5   7   2   13.19    0.55
   5   7   2   12.80    0.56
   6   7   2   16.74    0.69
   6   7   2   16.16    0.69
   6   7   2   17.79    0.69
   7   7   2    0.30    0.10
   7   7   2    0.46    0.13
   7   7   2    0.46    0.11
   8   7   2    5.92    0.30
   8   7   2    5.60    0.32
   8   7   2    5.67    0.29
  -9  -7  -2    1.32    0.13
   9   7   2    1.40    0.14
   9   7   2    1.35    0.15
 -10  -7  -2    0.22    0.06
  10   7   2    0.38    0.10
  10   7   2    0.22    0.08
  12  -8  -2    1.50    0.11
  11  -8  -2    0.29    0.07
 -11   8   2    0.49    0.12
  10  -8  -2   25.32    0.93
 -10   8   2   23.11    0.93
  -9   8   2    9.53    0.42
  -9   8   2    9.88    0.44
  -8   8   2    7.30    0.39
  -8   8   2    8.47    0.36
  -7   8   2   18.06    0.76
  -7   8   2   19.96    0.77
  -7   8   2   19.07    0.75
  -6   8   2    0.70    0.16
  -6   8   2    0.75    0.20
  -6   8   2    0.78    0.10
  -5   8   2    0.78    0.20
  -5   8   2    0.83    0.10
  -5   8   2    0.82    0.16
  -4   8   2    7.03    0.33
  -3   8   2    0.04    0.05
  -2   8   2   -0.05    0.06
  -1   8   2  157.35    5.67
   2   8   2    0.26    0.13
   2   8   2    0.27    0.12
   3   8   2    0.76    0.18
   3   8   2    1.19    0.18
   3   8   2    0.89    0.18
   3   8   2    1.07    0.18
   4   8   2    5.85    0.32
   4   8   2    5.67    0.31
   4   8   2    5.95    0.31
   5   8   2    1.52    0.18
   6   8   2    0.17    0.10
   6   8   2    0.23    0.10
   6   8   2    0.08    0.11
   7   8   2    0.10    0.09
   7   8   2    0.07    0.11
   7   8   2    0.28    0.09
   8   8   2    3.27    0.25
   8   8   2    3.49    0.24
  -9  -8  -2   11.70    0.46
   9   8   2   11.96    0.47
   9   8   2   11.22    0.48
 -10  -8  -2    0.53    0.08
  10   8   2    0.82    0.13
  10   8   2    0.64    0.10
  12  -9  -2   -0.05    0.04
  11  -9  -2    0.20    0.06
 -11   9   2    0.34    0.11
  10  -9  -2    7.69    0.39
 -10   9   2    7.71    0.35
  -9   9   2    1.57    0.21
  -9   9   2    1.71    0.16
  -8   9   2   24.89    1.00
  -8   9   2   26.77    1.00
  -7   9   2    4.89    0.27
  -7   9   2    5.26    0.25
  -7   9   2    4.84    0.29
  -6   9   2    0.07    0.09
  -6   9   2    0.07    0.11
  -6   9   2    0.05    0.06
  -5   9   2    3.23    0.21
  -5   9   2    3.15    0.18
  -5   9   2    2.93    0.24
  -4   9   2   13.46    0.57
  -4   9   2   13.47    0.58
  -4   9   2   14.25    0.54
  -3   9   2    0.40    0.10
  -2   9   2    0.80    0.12
  -1   9   2   65.46    2.38
   1   9   2    0.28    0.13
   1   9   2    0.17    0.10
   1   9   2    0.16    0.10
   2   9   2    7.48    0.36
   2   9   2    7.22    0.35
   2   9   2    7.61    0.36
   3   9   2    3.53    0.23
   3   9   2    3.32    0.24
   3   9   2    3.85    0.24
   4   9   2    1.78    0.18
   4   9   2    1.92    0.19
   4   9   2    1.63    0.23
   5   9   2    1.13    0.18
   5   9   2    1.26    0.17
   5   9   2    0.76    0.17
   6   9   2    0.09    0.09
   6   9   2    0.21    0.09
   6   9   2    0.23    0.11
   7   9   2    0.61    0.14
   7   9   2    0.20    0.10
   7   9   2    0.30    0.10
  -8  -9  -2    0.06    0.06
   8   9   2    0.22    0.08
   8   9   2   -0.01    0.07
  -9  -9  -2    0.41    0.08
   9   9   2    0.22    0.07
   9   9   2    0.30    0.08
  12 -10  -2    0.02    0.04
  11 -10  -2   10.00    0.40
 -11  10   2    9.98    0.42
  10 -10  -2    3.55    0.19
 -10  10   2    3.23    0.20
  -9  10   2    1.83    0.20
  -9  10   2    1.33    0.15
  -8  10   2    4.35    0.24
  -8  10   2    4.47    0.27
  -7  10   2   20.38    0.80
  -7  10   2   20.57    0.80
  -7  10   2   20.32    0.81
  -6  10   2    2.16    0.19
  -6  10   2    2.31    0.16
  -6  10   2    1.93    0.21
  -5  10   2    0.43    0.11
  -5  10   2    0.50    0.11
  -5  10   2    0.57    0.11
  -4  10   2    3.28    0.25
  -4  10   2    3.55    0.19
  -4  10   2    3.52    0.23
  -3  10   2    0.25    0.10
  -3  10   2    0.17    0.07
  -3  10   2    0.28    0.12
  -2  10   2    0.42    0.09
  -2  10   2    0.25    0.11
  -2  10   2    0.24    0.10
  -1  10   2    0.82    0.18
  -1  10   2    0.84    0.17
  -1  10   2    0.71    0.15
  -1  10   2    0.91    0.15
   0  10   2    0.24    0.11
   0  10   2    0.29    0.11
   0  10   2    0.13    0.12
   1  10   2    1.53    0.20
   1  10   2    1.78    0.19
   1  10   2    1.64    0.18
   2  10   2   72.84    2.61
   2  10   2   69.14    2.60
   2  10   2   70.47    2.61
   3  10   2    2.58    0.21
   3  10   2    2.06    0.21
   3  10   2    2.44    0.20
   4  10   2    0.08    0.09
   4  10   2    0.16    0.10
   4  10   2    0.08    0.09
   5  10   2   49.84    1.87
   5  10   2   49.57    1.87
   5  10   2   50.26    1.86
   6  10   2    6.13    0.31
   6  10   2    5.84    0.30
   6  10   2    6.17    0.32
   7  10   2    0.02    0.08
   7  10   2    0.15    0.07
   7  10   2    0.05    0.08
  -8 -10  -2    4.64    0.22
   8  10   2    4.81    0.24
   8  10   2    4.83    0.23
  -9 -10  -2   29.16    1.07
   9  10   2   28.07    1.08
   9  10   2   29.94    1.07
  11 -11  -2   -0.03    0.04
 -11  11   2   -0.02    0.10
  10 -11  -2    0.05    0.05
 -10  11   2    0.02    0.07
  -9  11   2    0.08    0.08
  -8  11   2    0.52    0.10
  -8  11   2    0.58    0.11
  -7  11   2    2.97    0.22
  -7  11   2    2.93    0.20
  -6  11   2    0.67    0.15
  -6  11   2    0.68    0.12
  -6  11   2    0.66    0.12
  -5  11   2    6.44    0.34
  -5  11   2    6.30    0.29
  -5  11   2    5.64    0.34
  -4  11   2   19.88    0.77
  -4  11   2   19.05    0.78
  -4  11   2   19.41    0.76
  -3  11   2    0.03    0.07
  -3  11   2    0.05    0.09
  -3  11   2    0.14    0.10
  -2  11   2    0.08    0.09
  -2  11   2    0.10    0.10
  -2  11   2    0.22    0.09
  -1  11   2   14.31    0.60
  -1  11   2   15.56    0.63
  -1  11   2   14.93    0.61
   0  11   2    0.33    0.10
   0  11   2    0.23    0.11
   0  11   2    0.40    0.11
   1  11   2    0.38    0.10
   1  11   2    0.30    0.10
   1  11   2    0.33    0.11
   2  11   2   -0.08    0.10
   2  11   2    0.11    0.10
   3  11   2   20.19    0.82
   3  11   2   20.13    0.81
   3  11   2   20.58    0.81
   4  11   2   -0.07    0.09
   4  11   2   -0.11    0.08
   4  11   2   -0.05    0.10
   5  11   2    3.23    0.22
   5  11   2    3.39    0.22
   5  11   2    3.43    0.23
   6  11   2   -0.09    0.08
   6  11   2    0.11    0.08
   6  11   2    0.01    0.08
  -7 -11  -2    0.13    0.06
   7  11   2   -0.01    0.07
   7  11   2   -0.03    0.08
   7  11   2    0.04    0.07
  -8 -11  -2    2.06    0.13
   8  11   2    1.90    0.14
   8  11   2    2.14    0.14
  11 -12  -2    0.04    0.04
  10 -12  -2    0.00    0.05
 -10  12   2    0.07    0.07
  -9  12   2    0.50    0.11
  -9  12   2    0.66    0.13
  -8  12   2    0.16    0.08
  -8  12   2    0.11    0.09
  -7  12   2   22.87    0.93
  -7  12   2   24.57    0.94
  -7  12   2   24.88    0.94
  -6  12   2    2.89    0.22
  -6  12   2    3.14    0.21
  -5  12   2    6.50    0.32
  -5  12   2    5.94    0.33
  -5  12   2    6.79    0.31
  -4  12   2    2.96    0.19
  -4  12   2    2.72    0.20
  -4  12   2    2.90    0.22
  -3  12   2    0.23    0.13
  -3  12   2    0.07    0.09
  -2  12   2    0.08    0.11
  -2  12   2    0.02    0.09
  -2  12   2    0.08    0.09
  -1  12   2   14.92    0.63
  -1  12   2   16.18    0.65
  -1  12   2   15.57    0.64
   0  12   2    0.06    0.10
   1  12   2    0.30    0.10
   1  12   2    0.42    0.10
   1  12   2    0.32    0.10
   2  12   2    5.83    0.31
   2  12   2    6.57    0.33
   2  12   2    6.37    0.33
   3  12   2    6.74    0.34
   3  12   2    6.19    0.34
   3  12   2    6.85    0.33
   4  12   2    0.68    0.13
   4  12   2    0.63    0.10
   4  12   2    0.78    0.16
   5  12   2    2.47    0.19
   5  12   2    2.59    0.19
   5  12   2    2.77    0.20
  -6 -12  -2   11.72    0.47
   6  12   2   11.73    0.48
   6  12   2   11.26    0.49
   6  12   2   11.47    0.48
  -7 -12  -2    0.35    0.09
   7  12   2    0.34    0.07
   7  12   2    0.34    0.08
  -8 -12  -2    0.15    0.07
   8  12   2   -0.05    0.06
   8  12   2   -0.05    0.06
  11 -13  -2    0.93    0.08
 -10  13   2    0.21    0.08
  -9  13   2    0.36    0.08
  -9  13   2    0.40    0.10
  -8  13   2   -0.13    0.08
  -8  13   2    0.06    0.07
  -7  13   2   11.78    0.50
  -7  13   2   11.36    0.49
  -7  13   2   11.97    0.49
  -6  13   2    2.32    0.20
  -6  13   2    2.13    0.18
  -6  13   2    1.99    0.17
  -5  13   2    2.56    0.21
  -5  13   2    2.97    0.20
  -5  13   2    2.54    0.20
  -4  13   2   14.29    0.59
  -4  13   2   13.91    0.58
  -4  13   2   14.18    0.58
  -3  13   2    0.19    0.09
  -3  13   2    0.13    0.11
  -3  13   2    0.11    0.10
  -2  13   2    0.82    0.16
  -2  13   2    0.64    0.15
  -1  13   2  173.73    6.30
  -1  13   2  173.42    6.29
   0  13   2    0.06    0.10
   0  13   2    0.11    0.11
   0  13   2   -0.03    0.08
   1  13   2    2.55    0.20
   1  13   2    1.93    0.19
   1  13   2    1.76    0.20
   2  13   2   25.99    1.00
   2  13   2   25.92    1.02
   2  13   2   25.82    1.01
   3  13   2    0.12    0.09
   3  13   2    0.11    0.09
   3  13   2    0.25    0.10
  -4 -13  -2    0.02    0.08
   4  13   2    0.16    0.08
   4  13   2    0.34    0.10
   4  13   2    0.08    0.08
  -5 -13  -2    6.07    0.28
   5  13   2    5.87    0.30
   5  13   2    6.34    0.30
   5  13   2    6.25    0.30
  -6 -13  -2    0.56    0.10
   6  13   2    0.73    0.11
   6  13   2    0.52    0.12
  -7 -13  -2    0.42    0.08
   7  13   2    0.39    0.10
  10 -14  -2    0.38    0.07
 -10  14   2    0.43    0.09
  -9  14   2    0.67    0.14
  -9  14   2    0.55    0.11
  -8  14   2    0.98    0.14
  -8  14   2    0.93    0.14
  -7  14   2    3.28    0.21
  -7  14   2    3.54    0.22
  -6  14   2    0.14    0.09
  -6  14   2    0.21    0.09
  -6  14   2    0.06    0.09
  -5  14   2    0.08    0.09
  -5  14   2    0.11    0.09
  -5  14   2   -0.04    0.09
  -4  14   2    0.27    0.09
  -4  14   2    0.61    0.15
  -4  14   2    0.51    0.12
  -3  14   2    2.54    0.19
  -3  14   2    1.80    0.23
  -3  14   2    1.94    0.19
  -2  14   2    0.61    0.15
  -2  14   2    0.66    0.15
  -1  14   2    3.16    0.22
  -1  14   2    3.28    0.21
   0  14   2    7.76    0.38
   0  14   2    8.25    0.37
   1  14   2    0.14    0.08
   1  14   2   -0.02    0.10
   1  14   2    0.21    0.10
   2  14   2    2.48    0.19
   2  14   2    2.86    0.21
   2  14   2    2.59    0.20
  -3 -14  -2    6.25    0.37
   3  14   2    7.93    0.36
   3  14   2    8.25    0.36
   3  14   2    7.94    0.36
  -4 -14  -2    0.80    0.14
   4  14   2    0.75    0.13
   4  14   2    0.65    0.13
   4  14   2    0.76    0.13
  -5 -14  -2    0.08    0.07
   5  14   2    0.19    0.07
   5  14   2    0.11    0.07
  -6 -14  -2    3.13    0.16
   6  14   2    3.05    0.17
   6  14   2    3.16    0.17
  10 -15  -2    2.44    0.12
  -9  15   2    0.30    0.09
  -9  15   2    0.15    0.09
  -8  15   2    0.91    0.13
  -8  15   2    0.80    0.13
  -7  15   2    5.67    0.27
  -7  15   2    5.75    0.28
  -7  15   2    5.81    0.28
  -6  15   2    0.09    0.08
  -6  15   2    0.14    0.10
  -5  15   2    0.41    0.12
  -5  15   2    0.36    0.09
  -5  15   2    0.37    0.09
  -4  15   2    6.03    0.34
  -4  15   2    6.92    0.33
  -4  15   2    7.09    0.32
  -3  15   2    0.12    0.08
  -3  15   2    0.05    0.08
  -2  15   2    5.30    0.27
  -2  15   2    5.01    0.28
  -1  15   2    8.99    0.41
  -1  15   2    8.69    0.40
   0  15   2    0.21    0.09
   0  15   2    0.17    0.08
   1  15   2    0.78    0.15
   1  15   2    0.82    0.14
   3  15   2    1.03    0.12
   3  15   2    0.71    0.14
  -4 -15  -2    0.83    0.16
   4  15   2    1.15    0.12
   4  15   2    1.13    0.13
  -5 -15  -2   20.89    0.78
   5  15   2   20.52    0.79
   5  15   2   20.70    0.78
   6  15   2    1.42    0.12
   6  15   2    1.33    0.11
   9 -16  -2    0.01    0.04
  -8  16   2    0.00    0.10
  -7  16   2    0.01    0.09
  -7  16   2   -0.10    0.07
  -6  16   2    0.88    0.16
  -6  16   2    0.84    0.12
  -6  16   2    0.63    0.12
  -5  16   2    0.14    0.08
  -5  16   2    0.22    0.07
  -4  16   2    3.38    0.23
  -4  16   2    3.68    0.26
  -3  16   2    0.85    0.15
  -3  16   2    0.98    0.15
  -2  16   2    0.06    0.07
  -2  16   2   -0.12    0.07
  -1  16   2    4.49    0.25
  -1  16   2    4.17    0.24
   0  16   2    3.84    0.22
   0  16   2    3.40    0.26
   1  16   2    0.30    0.09
   1  16   2    0.27    0.08
   2  16   2    6.38    0.30
   2  16   2    6.35    0.30
   3  16   2    1.73    0.15
   3  16   2    2.05    0.14
   4  16   2    0.39    0.09
   5  16   2    0.21    0.06
   5  16   2    0.39    0.10
  -8  17   2    0.07    0.11
  -6  17   2    0.19    0.07
  -6  17   2    0.07    0.05
  -5  17   2    1.87    0.15
  -5  17   2    2.14    0.14
  -4  17   2    0.97    0.12
  -4  17   2    1.09    0.13
  -3  17   2    0.02    0.07
  -3  17   2    0.06    0.06
  -2  17   2    2.00    0.15
  -2  17   2    1.73    0.15
  -1  17   2    0.27    0.08
  -1  17   2    0.35    0.08
   0  17   2    2.33    0.16
   0  17   2    1.84    0.16
   1  17   2    0.02    0.06
   1  17   2    0.08    0.07
   2  17   2    1.27    0.12
   2  17   2    1.50    0.12
   3  17   2    0.49    0.09
   4  17   2   -0.01    0.05
  -7  18   2    1.51    0.22
  -6  18   2    0.18    0.07
  -5  18   2    0.82    0.10
  -5  18   2    0.65    0.10
  -4  18   2   10.80    0.44
  -4  18   2   10.99    0.44
  -3  18   2    0.01    0.06
  -3  18   2   -0.01    0.06
  -2  18   2    0.07    0.06
  -2  18   2    0.02    0.06
   1 -18  -2    0.44    0.11
  -1  18   2    0.57    0.10
  -1  18   2    0.70    0.10
   0  18   2    0.69    0.10
   0  18   2    0.70    0.10
  -1 -18  -2   -0.02    0.07
   1  18   2    0.15    0.06
   1  18   2    0.10    0.06
  -2 -18  -2    3.31    0.16
   2  18   2    3.04    0.16
   2  18   2    2.93    0.16
  -5  19   2    0.25    0.07
  -4  19   2    0.11    0.06
  -4  19   2    0.24    0.05
  -3  19   2    0.01    0.05
  -3  19   2    0.04    0.05
  -2  19   2    0.00    0.06
  -2  19   2   -0.03    0.05
  -1  19   2    6.12    0.26
   0  19   2    0.49    0.09
   0  19   2    0.64    0.09
   1  19  -3    0.58    0.08
   1  19  -3    0.53    0.10
   0  19  -3    8.86    0.36
  -1  19  -3    0.10    0.06
  -1  19  -3    0.19    0.06
  -2  19  -3    0.24    0.06
  -2  19  -3    0.18    0.05
  -3  19  -3    2.29    0.14
  -3  19  -3    2.34    0.13
  -4  19  -3    0.46    0.09
  -4  19  -3    0.44    0.08
  -5  19  -3    0.05    0.05
   3  18  -3    0.15    0.07
   3  18  -3    0.02    0.07
   2  18  -3    0.65    0.09
   2  18  -3    0.51    0.10
   1  18  -3    1.76    0.13
   1  18  -3    1.80    0.14
   0  18  -3    0.12    0.07
   0  18  -3    0.15    0.06
  -1  18  -3    0.26    0.07
  -1  18  -3    0.35    0.08
  -2  18  -3    1.03    0.11
  -2  18  -3    0.85    0.11
  -3  18  -3    7.64    0.33
  -3  18  -3    7.90    0.34
  -4  18  -3    0.09    0.06
  -4  18  -3    0.10    0.06
  -5  18  -3    0.10    0.05
  -5  18  -3    0.10    0.06
  -6  18  -3    0.02    0.05
   4  17  -3    1.13    0.13
   4  17  -3    1.27    0.11
   3  17  -3    5.52    0.26
   3  17  -3    5.91    0.26
   2  17  -3    0.52    0.11
   2  17  -3    0.57    0.13
   1  17  -3    0.06    0.07
   1  17  -3    0.15    0.07
   0  17  -3    1.99    0.16
   0  17  -3    1.71    0.15
  -1  17  -3    1.24    0.15
  -1  17  -3    1.64    0.15
  -2  17  -3    1.21    0.13
  -2  17  -3    0.80    0.13
  -3  17  -3    1.81    0.15
  -3  17  -3    1.74    0.14
  -4  17  -3    0.00    0.06
  -4  17  -3    0.01    0.06
  -5  17  -3    0.20    0.07
  -5  17  -3    0.16    0.06
  -6  17  -3   34.97    1.29
  -6  17  -3   34.13    1.29
  -6  17  -3   35.15    1.30
  -7  17  -3    0.92    0.10
  -8  17  -3    0.03    0.06
   5  16  -3    1.66    0.11
   5  16  -3    1.42    0.12
   5  16  -3    1.71    0.15
   4  16  -3    0.20    0.08
   4  16  -3    0.41    0.10
   4  16  -3    0.21    0.06
   3  16  -3    0.00    0.08
   3  16  -3    0.17    0.06
   3  16  -3    0.05    0.07
   2  16  -3    0.16    0.09
   2  16  -3    0.05    0.08
   2  16  -3    0.06    0.07
   1  16  -3    1.50    0.19
   1  16  -3    1.72    0.16
   0  16  -3    0.23    0.13
   0  16  -3   -0.05    0.08
   0  16  -3    0.11    0.08
  -1  16  -3    4.68    0.24
  -1  16  -3    4.25    0.25
  -2  16  -3    0.64    0.14
  -2  16  -3    0.36    0.09
  -3  16  -3    3.31    0.22
  -3  16  -3    3.45    0.21
  -4  16  -3    0.11    0.12
  -4  16  -3    0.06    0.14
  -5  16  -3    0.10    0.07
  -5  16  -3    0.06    0.07
  -5  16  -3    0.06    0.12
  -6  16  -3    1.58    0.14
  -6  16  -3    1.56    0.18
  -6  16  -3    1.48    0.13
  -7  16  -3    0.47    0.13
  -7  16  -3    0.45    0.10
  -8  16  -3    0.10    0.09
  -8  16  -3    0.03    0.06
   6  15  -3    8.74    0.35
   6  15  -3    8.64    0.35
   6  15  -3    8.34    0.34
  -6 -15   3    7.39    0.35
   5  15  -3    0.30    0.09
   5  15  -3    0.26    0.07
   5  15  -3    0.23    0.07
   4  15  -3    1.81    0.16
   4  15  -3    1.91    0.17
   4  15  -3    1.93    0.15
   3  15  -3    1.82    0.25
   3  15  -3    2.21    0.18
   2  15  -3    2.06    0.18
   2  15  -3    1.97    0.19
   2  15  -3    2.16    0.20
   1  15  -3    8.55    0.41
   1  15  -3    9.04    0.39
   1  15  -3    8.69    0.40
   0  15  -3   25.58    0.98
   0  15  -3   24.89    0.97
   0  15  -3   24.89    0.98
  -1  15  -3    1.95    0.18
  -1  15  -3    2.03    0.19
  -2  15  -3    0.32    0.09
  -2  15  -3    0.35    0.10
  -3  15  -3    3.80    0.32
  -3  15  -3    3.56    0.22
  -3  15  -3    3.98    0.24
  -4  15  -3    0.25    0.12
  -4  15  -3    0.41    0.09
  -4  15  -3    0.28    0.09
  -5  15  -3   -0.07    0.07
  -5  15  -3   -0.03    0.08
  -5  15  -3   -0.06    0.10
  -6  15  -3   10.53    0.51
  -6  15  -3   12.40    0.48
  -6  15  -3   12.13    0.50
  -7  15  -3    0.66    0.12
  -8  15  -3    0.03    0.06
  -8  15  -3    0.13    0.08
  -9  15  -3    5.35    0.27
  -9  15  -3    5.79    0.28
   9 -15   3    5.60    0.29
   7  14  -3    4.20    0.21
   7  14  -3    4.45    0.20
  -7 -14   3    4.30    0.20
   6  14  -3    0.56    0.11
   6  14  -3    0.63    0.11
   6  14  -3    0.53    0.14
   5  14  -3    0.24    0.10
   5  14  -3    0.24    0.08
   5  14  -3    0.14    0.07
   4  14  -3    1.14    0.15
   4  14  -3    1.33    0.16
   4  14  -3    1.47    0.17
   3  14  -3    0.21    0.09
   3  14  -3    0.18    0.10
   3  14  -3    0.34    0.11
   2  14  -3    2.05    0.21
   2  14  -3    2.29    0.20
   2  14  -3    2.59    0.19
   1  14  -3    0.16    0.10
   1  14  -3    0.05    0.09
   1  14  -3    0.19    0.12
   0  14  -3   21.70    0.86
   0  14  -3   21.63    0.87
   0  14  -3   21.93    0.85
  -1  14  -3   -0.07    0.15
  -1  14  -3    0.07    0.09
  -1  14  -3    0.05    0.08
  -2  14  -3    0.02    0.09
  -2  14  -3   -0.07    0.09
  -3  14  -3    2.33    0.19
  -3  14  -3    2.13    0.19
  -4  14  -3    3.01    0.21
  -4  14  -3    3.17    0.21
  -4  14  -3    3.10    0.21
  -5  14  -3    1.26    0.15
  -5  14  -3    1.43    0.16
  -5  14  -3    1.32    0.15
  -6  14  -3   19.60    0.75
  -6  14  -3   18.92    0.74
  -6  14  -3   17.60    0.74
  -7  14  -3    2.40    0.18
  -7  14  -3    1.95    0.19
  -8  14  -3    0.30    0.08
  -8  14  -3    0.17    0.07
  -9  14  -3    1.53    0.12
  -9  14  -3    1.64    0.13
   9 -14   3    1.55    0.11
  10 -14   3    0.71    0.09
   8  13  -3    0.21    0.06
   8  13  -3    0.25    0.07
  -8 -13   3    0.15    0.06
   7  13  -3    1.93    0.15
   7  13  -3    1.93    0.18
   7  13  -3    2.03    0.14
   6  13  -3    0.23    0.07
   6  13  -3    0.29    0.08
   6  13  -3    0.37    0.10
   5  13  -3    0.05    0.08
   5  13  -3   -0.08    0.09
   5  13  -3   -0.09    0.07
   4  13  -3    1.59    0.16
   4  13  -3    1.29    0.18
   4  13  -3    1.51    0.18
   3  13  -3    1.08    0.20
   3  13  -3    0.65    0.13
   3  13  -3    0.79    0.14
   3  13  -3    0.88    0.18
   2  13  -3    0.14    0.11
   2  13  -3   -0.04    0.10
   2  13  -3   -0.13    0.08
   1  13  -3   -0.08    0.12
   1  13  -3    0.03    0.09
   1  13  -3    0.17    0.09
   0  13  -3    0.54    0.14
   0  13  -3    0.22    0.09
   0  13  -3    0.29    0.11
  -1  13  -3    0.45    0.11
  -1  13  -3    0.76    0.14
  -1  13  -3    0.39    0.25
  -2  13  -3    0.90    0.18
  -2  13  -3    0.56    0.14
  -2  13  -3    0.61    0.16
  -3  13  -3    3.25    0.20
  -3  13  -3    2.63    0.21
  -3  13  -3    2.97    0.22
  -4  13  -3    0.83    0.15
  -4  13  -3    0.62    0.13
  -4  13  -3    0.66    0.15
  -5  13  -3    0.47    0.10
  -5  13  -3    0.54    0.13
  -5  13  -3    0.82    0.14
  -6  13  -3    2.85    0.20
  -6  13  -3    3.01    0.20
  -6  13  -3    2.28    0.18
  -7  13  -3    1.56    0.16
  -7  13  -3    1.70    0.15
  -8  13  -3    0.22    0.08
  -8  13  -3    0.20    0.08
  -9  13  -3    0.85    0.11
  -9  13  -3    0.68    0.13
 -10  13  -3    0.07    0.09
  10 -13   3    0.12    0.05
   9  12  -3    0.05    0.05
  -9 -12   3    0.01    0.04
   8  12  -3    1.20    0.11
   8  12  -3    1.28    0.13
   7  12  -3    2.83    0.18
   7  12  -3    2.77    0.17
   7  12  -3    2.36    0.20
   6  12  -3    5.47    0.29
   6  12  -3    5.46    0.27
   5  12  -3    0.13    0.08
   5  12  -3    0.33    0.11
   5  12  -3    0.37    0.11
   5  12  -3    0.40    0.09
   4  12  -3    1.82    0.18
   4  12  -3    1.65    0.20
   4  12  -3    1.69    0.19
   4  12  -3    1.85    0.17
   3  12  -3  104.66    3.76
   3  12  -3  103.57    3.75
   3  12  -3  101.55    3.73
   3  12  -3  100.56    3.75
   2  12  -3    0.02    0.11
   2  12  -3   -0.09    0.10
   2  12  -3   -0.09    0.08
   2  12  -3    0.02    0.13
   1  12  -3    0.15    0.11
   1  12  -3    0.12    0.11
   1  12  -3    0.01    0.12
   0  12  -3   37.21    1.37
   0  12  -3   36.30    1.38
   0  12  -3   35.15    1.36
  -1  12  -3    0.19    0.08
  -1  12  -3    0.37    0.18
  -1  12  -3    0.10    0.10
  -2  12  -3    0.29    0.09
  -2  12  -3    0.46    0.11
  -2  12  -3    0.36    0.10
  -3  12  -3    2.44    0.20
  -3  12  -3    1.46    0.22
  -3  12  -3    2.14    0.17
  -4  12  -3    0.68    0.15
  -4  12  -3    1.16    0.14
  -4  12  -3    0.89    0.16
  -5  12  -3    2.14    0.19
  -5  12  -3    2.19    0.19
  -5  12  -3    2.62    0.18
  -6  12  -3    1.38    0.17
  -6  12  -3    1.71    0.17
  -6  12  -3    1.62    0.15
  -7  12  -3   -0.01    0.07
  -7  12  -3    0.02    0.09
  -8  12  -3    0.02    0.08
  -8  12  -3    0.09    0.08
  -9  12  -3    3.10    0.19
  -9  12  -3    3.12    0.19
 -10  12  -3   -0.09    0.08
  10 -12   3    0.04    0.05
  11 -12   3    1.32    0.10
   9  11  -3    2.66    0.17
   9  11  -3    2.78    0.15
   8  11  -3    0.28    0.08
   8  11  -3    0.42    0.10
   8  11  -3    0.39    0.11
   7  11  -3    1.27    0.19
   7  11  -3    1.64    0.18
   6  11  -3    0.26    0.11
   6  11  -3    0.16    0.08
   6  11  -3    0.21    0.10
   6  11  -3    0.26    0.08
   5  11  -3    3.42    0.21
   5  11  -3    2.77    0.24
   5  11  -3    2.86    0.20
   5  11  -3    3.06    0.22
   4  11  -3    0.82    0.13
   4  11  -3    0.92    0.15
   4  11  -3    0.96    0.16
   4  11  -3    0.78    0.19
   3  11  -3    8.16    0.39
   3  11  -3    7.96    0.39
   3  11  -3    6.48    0.42
   3  11  -3    8.20    0.37
   2  11  -3    0.64    0.15
   2  11  -3    0.65    0.13
   2  11  -3    0.68    0.18
   2  11  -3    0.26    0.14
   1  11  -3    1.25    0.16
   1  11  -3    1.19    0.22
   1  11  -3    1.19    0.19
   0  11  -3   20.64    0.78
   0  11  -3   19.33    0.77
   0  11  -3   18.99    0.80
  -1  11  -3    0.00    0.07
  -1  11  -3    0.15    0.10
  -2  11  -3    3.60    0.23
  -2  11  -3    4.08    0.22
  -2  11  -3    3.63    0.25
  -3  11  -3   24.93    0.97
  -3  11  -3   26.08    0.98
  -3  11  -3   25.88    0.99
  -4  11  -3    1.95    0.15
  -4  11  -3    1.95    0.18
  -4  11  -3    2.00    0.19
  -5  11  -3    0.01    0.08
  -5  11  -3   -0.02    0.07
  -5  11  -3   -0.05    0.09
  -6  11  -3   15.67    0.61
  -6  11  -3   14.39    0.61
  -6  11  -3   14.18    0.60
  -7  11  -3    8.52    0.39
  -7  11  -3    8.69    0.39
  -8  11  -3    0.34    0.08
  -8  11  -3    0.57    0.14
  -9  11  -3    0.02    0.08
  -9  11  -3    0.07    0.08
 -10  11  -3    1.33    0.15
  10 -11   3    1.52    0.12
  11 -11   3    0.18    0.05
  10  10  -3   -0.01    0.05
 -10 -10   3    0.06    0.05
   9  10  -3    0.03    0.08
   9  10  -3    0.03    0.05
   8  10  -3   -0.09    0.08
   8  10  -3   -0.06    0.11
   8  10  -3   -0.06    0.06
   7  10  -3    5.87    0.28
   7  10  -3    5.56    0.31
   7  10  -3    5.38    0.27
   7  10  -3    5.18    0.29
   6  10  -3    1.78    0.19
   6  10  -3    1.36    0.21
   6  10  -3    1.52    0.16
   6  10  -3    1.22    0.16
   5  10  -3    2.84    0.22
   5  10  -3    3.00    0.21
   5  10  -3    3.12    0.24
   5  10  -3    3.06    0.20
   4  10  -3   10.04    0.44
   4  10  -3   10.19    0.46
   3  10  -3    8.92    0.41
   3  10  -3    9.09    0.40
   3  10  -3    9.28    0.43
   3  10  -3    9.13    0.42
   2  10  -3    0.54    0.13
   2  10  -3    0.37    0.14
   2  10  -3    0.63    0.13
   2  10  -3    0.59    0.14
   1  10  -3    0.20    0.12
   1  10  -3    0.14    0.13
   1  10  -3   -0.01    0.09
   0  10  -3   23.56    0.89
   0  10  -3   21.97    0.88
  -1  10  -3    0.04    0.11
  -1  10  -3    0.08    0.11
  -1  10  -3   -0.13    0.09
  -2  10  -3    0.17    0.12
  -2  10  -3    0.25    0.10
  -3  10  -3   37.87    1.44
  -3  10  -3   38.74    1.43
  -3  10  -3   38.21    1.42
  -4  10  -3    0.96    0.17
  -4  10  -3    0.51    0.11
  -4  10  -3    0.82    0.12
  -5  10  -3    0.62    0.12
  -5  10  -3    0.63    0.16
  -5  10  -3    0.83    0.16
  -6  10  -3    8.50    0.39
  -6  10  -3    8.87    0.39
  -6  10  -3    9.06    0.40
  -7  10  -3    9.49    0.40
  -7  10  -3    8.35    0.40
  -8  10  -3    5.70    0.28
  -8  10  -3    4.88    0.27
  -9  10  -3    6.90    0.34
  -9  10  -3    7.23    0.34
   9 -10   3    7.53    0.32
  10 -10   3    0.74    0.11
  11 -10   3   -0.01    0.05
  10   9  -3    1.02    0.10
   9   9  -3    5.36    0.28
   9   9  -3    5.26    0.25
   8   9  -3    1.70    0.19
   8   9  -3    1.85    0.16
   8   9  -3    1.92    0.21
   7   9  -3   20.54    0.84
   7   9  -3   20.52    0.84
   7   9  -3   20.82    0.82
   7   9  -3   22.21    0.83
   6   9  -3    0.52    0.14
   6   9  -3    0.47    0.10
   6   9  -3    0.27    0.11
   6   9  -3    0.63    0.15
   5   9  -3    2.06    0.19
   5   9  -3    2.24    0.21
   5   9  -3    2.46    0.20
   5   9  -3    2.78    0.25
   4   9  -3    1.86    0.23
   4   9  -3    1.72    0.17
   4   9  -3    1.50    0.19
   4   9  -3    1.64    0.18
   3   9  -3    4.16    0.25
   3   9  -3    4.58    0.28
   3   9  -3    4.73    0.26
   3   9  -3    4.22    0.28
   2   9  -3   -0.03    0.12
   2   9  -3    0.13    0.08
  -1  -9   3    0.35    0.05
   0  -9   3    8.18    0.31
  -1   9  -3    0.17    0.08
   1  -9   3    0.25    0.06
  -2   9  -3    0.22    0.07
  -3   9  -3   13.10    0.52
  -3   9  -3   12.25    0.53
  -4   9  -3    2.05    0.19
  -4   9  -3    1.73    0.20
  -4   9  -3    1.98    0.14
  -5   9  -3    0.31    0.09
  -5   9  -3    0.77    0.16
  -5   9  -3    0.51    0.11
  -6   9  -3    3.68    0.24
  -6   9  -3    3.84    0.23
  -6   9  -3    3.74    0.21
  -7   9  -3    1.55    0.17
  -7   9  -3    1.50    0.15
  -8   9  -3    5.79    0.29
  -8   9  -3    4.82    0.27
  -9   9  -3   17.02    0.65
  -9   9  -3   14.65    0.64
   9  -9   3   15.87    0.63
 -10   9  -3    0.90    0.16
  10  -9   3    0.55    0.11
  11  -9   3   -0.03    0.05
  11   8  -3    0.02    0.05
 -11  -8   3    0.03    0.05
  10   8  -3    2.31    0.15
   9   8  -3   -0.05    0.12
   9   8  -3    0.03    0.10
   9   8  -3    0.00    0.07
   8   8  -3    0.29    0.09
   8   8  -3    0.18    0.13
   8   8  -3    0.31    0.08
   8   8  -3    0.36    0.11
   7   8  -3    2.92    0.22
   7   8  -3    3.03    0.26
   7   8  -3    2.78    0.19
   7   8  -3    2.99    0.20
   6   8  -3   28.58    1.08
   6   8  -3   27.97    1.10
   6   8  -3   28.35    1.07
   6   8  -3   27.90    1.09
   5   8  -3    0.72    0.15
   5   8  -3    0.59    0.11
   5   8  -3    0.50    0.10
   5   8  -3    0.42    0.11
   4   8  -3    4.28    0.30
   4   8  -3    4.34    0.24
   4   8  -3    4.22    0.24
  -4  -8   3    3.87    0.26
   3   8  -3   37.82    1.48
   3   8  -3   40.01    1.50
  -3  -8   3   41.59    1.47
  -2  -8   3    0.23    0.05
  -1  -8   3    7.32    0.29
  -1  -8   3    7.37    0.29
   0  -8   3   12.15    0.45
   0  -8   3   11.73    0.44
  -1   8  -3    6.19    0.28
   1  -8   3    6.52    0.24
   1  -8   3    6.38    0.25
  -2   8  -3    0.09    0.06
   2  -8   3    0.11    0.04
   2  -8   3    0.08    0.03
  -3   8  -3    3.37    0.18
   3  -8   3    3.58    0.17
  -4   8  -3    2.64    0.21
  -4   8  -3    2.79    0.16
  -5   8  -3    0.27    0.10
  -5   8  -3    0.45    0.11
  -5   8  -3    0.38    0.10
  -6   8  -3   42.39    1.55
  -6   8  -3   42.77    1.56
  -6   8  -3   39.90    1.55
  -7   8  -3    1.19    0.14
  -7   8  -3    1.23    0.17
  -8   8  -3    0.52    0.11
  -9   8  -3    0.18    0.09
  -9   8  -3    0.15    0.09
   9  -8   3    0.12    0.08
 -10   8  -3   10.85    0.47
  10  -8   3   11.51    0.46
  11  -8   3   -0.02    0.05
  12  -8   3    0.10    0.08
  12  -8   3    0.08    0.06
  11   7  -3    0.00    0.05
 -11  -7   3   -0.04    0.06
  10   7  -3    2.46    0.16
   9   7  -3   13.51    0.57
   9   7  -3   13.24    0.58
   9   7  -3   14.23    0.56
   8   7  -3    0.26    0.11
   8   7  -3    0.07    0.13
   8   7  -3   -0.07    0.07
   8   7  -3   -0.01    0.08
   7   7  -3   23.92    0.92
   7   7  -3   23.30    0.91
   7   7  -3   22.82    0.92
   7   7  -3   23.31    0.90
   6   7  -3   24.36    0.93
   6   7  -3   24.73    0.95
   6   7  -3   23.59    0.95
   6   7  -3   24.20    0.94
   5   7  -3    2.69    0.25
   5   7  -3    2.49    0.22
   5   7  -3    2.96    0.20
   5   7  -3    2.92    0.20
   4   7  -3    1.00    0.19
   4   7  -3    1.04    0.17
   4   7  -3    1.15    0.17
  -4  -7   3    1.19    0.14
   3   7  -3  190.93    6.98
  -3  -7   3  196.71    6.98
  -2  -7   3    0.05    0.03
  -1  -7   3    0.95    0.07
  -1  -7   3    0.90    0.06
   0  -7   3   82.38    2.99
   0  -7   3   83.87    2.99
   1  -7   3    3.50    0.14
   1  -7   3    3.57    0.14
  -2   7  -3    1.77    0.12
   2  -7   3    1.69    0.09
  -3   7  -3    2.41    0.14
  -3   7  -3    2.37    0.12
   3  -7   3    2.31    0.12
  -4   7  -3    0.01    0.05
  -4   7  -3    0.17    0.06
   4  -7   3    0.07    0.06
  -5   7  -3    1.93    0.13
  -5   7  -3    1.74    0.19
  -5   7  -3    1.85    0.18
  -5   7  -3    1.36    0.19
  -6   7  -3    8.24    0.36
  -6   7  -3    8.47    0.39
  -6   7  -3    8.58    0.39
  -7   7  -3    0.12    0.08
  -7   7  -3    0.06    0.13
  -8   7  -3    7.97    0.35
  -8   7  -3    7.16    0.37
  -9   7  -3    1.29    0.17
   9  -7   3    1.43    0.15
 -10   7  -3    0.00    0.10
  10  -7   3    0.02    0.11
  11  -7   3    0.63    0.11
  11  -7   3    0.56    0.12
  12  -7   3    0.84    0.13
  12  -7   3    0.97    0.10
  11   6  -3    0.16    0.06
 -11  -6   3    0.23    0.08
  10   6  -3   11.15    0.46
   9   6  -3    0.78    0.13
   9   6  -3    0.37    0.14
   9   6  -3    0.46    0.14
   8   6  -3    0.18    0.08
   8   6  -3    0.12    0.12
   8   6  -3    0.18    0.13
   8   6  -3    0.15    0.08
   7   6  -3    3.15    0.26
   7   6  -3    3.67    0.22
   7   6  -3    3.52    0.22
   6   6  -3    9.75    0.44
   6   6  -3    9.36    0.45
   6   6  -3    8.84    0.41
   6   6  -3    9.50    0.41
   5   6  -3    0.41    0.13
   5   6  -3    0.23    0.09
   5   6  -3    0.12    0.09
  -4  -6   3    2.14    0.14
   3   6  -3    2.94    0.16
  -3  -6   3    3.18    0.15
  -2  -6   3    2.17    0.10
  -1  -6   3    0.16    0.04
   0  -6   3  418.25   14.64
   0  -6   3  396.03   14.64
   1  -6   3    0.80    0.05
  -2   6  -3    0.81    0.09
  -2   6  -3    0.81    0.06
   2  -6   3    0.80    0.06
  -3   6  -3   63.24    2.30
  -3   6  -3   63.59    2.29
   3  -6   3   63.07    2.29
  -4   6  -3   14.13    0.54
  -4   6  -3   14.55    0.53
   4  -6   3   13.06    0.53
  -5   6  -3    1.30    0.16
  -5   6  -3    1.34    0.14
  -6   6  -3    9.42    0.38
  -6   6  -3    8.81    0.41
  -7   6  -3    0.80    0.13
  -7   6  -3    0.63    0.12
  -8   6  -3    1.42    0.18
  -8   6  -3    1.44    0.14
   8  -6   3    1.06    0.15
  -9   6  -3    1.85    0.19
   9  -6   3    1.95    0.17
 -10   6  -3    0.61    0.14
  10  -6   3    0.82    0.13
  11  -6   3    0.29    0.08
  11  -6   3    0.32    0.07
  12  -6   3    3.61    0.18
  12  -6   3    3.83    0.19
  12   5  -3    0.42    0.08
  11   5  -3    0.09    0.06
 -11  -5   3   -0.01    0.07
  10   5  -3    0.99    0.12
   9   5  -3    0.30    0.14
   9   5  -3    0.31    0.08
   8   5  -3    0.23    0.08
   8   5  -3    0.15    0.08
   8   5  -3    0.29    0.14
   8   5  -3    0.20    0.14
   7   5  -3   15.73    0.65
   7   5  -3   15.68    0.67
   7   5  -3   15.85    0.66
   7   5  -3   16.64    0.64
   6   5  -3    0.34    0.10
   6   5  -3    0.20    0.16
   6   5  -3    0.60    0.13
   6   5  -3    0.47    0.09
   5   5  -3    2.76    0.31
   5   5  -3    2.80    0.30
  -5  -5   3    1.96    0.16
   4   5  -3   29.84    1.15
  -4  -5   3   32.47    1.15
   3   5  -3    3.27    0.15
  -3  -5   3    3.24    0.15
   2   5  -3    2.75    0.12
  -2  -5   3    2.80    0.12
   0  -5   3  137.15    4.93
   0  -5   3  136.76    4.92
   1  -5   3    0.98    0.05
  -2   5  -3    1.56    0.08
   2  -5   3    1.65    0.08
  -3   5  -3    8.34    0.34
  -3   5  -3    8.28    0.32
   3  -5   3    8.64    0.32
  -4   5  -3    3.57    0.17
  -4   5  -3    3.33    0.16
   4  -5   3    3.27    0.16
  -5   5  -3    0.36    0.07
  -5   5  -3    0.47    0.11
  -6   5  -3    1.00    0.11
  -6   5  -3    0.67    0.18
  -7   5  -3    0.16    0.10
  -7   5  -3    0.04    0.07
  -8   5  -3    0.03    0.09
  -8   5  -3    0.09    0.10
   8  -5   3   -0.11    0.08
  -9   5  -3    0.15    0.11
   9  -5   3    0.07    0.08
  10  -5   3    2.38    0.17
  11  -5   3    0.22    0.06
  11  -5   3    0.09    0.07
  12  -5   3    0.38    0.08
  12  -5   3    0.57    0.10
  12   4  -3    2.41    0.17
  11   4  -3    0.35    0.07
 -11  -4   3    0.29    0.09
  10   4  -3    1.05    0.13
   9   4  -3    1.18    0.23
   9   4  -3    1.46    0.15
   9   4  -3    1.30    0.16
   8   4  -3    2.51    0.18
   8   4  -3    2.15    0.26
   8   4  -3    2.57    0.19
   8   4  -3    2.46    0.27
   7   4  -3    9.11    0.45
   7   4  -3    9.46    0.41
   7   4  -3    8.94    0.45
   7   4  -3    9.96    0.41
   6   4  -3    5.84    0.29
   6   4  -3    5.98    0.34
   6   4  -3    5.55    0.28
  -5  -4   3    0.05    0.06
   4   4  -3    1.84    0.12
  -4  -4   3    1.90    0.10
   3   4  -3    6.46    0.26
  -3  -4   3    6.83    0.26
  -2  -4   3    0.52    0.04
  -1  -4   3    6.60    0.25
   0  -4   3  545.16   20.59
   0  -4   3  600.50   20.60
  -1   4  -3    0.00    0.01
   1  -4   3    0.02    0.01
  -2   4  -3    1.38    0.07
   2  -4   3    1.41    0.07
  -3   4  -3  163.40    5.91
   3  -4   3  165.12    5.91
  -4   4  -3    8.02    0.31
  -4   4  -3    8.35    0.32
   4  -4   3    7.38    0.31
  -5   4  -3    0.79    0.10
  -5   4  -3    0.76    0.10
  -6   4  -3    0.20    0.07
  -6   4  -3    0.28    0.12
  -7   4  -3    1.40    0.18
  -7   4  -3    1.33    0.13
   7  -4   3    1.20    0.17
  -8   4  -3    2.76    0.20
   8  -4   3    2.57    0.19
  -9   4  -3    0.08    0.13
   9  -4   3    0.13    0.08
  10  -4   3    2.97    0.19
  11  -4   3    0.23    0.08
  11  -4   3   -0.01    0.06
  12  -4   3    0.75    0.11
  12  -4   3    0.78    0.12
  12   3  -3    0.01    0.05
  11   3  -3    3.69    0.20
 -11  -3   3    3.75    0.23
  10   3  -3   11.82    0.49
   9   3  -3    0.97    0.24
   9   3  -3    1.05    0.14
   9   3  -3    0.71    0.16
   8   3  -3    0.00    0.09
   8   3  -3    0.08    0.14
   8   3  -3    0.19    0.08
   7   3  -3   39.28    1.39
   7   3  -3   38.40    1.38
   7   3  -3   36.24    1.40
   7   3  -3   33.93    1.40
   6   3  -3   53.62    1.98
  -5  -3   3   16.49    0.63
   4   3  -3   11.28    0.43
  -4  -3   3   11.30    0.43
   3   3  -3  340.03   12.09
  -3  -3   3  331.35   12.10
   2   3  -3    3.51    0.14
  -2  -3   3    3.33    0.14
  -1  -3   3    3.03    0.12
   0  -3   3  171.60    6.18
  -1   3  -3    1.27    0.06
   1  -3   3    1.34    0.06
  -2   3  -3    0.01    0.01
   2  -3   3    0.01    0.01
  -3   3  -3  194.25    7.19
   3  -3   3  205.91    7.19
  -4   3  -3   20.98    0.78
  -4   3  -3   20.90    0.78
   4  -3   3   20.88    0.78
  -5   3  -3    2.71    0.15
  -5   3  -3    2.50    0.15
  -6   3  -3    0.43    0.11
  -6   3  -3    0.38    0.12
  -7   3  -3   12.81    0.51
   7  -3   3   12.25    0.52
  -8   3  -3    0.14    0.12
   8  -3   3    0.01    0.08
   9  -3   3    6.46    0.31
  10  -3   3    6.90    0.33
  10  -3   3    6.51    0.31
  11  -3   3    0.09    0.07
  11  -3   3    0.04    0.06
  12  -3   3   -0.05    0.07
  12  -3   3    0.01    0.06
  12   2  -3    2.15    0.14
  11   2  -3    0.08    0.06
  10   2  -3    0.41    0.09
   9   2  -3    1.40    0.15
   9   2  -3    1.01    0.24
   9   2  -3    1.61    0.19
   8   2  -3    7.61    0.37
   8   2  -3    7.32    0.39
   8   2  -3    7.63    0.35
   7   2  -3    7.97    0.43
   7   2  -3    8.69    0.39
   7   2  -3    8.85    0.38
  -6  -2   3    1.64    0.14
  -5  -2   3    3.27    0.16
   4   2  -3    0.59    0.06
  -4  -2   3    0.44    0.08
   3   2  -3    5.11    0.20
  -3  -2   3    5.21    0.20
   2   2  -3   22.56    0.77
  -2  -2   3   19.88    0.77
  -1  -2   3    1.85    0.08
   0  -2   3    7.87    0.29
  -1   2  -3    0.40    0.03
   1  -2   3    0.47    0.03
  -2   2  -3    1.50    0.07
   2  -2   3    1.46    0.07
  -3   2  -3   12.45    0.47
   3  -2   3   12.70    0.47
  -4   2  -3   11.22    0.43
   4  -2   3   11.20    0.43
  -5   2  -3    5.37    0.25
  -5   2  -3    5.35    0.23
  -6   2  -3    2.27    0.16
  -6   2  -3    1.90    0.21
  -7   2  -3    0.57    0.12
   7  -2   3    0.68    0.15
   8  -2   3    2.48    0.19
   9  -2   3   12.19    0.51
  10  -2   3    3.07    0.21
  10  -2   3    3.58    0.20
  11  -2   3    0.67    0.13
  11  -2   3    1.14    0.12
  12  -2   3    0.34    0.07
  12  -2   3    0.27    0.08
  12   1  -3    0.24    0.06
  11   1  -3    0.11    0.07
  10   1  -3    2.09    0.16
   9   1  -3   10.03    0.43
   9   1  -3    9.80    0.47
   8   1  -3    1.04    0.15
   8   1  -3    0.96    0.24
   8   1  -3    1.25    0.20
   7   1  -3    7.01    0.36
   7   1  -3    7.58    0.33
  -6  -1   3   55.45    2.03
   5   1  -3    3.79    0.19
  -5  -1   3    4.28    0.18
   4   1  -3   38.99    1.45
  -4  -1   3   40.42    1.45
   3   1  -3   17.40    0.65
  -3  -1   3   17.88    0.65
   2   1  -3    0.10    0.02
  -2  -1   3    0.11    0.02
  -1  -1   3    0.57    0.03
   0   1  -3   70.72    2.64
   0  -1   3   75.25    2.63
  -1   1  -3    0.20    0.02
   1  -1   3    0.21    0.02
  -2   1  -3    0.00    0.01
   2  -1   3    0.02    0.02
  -3   1  -3  120.94    4.41
   3  -1   3  124.26    4.41
  -4   1  -3    0.06    0.02
   4  -1   3   -0.02    0.03
  -5   1  -3   -0.05    0.07
  -5   1  -3    0.05    0.04
  -6   1  -3   42.07    1.55
   7  -1   3   50.13    1.85
   8  -1   3    2.07    0.18
   9  -1   3    1.41    0.17
   9  -1   3    1.27    0.15
  10  -1   3   12.20    0.49
  10  -1   3   11.48    0.50
  11  -1   3    0.50    0.08
  11  -1   3    0.59    0.12
  12  -1   3    1.49    0.14
  12  -1   3    1.24    0.12
  13   0  -3    0.60    0.08
  12   0  -3    0.37    0.09
  11   0  -3    3.53    0.20
  10   0  -3    1.80    0.16
   9   0  -3    6.52    0.35
   9   0  -3    6.10    0.30
   8   0  -3    8.81    0.37
   8   0  -3    8.66    0.42
   8   0  -3    7.76    0.42
   7   0  -3    1.12    0.15
  -6   0   3    1.26    0.12
   5   0  -3   16.91    0.65
  -5   0   3   17.58    0.65
   4   0  -3   59.79    2.08
  -4   0   3   55.19    2.08
   3   0  -3   40.13    1.42
  -3   0   3   38.41    1.42
   2   0  -3    0.16    0.02
  -2   0   3    0.19    0.02
  -1   0   3    0.50    0.03
   0   0  -3  162.32    5.97
   0   0   3  168.71    5.97
  -1   0  -3    0.01    0.01
   1   0   3    0.01    0.01
  -2   0  -3    4.07    0.17
   2   0   3    4.46    0.17
  -3   0  -3   20.81    0.77
   3   0   3   20.78    0.77
  -4   0  -3    2.40    0.12
   4   0   3    2.34    0.12
  -5   0  -3    0.03    0.04
   6   0   3    0.73    0.18
   7   0   3    1.29    0.17
  -8   0  -3    5.28    0.31
   8   0   3    5.75    0.28
   8   0   3    5.53    0.29
   9   0   3    0.55    0.13
   9   0   3    0.58    0.11
  10   0   3    0.98    0.21
  10   0   3    0.51    0.10
  11   0   3   -0.02    0.06
  11   0   3    0.06    0.07
  12   0   3    0.05    0.07
  12   0   3    0.07    0.08
  13  -1  -3    4.91    0.21
  12  -1  -3    0.26    0.06
  10  -1  -3    0.20    0.08
   9  -1  -3   14.92    0.62
   9  -1  -3   15.67    0.64
   8  -1  -3    0.01    0.08
   7  -1  -3   12.34    0.49
  -7   1   3   11.78    0.49
  -6   1   3    7.77    0.31
  -6   1   3    6.73    0.31
   5  -1  -3    1.15    0.09
  -5   1   3    1.25    0.08
   4  -1  -3   17.35    0.63
  -4   1   3   16.83    0.63
   3  -1  -3   55.46    1.92
  -3   1   3   50.98    1.92
   2  -1  -3    1.64    0.07
  -2   1   3    1.64    0.07
  -1   1   3    0.02    0.01
   0  -1  -3   41.50    1.55
   0   1   3   44.82    1.55
  -1  -1  -3    1.04    0.05
   1   1   3    1.05    0.05
  -2  -1  -3    0.64    0.04
   2   1   3    0.73    0.04
  -3  -1  -3   88.63    3.29
   3   1   3   93.66    3.29
  -4  -1  -3   13.94    0.51
   4   1   3   13.09    0.52
  -5  -1  -3    2.89    0.16
   6   1   3    0.51    0.11
   7   1   3   25.57    1.00
   7   1   3   26.15    0.99
   8   1   3    0.23    0.09
   8   1   3    0.34    0.10
  -9  -1  -3    1.37    0.20
   9   1   3    1.53    0.17
   9   1   3    1.54    0.16
  10   1   3    1.65    0.16
  10   1   3    1.83    0.16
  11   1   3    1.71    0.15
  11   1   3    1.73    0.14
  12   1   3    0.04    0.14
  13  -2  -3    2.12    0.12
  12  -2  -3    0.20    0.06
  11  -2  -3    0.26    0.10
  10  -2  -3    5.34    0.27
   9  -2  -3    2.27    0.17
   9  -2  -3    1.75    0.26
   8  -2  -3    0.47    0.09
  -8   2   3    0.79    0.17
   7  -2  -3    1.18    0.15
  -7   2   3    1.40    0.14
  -6   2   3   14.22    0.54
  -6   2   3   13.69    0.54
   5  -2  -3    0.06    0.04
  -5   2   3    0.05    0.03
  -5   2   3   -0.05    0.06
   4  -2  -3    6.01    0.24
  -4   2   3    6.02    0.24
   3  -2  -3  401.38   14.23
  -3   2   3  389.68   14.22
   2  -2  -3    3.34    0.12
  -2   2   3    2.96    0.12
  -1   2   3    0.01    0.01
  -1   2   3    0.01    0.01
   0  -2  -3   95.08    3.54
   0   2   3  101.86    3.55
  -1  -2  -3    1.07    0.05
   1   2   3    1.14    0.05
  -2  -2  -3    2.64    0.11
   2   2   3    2.80    0.12
  -3  -2  -3   65.13    2.44
   3   2   3   69.74    2.44
  -4  -2  -3    0.14    0.04
   4   2   3    0.16    0.05
  -5  -2  -3    4.00    0.20
   6   2   3   70.05    2.60
   6   2   3   72.20    2.61
   7   2   3    5.35    0.28
   7   2   3    4.94    0.27
   8   2   3    0.10    0.09
   8   2   3    0.13    0.09
  -9  -2  -3    6.49    0.31
   9   2   3    5.96    0.31
   9   2   3    6.54    0.32
 -10  -2  -3    9.08    0.38
  10   2   3    8.71    0.39
  10   2   3    8.95    0.38
  11   2   3    0.16    0.07
  11   2   3    0.11    0.07
  13  -3  -3    1.50    0.10
  12  -3  -3    0.10    0.05
  11  -3  -3    0.00    0.09
  10  -3  -3    8.42    0.37
   9  -3  -3    0.37    0.09
  -9   3   3    0.42    0.12
   8  -3  -3    3.08    0.20
  -8   3   3    3.33    0.20
  -7   3   3    5.17    0.25
  -6   3   3    0.67    0.12
  -6   3   3    0.67    0.10
   5  -3  -3    0.49    0.08
  -5   3   3    0.49    0.07
  -5   3   3    0.51    0.09
   4  -3  -3    1.11    0.07
  -4   3   3    1.06    0.06
   3  -3  -3   13.08    0.48
  -3   3   3   12.92    0.48
   2  -3  -3    0.07    0.01
  -2   3   3    0.11    0.02
  -1   3   3    1.83    0.07
  -1   3   3    1.67    0.07
   0  -3  -3    5.12    0.19
   0   3   3    5.15    0.19
  -1  -3  -3    1.32    0.06
   1   3   3    1.39    0.06
  -2  -3  -3    0.33    0.04
  -3  -3  -3    1.72    0.09
   3   3   3    1.83    0.10
  -4  -3  -3    5.38    0.23
   4   3   3    5.05    0.24
  -5  -3  -3    0.26    0.07
   5   3   3    0.36    0.12
   6   3   3   14.41    0.60
   6   3   3   14.94    0.60
   7   3   3   19.76    0.80
   7   3   3   20.08    0.79
   8   3   3    0.90    0.16
   8   3   3    0.57    0.11
  -9  -3  -3    0.67    0.14
   9   3   3    0.80    0.14
   9   3   3    0.90    0.15
 -10  -3  -3    0.46    0.09
  10   3   3    0.57    0.13
  10   3   3    0.45    0.09
  11   3   3   -0.01    0.07
  11   3   3   -0.07    0.07
  13  -4  -3   10.11    0.39
  12  -4  -3    0.08    0.05
  10  -4  -3    0.60    0.12
   9  -4  -3   19.23    0.77
  -9   4   3   19.92    0.77
   8  -4  -3    1.55    0.16
  -8   4   3    1.76    0.15
  -7   4   3    1.41    0.33
  -7   4   3    0.79    0.11
  -6   4   3   24.01    0.90
  -6   4   3   23.74    0.90
   5  -4  -3   13.86    0.53
  -5   4   3   13.85    0.53
   4  -4  -3    0.20    0.05
  -4   4   3    0.13    0.03
  -4   4   3    0.18    0.05
   3  -4  -3  171.11    6.04
  -3   4   3  164.21    6.02
  -2   4   3    0.02    0.01
   0  -4  -3   18.35    0.68
   0   4   3   19.04    0.68
  -1  -4  -3    0.05    0.02
   1   4   3    0.06    0.02
  -2  -4  -3    2.44    0.11
   2   4   3    2.46    0.11
  -3  -4  -3  204.19    7.36
   3   4   3  204.95    7.36
  -4  -4  -3   21.65    0.81
   5   4   3    0.88    0.20
   5   4   3    0.73    0.13
   6   4   3   19.87    0.78
   6   4   3   19.18    0.77
   7   4   3   24.57    0.94
   7   4   3   23.95    0.95
   8   4   3    0.73    0.15
   8   4   3    0.71    0.15
  -9  -4  -3    5.03    0.26
   9   4   3    5.10    0.26
   9   4   3    5.47    0.28
 -10  -4  -3   10.34    0.42
  10   4   3   10.55    0.43
  10   4   3   10.11    0.43
  11   4   3    0.29    0.08
  11   4   3    0.28    0.08
  13  -5  -3    1.81    0.11
  12  -5  -3    0.45    0.08
  11  -5  -3    0.63    0.11
  10  -5  -3    0.73    0.12
 -10   5   3    0.84    0.19
   9  -5  -3   12.37    0.53
  -9   5   3   13.68    0.54
  -8   5   3   10.73    0.43
  -8   5   3    9.57    0.47
  -7   5   3    0.00    0.06
  -7   5   3    0.13    0.16
  -6   5   3    7.75    0.34
  -6   5   3    7.96    0.33
   5  -5  -3    2.22    0.13
  -5   5   3    2.21    0.13
  -5   5   3    2.39    0.12
   4  -5  -3    1.10    0.07
  -4   5   3    1.09    0.07
  -4   5   3    1.08    0.10
   3  -5  -3    0.60    0.04
  -3   5   3    0.37    0.08
  -3   5   3    0.56    0.04
   0  -5  -3   11.63    0.42
  -1  -5  -3    4.59    0.18
   1   5   3    4.75    0.18
  -2  -5  -3    8.10    0.31
   2   5   3    8.34    0.32
  -3  -5  -3  143.64    5.10
   3   5   3  139.57    5.10
  -4  -5  -3    0.15    0.06
   5   5   3    9.25    0.41
   5   5   3    8.44    0.43
   5   5   3    9.14    0.40
   6   5   3    0.29    0.15
   6   5   3    0.15    0.09
   6   5   3    0.50    0.11
   7   5   3   31.92    1.20
   7   5   3   30.96    1.21
   8   5   3    0.24    0.09
   8   5   3    0.29    0.10
  -9  -5  -3   13.18    0.52
   9   5   3   13.44    0.62
   9   5   3   12.25    0.55
 -10  -5  -3    0.05    0.07
  10   5   3    0.07    0.07
  10   5   3    0.19    0.07
  11   5   3   -0.08    0.08
  11   5   3    0.06    0.07
  13  -6  -3    0.08    0.05
  12  -6  -3    0.47    0.09
  11  -6  -3    0.03    0.06
  10  -6  -3    6.35    0.29
 -10   6   3    5.54    0.30
   9  -6  -3    2.00    0.17
  -9   6   3    2.21    0.18
  -8   6   3    0.32    0.15
  -8   6   3    0.23    0.08
  -7   6   3    0.10    0.07
  -7   6   3    0.11    0.14
  -6   6   3   26.32    0.98
  -6   6   3   25.35    0.99
   5  -6  -3    0.94    0.10
  -5   6   3    1.04    0.09
  -5   6   3    1.05    0.09
   4  -6  -3    0.73    0.06
  -4   6   3    0.83    0.09
  -4   6   3    0.82    0.06
  -3   6   3    0.58    0.09
  -2   6   3    3.94    0.19
  -1  -6  -3    0.51    0.05
   1   6   3    0.41    0.05
  -2  -6  -3    0.05    0.03
   2   6   3   -0.02    0.04
  -3  -6  -3    1.66    0.12
   3   6   3    1.95    0.15
  -4  -6  -3    0.16    0.08
   4   6   3    0.08    0.13
   4   6   3    0.17    0.11
   4   6   3    0.08    0.12
   5   6   3    0.36    0.11
   5   6   3    0.42    0.13
   5   6   3    0.70    0.18
   6   6   3   11.97    0.51
   6   6   3   11.62    0.51
   6   6   3   11.78    0.52
   7   6   3    4.73    0.27
   7   6   3    4.45    0.31
   7   6   3    4.72    0.26
   8   6   3    1.36    0.17
   8   6   3    1.29    0.16
  -9  -6  -3    0.39    0.07
   9   6   3    0.17    0.08
   9   6   3    0.29    0.08
 -10  -6  -3    2.39    0.14
  10   6   3    2.53    0.16
  10   6   3    2.27    0.16
  12  -7  -3    1.71    0.12
  11  -7  -3    1.02    0.12
 -11   7   3    0.89    0.22
  10  -7  -3    7.42    0.33
 -10   7   3    6.63    0.33
  -9   7   3   -0.08    0.08
  -9   7   3    0.03    0.13
  -8   7   3   18.97    0.75
  -8   7   3   19.10    0.78
  -7   7   3    4.71    0.30
  -7   7   3    4.85    0.24
  -6   7   3    5.19    0.27
  -6   7   3    4.95    0.24
  -6   7   3    4.89    0.32
  -5   7   3    0.49    0.09
  -4   7   3    1.17    0.10
  -3   7   3    4.64    0.21
  -2   7   3   -0.03    0.05
  -1  -7  -3    7.36    0.27
   1   7   3    7.20    0.27
  -2  -7  -3    1.96    0.11
  -3  -7  -3    0.25    0.08
   3   7   3    0.26    0.12
   3   7   3    0.22    0.11
   4   7   3    0.53    0.12
   4   7   3    0.30    0.12
   4   7   3    0.61    0.13
   5   7   3    5.82    0.31
   5   7   3    5.86    0.31
   5   7   3    6.06    0.33
   6   7   3    6.21    0.31
   6   7   3    5.84    0.32
   6   7   3    5.01    0.30
   7   7   3    1.69    0.18
   7   7   3    1.70    0.22
   7   7   3    1.50    0.18
   8   7   3    0.11    0.09
   8   7   3    0.16    0.09
  -9  -7  -3    1.73    0.13
   9   7   3    1.72    0.15
   9   7   3    1.59    0.15
 -10  -7  -3    8.72    0.34
  10   7   3    8.91    0.35
  10   7   3    7.50    0.40
  12  -8  -3    1.32    0.10
  11  -8  -3    0.34    0.07
 -11   8   3    0.41    0.11
  10  -8  -3    0.11    0.07
 -10   8   3    0.28    0.09
  -9   8   3   18.07    0.71
  -9   8   3   16.86    0.69
  -8   8   3    0.97    0.21
  -8   8   3    1.17    0.13
  -7   8   3    9.33    0.42
  -7   8   3    9.42    0.39
  -7   8   3    8.73    0.43
  -6   8   3    1.54    0.13
  -6   8   3    1.27    0.17
  -6   8   3    1.80    0.23
  -5   8   3    0.12    0.06
  -5   8   3    0.13    0.13
  -5   8   3    0.15    0.10
  -4   8   3    0.87    0.11
  -3   8   3   56.83    2.08
  -2   8   3    0.42    0.10
  -1   8   3    0.16    0.08
   2   8   3    1.60    0.19
   2   8   3    1.47    0.19
   3   8   3   23.22    0.90
   3   8   3   23.70    0.90
   3   8   3   22.23    0.89
   4   8   3   13.30    0.56
   4   8   3   13.09    0.56
   4   8   3   13.83    0.57
   5   8   3    0.36    0.10
   5   8   3    0.78    0.18
   5   8   3    0.33    0.11
   6   8   3    5.95    0.31
   6   8   3    6.00    0.33
   6   8   3    5.94    0.31
   7   8   3    1.46    0.17
   7   8   3    1.29    0.19
   7   8   3    1.33    0.16
  -8  -8  -3    0.62    0.11
   8   8   3    0.46    0.09
   8   8   3    0.72    0.14
  -9  -8  -3    0.21    0.06
   9   8   3    0.33    0.08
   9   8   3    0.21    0.07
 -10  -8  -3    0.05    0.05
  10   8   3    0.11    0.09
  10   8   3    0.23    0.08
  12  -9  -3    0.57    0.08
  11  -9  -3    0.04    0.05
 -11   9   3   -0.18    0.09
  10  -9  -3    1.14    0.18
 -10   9   3    1.16    0.15
  -9   9   3    0.39    0.13
  -9   9   3    0.36    0.09
  -8   9   3   -0.11    0.12
  -8   9   3   -0.03    0.07
  -7   9   3    0.33    0.08
  -7   9   3    0.24    0.10
  -7   9   3    0.54    0.17
  -6   9   3   84.79    3.02
  -6   9   3   80.99    3.01
  -6   9   3   81.43    3.01
  -5   9   3    0.68    0.10
  -5   9   3    0.67    0.13
  -5   9   3    0.86    0.16
  -4   9   3    0.00    0.09
  -4   9   3    0.13    0.07
  -4   9   3    0.12    0.13
  -3   9   3   29.36    1.11
  -2   9   3    0.97    0.12
  -1   9   3    0.00    0.08
   0   9   3    2.80    0.23
   0   9   3    3.57    0.25
   1   9   3    2.73    0.22
   1   9   3    3.04    0.22
   1   9   3    2.67    0.22
   2   9   3    3.10    0.24
   2   9   3    3.82    0.24
   2   9   3    3.77    0.24
   3   9   3    0.72    0.17
   3   9   3    0.53    0.11
   3   9   3    0.54    0.12
   4   9   3    3.06    0.23
   4   9   3    3.39    0.24
   5   9   3    2.78    0.23
   5   9   3    3.49    0.23
   5   9   3    3.19    0.23
   6   9   3   -0.01    0.09
   6   9   3    0.13    0.09
   6   9   3   -0.06    0.10
   7   9   3    0.87    0.15
   7   9   3    1.27    0.16
   7   9   3    1.21    0.22
  -8  -9  -3    0.00    0.05
   8   9   3   -0.06    0.07
   8   9   3    0.05    0.07
  -9  -9  -3    1.08    0.09
   9   9   3    1.06    0.11
   9   9   3    0.91    0.18
  12 -10  -3    0.01    0.04
  11 -10  -3    1.47    0.11
 -11  10   3    1.62    0.16
  10 -10  -3    0.11    0.06
 -10  10   3    0.21    0.08
  -9  10   3   11.19    0.47
  -9  10   3   10.14    0.45
  -8  10   3   -0.11    0.07
  -8  10   3    0.14    0.11
  -7  10   3    1.69    0.18
  -7  10   3    1.94    0.20
  -7  10   3    1.90    0.16
  -6  10   3    9.75    0.42
  -6  10   3    9.83    0.45
  -6  10   3    9.60    0.43
  -5  10   3    2.21    0.15
  -5  10   3    2.06    0.21
  -5  10   3    2.10    0.20
  -4  10   3    0.04    0.09
  -4  10   3    0.16    0.12
  -4  10   3    0.00    0.06
  -3  10   3   52.36    1.92
  -3  10   3   52.65    1.91
  -3  10   3   49.84    1.90
  -2  10   3    0.22    0.07
  -2  10   3    0.24    0.11
  -2  10   3    0.27    0.11
  -1  10   3    0.13    0.11
  -1  10   3    0.06    0.10
  -1  10   3   -0.06    0.12
  -1  10   3    0.07    0.11
   0  10   3  109.24    4.06
   0  10   3  107.45    4.07
   0  10   3  118.78    4.08
   1  10   3    1.52    0.19
   1  10   3    1.64    0.19
   1  10   3    1.74    0.19
   2  10   3    0.42    0.11
   2  10   3    0.70    0.17
   2  10   3    0.38    0.10
   3  10   3   51.16    1.89
   3  10   3   49.90    1.89
   4  10   3    1.02    0.17
   4  10   3    0.80    0.18
   4  10   3    1.06    0.18
   5  10   3    2.50    0.21
   5  10   3    2.30    0.19
   5  10   3    2.15    0.20
   6  10   3    0.10    0.09
   6  10   3    0.14    0.08
   6  10   3    0.63    0.15
  -7 -10  -3    0.05    0.06
   7  10   3    0.08    0.07
   7  10   3    0.19    0.08
  -8 -10  -3    1.35    0.11
   8  10   3    1.26    0.13
   8  10   3    1.24    0.13
  -9 -10  -3    7.98    0.32
   9  10   3    7.71    0.33
   9  10   3    8.66    0.33
  11 -11  -3    0.46    0.08
 -11  11   3    0.68    0.15
  10 -11  -3    0.05    0.05
 -10  11   3    0.05    0.08
  -9  11   3    1.26    0.20
  -9  11   3    1.54    0.15
  -8  11   3    0.02    0.07
  -8  11   3    0.15    0.11
  -7  11   3    0.47    0.12
  -7  11   3    0.46    0.10
  -7  11   3    0.23    0.11
  -6  11   3    2.32    0.20
  -6  11   3    2.55    0.17
  -6  11   3    2.55    0.22
  -5  11   3    0.13    0.07
  -5  11   3    0.16    0.10
  -5  11   3    0.08    0.18
  -4  11   3    0.10    0.07
  -4  11   3    0.19    0.11
  -4  11   3    0.15    0.08
  -3  11   3    5.28    0.27
  -3  11   3    5.19    0.29
  -3  11   3    5.15    0.25
  -2  11   3    0.40    0.10
  -2  11   3    0.69    0.17
  -2  11   3    0.24    0.10
  -1  11   3    0.06    0.11
  -1  11   3   -0.02    0.08
  -1  11   3   -0.05    0.12
   0  11   3    1.33    0.19
   0  11   3    1.52    0.18
   0  11   3    1.28    0.18
   1  11   3    1.44    0.19
   1  11   3    1.51    0.18
   1  11   3    1.61    0.18
   2  11   3    0.13    0.10
   2  11   3    0.16    0.09
   2  11   3    0.12    0.10
   3  11   3   11.96    0.51
   3  11   3   11.46    0.50
   3  11   3   11.64    0.51
   4  11   3    6.86    0.35
   4  11   3    7.22    0.35
   4  11   3    7.01    0.35
   5  11   3    0.15    0.09
   5  11   3    0.14    0.09
   5  11   3    0.16    0.09
   6  11   3    0.41    0.11
   6  11   3    0.25    0.08
  -7 -11  -3    3.97    0.20
   7  11   3    3.70    0.21
   7  11   3    3.94    0.21
  -8 -11  -3    0.12    0.05
   8  11   3    0.08    0.06
   8  11   3    0.05    0.09
  11 -12  -3    0.13    0.04
  10 -12  -3    1.25    0.11
 -10  12   3    1.20    0.13
  -9  12   3    0.54    0.12
  -9  12   3    0.57    0.12
  -8  12   3    0.08    0.08
  -8  12   3    0.01    0.10
  -7  12   3   11.42    0.49
  -7  12   3   10.78    0.48
  -7  12   3   11.94    0.49
  -6  12   3    0.16    0.09
  -6  12   3    0.07    0.11
  -5  12   3    0.33    0.10
  -5  12   3    0.22    0.10
  -5  12   3    0.10    0.08
  -4  12   3    0.79    0.18
  -4  12   3    0.62    0.14
  -4  12   3    0.62    0.15
  -3  12   3    3.61    0.21
  -3  12   3    3.21    0.22
  -3  12   3    3.30    0.24
  -2  12   3    0.50    0.11
  -1  12   3    0.09    0.15
   0  12   3   57.31    2.12
   0  12   3   57.00    2.12
   0  12   3   56.93    2.11
   1  12   3    0.05    0.10
   1  12   3    0.34    0.11
   1  12   3    0.34    0.11
   2  12   3    0.04    0.10
   2  12   3    0.09    0.09
   2  12   3    0.08    0.09
   3  12   3   33.95    1.28
   3  12   3   31.29    1.26
   3  12   3   34.43    1.28
   4  12   3    0.84    0.15
   4  12   3    1.13    0.16
   4  12   3    0.72    0.15
  -5 -12  -3    1.50    0.14
   5  12   3    1.36    0.17
   5  12   3    1.19    0.16
   5  12   3    1.41    0.16
  -6 -12  -3   11.05    0.46
   6  12   3   11.26    0.47
   6  12   3   11.87    0.48
  -7 -12  -3    0.12    0.05
   7  12   3    0.04    0.07
   7  12   3    0.00    0.06
  -8 -12  -3    0.94    0.08
   8  12   3    0.80    0.10
  11 -13  -3   -0.02    0.04
  10 -13  -3    4.88    0.22
 -10  13   3    4.72    0.23
  -9  13   3   13.98    0.58
  -9  13   3   14.77    0.58
  -8  13   3   -0.02    0.09
  -8  13   3    0.25    0.08
  -7  13   3    0.64    0.14
  -7  13   3    0.69    0.16
  -7  13   3    0.42    0.09
  -6  13   3   72.47    2.87
  -6  13   3   79.99    2.88
  -6  13   3   82.86    2.89
  -5  13   3    0.44    0.11
  -5  13   3    0.50    0.10
  -5  13   3    0.42    0.10
  -4  13   3    0.24    0.10
  -4  13   3    0.24    0.09
  -4  13   3    0.23    0.09
  -3  13   3   25.00    0.98
  -3  13   3   24.31    0.97
  -3  13   3   26.07    0.97
  -2  13   3    0.60    0.15
  -2  13   3    0.77    0.17
  -1  13   3    0.11    0.09
  -1  13   3   -0.05    0.09
   0  13   3    0.49    0.12
   0  13   3    0.69    0.16
   0  13   3    0.64    0.15
   1  13   3    6.64    0.34
   1  13   3    6.55    0.33
   1  13   3    6.39    0.33
  -2 -13  -3    9.73    0.44
   2  13   3    9.74    0.45
   2  13   3   10.62    0.46
   2  13   3   10.39    0.45
  -3 -13  -3   14.07    0.56
   3  13   3   13.78    0.59
   3  13   3   13.60    0.58
   3  13   3   14.05    0.59
   4  13   3    1.54    0.16
   4  13   3    1.77    0.17
   4  13   3    1.53    0.17
  -5 -13  -3    1.04    0.13
   5  13   3    0.99    0.14
   5  13   3    1.34    0.15
  -6 -13  -3   12.07    0.47
   6  13   3   11.74    0.48
   6  13   3   11.90    0.48
  -7 -13  -3    7.57    0.30
   7  13   3    7.20    0.31
   7  13   3    7.57    0.31
  10 -14  -3    5.35    0.22
 -10  14   3    4.78    0.25
  -9  14   3    2.94    0.18
  -9  14   3    2.51    0.19
  -8  14   3    0.15    0.08
  -8  14   3    0.28    0.09
  -7  14   3    1.86    0.17
  -7  14   3    1.90    0.16
  -6  14   3   26.95    0.99
  -6  14   3   24.20    0.98
  -6  14   3   25.70    0.98
  -5  14   3    0.14    0.08
  -5  14   3   -0.08    0.08
  -5  14   3    0.16    0.10
  -4  14   3    0.08    0.10
  -4  14   3    0.15    0.09
  -4  14   3    0.24    0.10
   3 -14  -3    4.51    0.30
  -3  14   3    4.30    0.26
  -3  14   3    4.61    0.26
  -3  14   3    4.78    0.36
  -2  14   3    0.70    0.16
  -2  14   3    1.05    0.16
  -1  14   3    8.11    0.37
  -1  14   3    7.78    0.38
   0  14   3    0.32    0.09
   0  14   3    0.51    0.11
   1  14   3    0.13    0.09
   1  14   3    0.04    0.07
   2  14   3    0.67    0.15
   2  14   3    0.58    0.11
   2  14   3    0.89    0.16
  -3 -14  -3    5.26    0.28
   3  14   3    5.77    0.31
  -4 -14  -3    3.05    0.19
   4  14   3    3.17    0.20
   4  14   3    3.46    0.20
  -5 -14  -3    0.90    0.12
   5  14   3    0.95    0.13
   5  14   3    0.98    0.11
  -6 -14  -3    0.59    0.10
   6  14   3    0.34    0.07
   6  14   3    0.43    0.09
  -9  15   3    0.12    0.11
  -9  15   3   -0.01    0.08
  -8  15   3    0.14    0.08
  -8  15   3    0.00    0.08
  -7  15   3    1.00    0.14
  -7  15   3    0.91    0.14
  -7  15   3    0.76    0.12
  -6  15   3   18.18    0.73
  -6  15   3   18.46    0.73
  -6  15   3   19.10    0.73
  -5  15   3    0.24    0.11
  -5  15   3    0.23    0.09
  -5  15   3    0.14    0.07
  -4  15   3    0.11    0.13
  -4  15   3   -0.03    0.08
  -4  15   3   -0.04    0.07
  -3  15   3   58.32    2.18
  -3  15   3   59.41    2.18
  -2  15   3    1.60    0.17
  -2  15   3    1.88    0.17
  -1  15   3    0.27    0.09
  -1  15   3    0.26    0.09
   0  15   3   13.12    0.53
   0  15   3   12.31    0.54
   1  15   3    1.17    0.15
   1  15   3    1.54    0.15
   2  15   3    0.00    0.08
   2  15   3    0.08    0.07
   3  15   3    0.23    0.08
   3  15   3    0.06    0.07
   4  15   3   10.78    0.43
   4  15   3    9.96    0.44
  -5 -15  -3    0.18    0.09
   5  15   3    0.19    0.07
   5  15   3    0.27    0.07
   9 -16  -3    0.31    0.07
  -8  16   3    0.13    0.10
  -8  16   3   -0.13    0.09
  -7  16   3    0.07    0.09
  -7  16   3    0.04    0.08
  -6  16   3    4.40    0.22
  -6  16   3    4.14    0.25
  -6  16   3    4.56    0.23
  -5  16   3    0.05    0.07
  -5  16   3    0.09    0.07
  -5  16   3    0.04    0.12
  -4  16   3    0.28    0.08
  -4  16   3    0.19    0.08
   2 -16  -3    0.44    0.11
  -1  16   3    0.54    0.13
  -1  16   3    0.55    0.15
   0  16   3    5.99    0.29
   0  16   3    5.82    0.29
   1  16   3    0.82    0.13
   1  16   3    0.79    0.13
   2  16   3    1.96    0.15
   2  16   3    1.86    0.15
   3  16   3    0.10    0.06
   3  16   3    0.13    0.07
   4  16   3    0.43    0.10
   4  16   3    0.25    0.06
  -7  17   3    0.82    0.12
  -6  17   3    0.16    0.07
  -6  17   3   -0.01    0.05
  -5  17   3    0.11    0.07
  -5  17   3    0.13    0.07
  -4  17   3    0.08    0.06
  -4  17   3    0.20    0.07
  -3  17   3    8.80    0.38
  -3  17   3    8.44    0.37
   2 -17  -3    0.54    0.12
  -2  17   3    0.54    0.12
  -2  17   3    0.43    0.11
   1 -17  -3    0.14    0.09
  -1  17   3    0.14    0.07
  -1  17   3   -0.02    0.07
   0  17   3   12.39    0.50
   0  17   3   12.40    0.51
   1  17   3    0.25    0.07
   1  17   3    0.27    0.07
   2  17   3   -0.01    0.06
   2  17   3   -0.02    0.06
   3  17   3    0.11    0.06
  -6  18   3   10.71    0.42
  -5  18   3    0.02    0.05
  -5  18   3    0.05    0.07
  -4  18   3    0.09    0.06
  -4  18   3    0.04    0.06
  -3  18   3    9.54    0.39
  -3  18   3    9.65    0.39
  -2  18   3    0.00    0.06
  -2  18   3    0.02    0.06
   1 -18  -3    0.10    0.09
  -1  18   3    0.09    0.07
  -1  18   3    0.06    0.06
   0 -18  -3    0.88    0.12
   0  18   3    0.76    0.10
   0  18   3    0.70    0.10
  -1 -18  -3    1.40    0.11
   1  18   3    1.33    0.11
   1  18   3    1.31    0.12
  -2 -18  -3    0.09    0.05
   2  18   3    0.03    0.05
   2  18   3    0.03    0.06
  -4  19   3   -0.05    0.06
  -4  19   3    0.02    0.05
  -3  19   3    0.11    0.06
  -3  19   3    0.34    0.09
  -2  19   3    0.80    0.10
  -2  19   3    0.71    0.09
  -1  19   3    0.16    0.06
  -1  19   3    0.24    0.06
   1  19  -4    0.03    0.06
   1  19  -4    0.02    0.05
   0  19  -4    0.11    0.06
   0  19  -4    0.05    0.07
  -1  19  -4    3.02    0.16
  -1  19  -4    2.94    0.16
  -2  19  -4    1.75    0.12
  -2  19  -4    1.60    0.12
  -3  19  -4    0.41    0.09
  -3  19  -4    0.44    0.09
  -5  19  -4    0.07    0.05
   3  18  -4    2.81    0.17
   2  18  -4   11.74    0.46
   2  18  -4   11.20    0.45
   1  18  -4   -0.06    0.05
   1  18  -4    0.06    0.07
   0  18  -4    3.11    0.18
   0  18  -4    3.24    0.18
  -1  18  -4    0.27    0.07
  -1  18  -4    0.44    0.10
  -2  18  -4    0.65    0.11
  -2  18  -4    0.66    0.11
  -3  18  -4    0.06    0.06
  -3  18  -4    0.15    0.06
  -4  18  -4    5.46    0.25
  -4  18  -4    5.44    0.25
  -5  18  -4    0.12    0.06
  -5  18  -4    0.08    0.05
  -6  18  -4    0.08    0.06
   5  17  -4    1.61    0.11
   4  17  -4   -0.03    0.09
   4  17  -4    0.11    0.05
   4  17  -4    0.05    0.06
   3  17  -4    0.17    0.08
   3  17  -4    0.14    0.06
   3  17  -4    0.09    0.07
   2  17  -4    1.52    0.14
   2  17  -4    1.19    0.15
   2  17  -4    1.40    0.13
   1  17  -4    0.35    0.07
   1  17  -4    0.44    0.09
   0  17  -4    0.86    0.13
   0  17  -4    1.13    0.14
  -1  17  -4   25.75    0.96
  -1  17  -4   24.27    0.95
  -2  17  -4    2.71    0.17
  -2  17  -4    2.45    0.18
  -3  17  -4    0.25    0.08
  -3  17  -4    0.08    0.07
  -4  17  -4    0.29    0.07
  -4  17  -4    0.28    0.07
  -5  17  -4    1.04    0.11
  -5  17  -4    1.01    0.11
  -6  17  -4    0.72    0.10
  -6  17  -4    0.41    0.14
  -7  17  -4    0.18    0.06
   6  16  -4    0.90    0.09
   5  16  -4    0.44    0.08
   5  16  -4    0.27    0.06
   5  16  -4    0.32    0.10
   4  16  -4    1.62    0.12
   4  16  -4    1.67    0.15
   4  16  -4    1.65    0.14
   3  16  -4    0.41    0.09
   3  16  -4    0.29    0.09
   3  16  -4    0.42    0.11
   2  16  -4    2.32    0.16
   2  16  -4    2.11    0.18
   2  16  -4    2.20    0.18
   1  16  -4   -0.04    0.10
   1  16  -4    0.06    0.09
   0  16  -4    3.26    0.20
   0  16  -4    2.83    0.20
   0  16  -4    3.06    0.24
  -1  16  -4   37.39    1.38
  -1  16  -4   35.13    1.36
  -2  16  -4    0.66    0.14
  -2  16  -4    1.06    0.15
  -3  16  -4    1.21    0.14
  -3  16  -4    1.17    0.15
  -4  16  -4    1.21    0.20
  -4  16  -4    0.96    0.14
  -5  16  -4    4.66    0.25
  -5  16  -4    5.01    0.25
  -5  16  -4    4.93    0.27
  -6  16  -4    0.16    0.07
  -6  16  -4    0.38    0.10
  -6  16  -4    0.19    0.07
  -7  16  -4    0.09    0.09
  -7  16  -4   -0.06    0.06
  -8  16  -4    0.07    0.06
   7  15  -4    0.90    0.09
   7  15  -4    0.90    0.09
  -7 -15   4    0.75    0.10
   6  15  -4    1.10    0.11
   6  15  -4    1.15    0.10
   6  15  -4    1.17    0.24
   5  15  -4    0.54    0.14
   5  15  -4    0.61    0.11
   5  15  -4    0.62    0.11
   4  15  -4    0.07    0.09
   4  15  -4    0.00    0.07
   4  15  -4    0.12    0.08
   3  15  -4    2.83    0.19
   3  15  -4    2.84    0.24
   2  15  -4   21.56    0.84
   2  15  -4   20.93    0.84
   2  15  -4   21.13    0.83
   1  15  -4    1.00    0.14
   1  15  -4    1.08    0.19
   1  15  -4    0.82    0.16
   0  15  -4    1.20    0.17
   0  15  -4    1.08    0.15
   0  15  -4    1.19    0.21
  -1  15  -4   70.59    2.65
  -1  15  -4   73.57    2.66
  -2  15  -4    0.54    0.11
  -2  15  -4    0.55    0.14
  -3  15  -4    0.28    0.08
  -3  15  -4    0.32    0.13
  -3  15  -4    0.25    0.10
  -4  15  -4    5.16    0.29
  -4  15  -4    5.50    0.28
  -4  15  -4    5.40    0.28
  -5  15  -4    3.96    0.24
  -5  15  -4    4.14    0.22
  -5  15  -4    3.65    0.23
  -6  15  -4    1.36    0.14
  -6  15  -4    1.21    0.14
  -6  15  -4    1.35    0.16
  -7  15  -4    3.62    0.22
  -7  15  -4    2.86    0.18
  -8  15  -4   -0.04    0.07
  -8  15  -4    0.12    0.06
  -9  15  -4    0.09    0.06
   9 -15   4    0.09    0.05
   7  14  -4    0.15    0.05
   7  14  -4    0.08    0.06
   6  14  -4    0.28    0.07
   6  14  -4    0.28    0.08
   6  14  -4    0.14    0.10
   5  14  -4   16.17    0.64
   5  14  -4   15.77    0.64
   5  14  -4   15.55    0.63
   4  14  -4    0.11    0.09
   4  14  -4    0.01    0.10
   4  14  -4    0.07    0.08
   3  14  -4    0.06    0.10
   3  14  -4    0.24    0.11
   3  14  -4    0.20    0.08
   2  14  -4    0.17    0.11
   2  14  -4    0.32    0.09
   2  14  -4    0.27    0.10
   1  14  -4    0.14    0.12
   1  14  -4    0.01    0.10
   1  14  -4    0.00    0.08
   0  14  -4    0.06    0.13
   0  14  -4    0.06    0.09
   0  14  -4   -0.09    0.07
  -1  14  -4    0.92    0.16
  -1  14  -4    0.90    0.17
  -2  14  -4   -0.09    0.09
  -2  14  -4    0.08    0.09
  -3  14  -4    0.35    0.11
  -3  14  -4    0.57    0.11
  -3  14  -4    0.38    0.10
  -4  14  -4    3.77    0.24
  -4  14  -4    3.80    0.23
  -4  14  -4    4.01    0.23
  -5  14  -4    0.27    0.09
  -5  14  -4    0.64    0.15
  -5  14  -4    0.37    0.09
  -6  14  -4    0.30    0.10
  -6  14  -4    0.60    0.14
  -6  14  -4    0.38    0.09
  -7  14  -4    4.47    0.25
  -7  14  -4    4.56    0.24
  -8  14  -4    5.83    0.33
  -8  14  -4    5.43    0.27
  -9  14  -4   -0.04    0.06
  -9  14  -4    0.05    0.08
   9 -14   4    0.06    0.05
  10 -14   4    0.01    0.06
   8  13  -4    0.13    0.05
   7  13  -4    0.03    0.05
   7  13  -4   -0.06    0.06
   6  13  -4    0.55    0.12
   6  13  -4    0.46    0.11
   6  13  -4    0.50    0.11
   5  13  -4    4.16    0.23
   5  13  -4    4.11    0.25
   5  13  -4    4.21    0.27
   4  13  -4    0.15    0.09
   4  13  -4    0.29    0.11
   4  13  -4    0.14    0.09
   4  13  -4    0.10    0.08
   3  13  -4    9.25    0.43
   3  13  -4    9.26    0.41
   3  13  -4    9.04    0.42
   3  13  -4    9.30    0.42
   2  13  -4    0.28    0.09
   2  13  -4    0.20    0.11
   2  13  -4    0.30    0.11
   1  13  -4    0.15    0.09
   1  13  -4    0.14    0.13
   1  13  -4    0.20    0.11
   0  13  -4    1.67    0.24
   0  13  -4    1.15    0.18
   0  13  -4    1.30    0.15
  -1  13  -4    9.58    0.43
  -1  13  -4    9.25    0.42
  -2  13  -4    1.01    0.18
  -2  13  -4    0.79    0.17
  -3  13  -4   -0.09    0.09
  -3  13  -4    0.12    0.09
  -3  13  -4    0.08    0.09
  -4  13  -4    2.92    0.19
  -4  13  -4    2.11    0.19
  -4  13  -4    2.66    0.20
  -5  13  -4    0.14    0.09
  -5  13  -4    0.02    0.09
  -5  13  -4    0.07    0.07
  -6  13  -4    0.21    0.09
  -6  13  -4    0.03    0.08
  -6  13  -4    0.08    0.09
  -7  13  -4    0.29    0.09
  -7  13  -4    0.26    0.09
  -8  13  -4    0.65    0.12
  -8  13  -4    0.63    0.13
  -9  13  -4    0.26    0.07
  -9  13  -4    0.44    0.11
   9 -13   4    0.40    0.10
  10 -13   4    0.24    0.06
   9  12  -4   11.89    0.44
   9  12  -4   10.89    0.45
  -9 -12   4   11.52    0.44
   8  12  -4   10.67    0.44
   8  12  -4   10.67    0.43
   7  12  -4    0.70    0.19
   7  12  -4    0.79    0.13
   7  12  -4    0.72    0.11
   6  12  -4    0.26    0.10
   6  12  -4    0.32    0.09
   5  12  -4   14.72    0.62
   5  12  -4   14.75    0.61
   5  12  -4   14.63    0.60
   5  12  -4   15.43    0.62
   4  12  -4    0.04    0.09
   4  12  -4    0.04    0.11
   4  12  -4   -0.08    0.10
   4  12  -4    0.07    0.08
   3  12  -4   14.67    0.64
   3  12  -4   15.25    0.65
   3  12  -4   15.42    0.63
   3  12  -4   16.28    0.63
   2  12  -4    5.91    0.31
   2  12  -4    4.98    0.33
   2  12  -4    5.27    0.28
   2  12  -4    5.49    0.31
   1  12  -4    0.09    0.12
   1  12  -4    0.09    0.11
   1  12  -4    0.26    0.13
   0  12  -4    0.49    0.12
   0  12  -4    0.19    0.14
   0  12  -4    0.37    0.10
  -1  12  -4   14.39    0.58
  -1  12  -4   13.43    0.57
  -2  12  -4   -0.06    0.08
  -2  12  -4   -0.02    0.10
  -2  12  -4    0.07    0.09
  -3  12  -4    0.35    0.09
  -3  12  -4    0.35    0.15
  -4  12  -4    0.84    0.13
  -4  12  -4    0.99    0.16
  -4  12  -4    0.92    0.16
  -5  12  -4    5.55    0.29
  -5  12  -4    5.62    0.30
  -5  12  -4    6.25    0.29
  -6  12  -4    0.13    0.08
  -6  12  -4   -0.05    0.09
  -6  12  -4    0.06    0.09
  -7  12  -4    2.91    0.20
  -7  12  -4    2.76    0.20
  -8  12  -4   11.35    0.49
  -8  12  -4   11.98    0.50
  -9  12  -4    1.62    0.14
  -9  12  -4    1.62    0.15
   9 -12   4    1.62    0.13
 -10  12  -4    0.90    0.14
  10 -12   4    0.89    0.10
   9  11  -4   -0.05    0.05
   8  11  -4   -0.04    0.06
   8  11  -4   -0.07    0.07
   7  11  -4    0.73    0.19
   7  11  -4    0.88    0.15
   6  11  -4    0.62    0.13
   6  11  -4    0.85    0.14
   6  11  -4    0.73    0.14
   6  11  -4    0.69    0.17
   5  11  -4    0.53    0.10
   5  11  -4    0.63    0.14
   5  11  -4    0.42    0.11
   5  11  -4    0.35    0.08
   4  11  -4    2.23    0.22
   4  11  -4    2.04    0.19
   4  11  -4    2.11    0.20
   4  11  -4    2.17    0.18
   3  11  -4    0.14    0.12
   3  11  -4    0.03    0.20
   3  11  -4    0.36    0.11
   3  11  -4    0.01    0.11
   2  11  -4   19.71    0.78
   2  11  -4   19.74    0.77
   2  11  -4   19.36    0.76
   2  11  -4   18.22    0.77
   1  11  -4    0.93    0.22
   1  11  -4    0.73    0.19
   1  11  -4    0.89    0.16
   0  11  -4    2.13    0.27
   0  11  -4    2.19    0.21
   0  11  -4    2.13    0.19
  -1  11  -4   16.71    0.66
  -1  11  -4   15.76    0.64
  -1  11  -4   15.97    0.64
  -2  11  -4    0.68    0.13
  -2  11  -4    0.36    0.10
  -2  11  -4    0.47    0.12
  -3  11  -4    0.08    0.07
  -3  11  -4    0.14    0.09
  -3  11  -4   -0.01    0.10
  -4  11  -4   29.83    1.12
  -4  11  -4   29.14    1.12
  -5  11  -4    4.43    0.23
  -5  11  -4    3.66    0.24
  -5  11  -4    3.98    0.23
  -6  11  -4    0.96    0.13
  -6  11  -4    0.74    0.16
  -6  11  -4    0.91    0.16
  -7  11  -4   39.01    1.43
  -7  11  -4   36.54    1.42
  -8  11  -4    3.46    0.22
  -8  11  -4    3.45    0.21
  -9  11  -4    2.10    0.17
  -9  11  -4    2.13    0.17
   9 -11   4    2.28    0.15
 -10  11  -4   13.01    0.52
  10 -11   4   12.56    0.50
  11 -11   4    1.01    0.11
  10  10  -4    0.35    0.08
   9  10  -4    4.55    0.22
   9  10  -4    4.15    0.23
   8  10  -4    4.17    0.24
   8  10  -4    4.10    0.22
   7  10  -4    0.31    0.08
   7  10  -4    0.14    0.08
   7  10  -4    0.26    0.10
   7  10  -4    0.23    0.13
   6  10  -4    0.26    0.08
   6  10  -4    0.12    0.13
   6  10  -4    0.17    0.08
   6  10  -4    0.05    0.09
   5  10  -4    4.83    0.28
   5  10  -4    4.38    0.26
   5  10  -4    4.91    0.30
   5  10  -4    4.62    0.25
   4  10  -4    7.59    0.39
   4  10  -4    7.68    0.36
   3  10  -4    1.38    0.19
   3  10  -4    1.46    0.22
   3  10  -4    1.25    0.16
   3  10  -4    1.46    0.20
   2  10  -4   31.33    1.20
   2  10  -4   29.78    1.19
   2  10  -4   33.38    1.21
   2  10  -4   31.44    1.19
   1  10  -4    0.13    0.10
   1  10  -4    0.15    0.12
   1  10  -4    0.21    0.14
   0  10  -4    0.69    0.17
   0  10  -4    0.76    0.19
  -1  10  -4   95.50    3.54
  -1  10  -4   97.22    3.55
  -1  10  -4   99.90    3.56
  -2  10  -4    1.33    0.18
  -2  10  -4    1.28    0.19
  -2  10  -4    1.43    0.13
  -3  10  -4    0.57    0.11
  -3  10  -4    0.31    0.10
  -3  10  -4    0.71    0.12
  -4  10  -4   48.32    1.80
  -4  10  -4   48.58    1.79
  -5  10  -4    0.70    0.15
  -5  10  -4    0.44    0.10
  -6  10  -4    0.14    0.10
  -6  10  -4    0.04    0.07
  -6  10  -4    0.03    0.08
  -7  10  -4   10.68    0.47
  -8  10  -4    0.27    0.09
  -8  10  -4    0.18    0.09
  -9  10  -4    3.21    0.21
   9 -10   4    3.86    0.26
 -10  10  -4    3.84    0.22
  10 -10   4    3.72    0.19
  11 -10   4    0.24    0.06
  10   9  -4    1.34    0.11
   9   9  -4   11.56    0.47
   9   9  -4   11.64    0.48
   8   9  -4    0.03    0.06
   8   9  -4   -0.01    0.07
   8   9  -4   -0.05    0.13
   8   9  -4    0.09    0.09
   7   9  -4    0.78    0.15
   7   9  -4    0.77    0.17
   6   9  -4   17.04    0.67
   6   9  -4   16.83    0.69
   6   9  -4   17.13    0.68
   6   9  -4   16.28    0.70
   5   9  -4   23.08    0.91
   5   9  -4   21.96    0.87
   5   9  -4   21.20    0.89
   5   9  -4   23.62    0.90
   4   9  -4    0.89    0.12
   4   9  -4    0.67    0.15
   4   9  -4    0.76    0.17
   4   9  -4    0.81    0.15
   3   9  -4    1.13    0.19
   3   9  -4    0.99    0.18
   3   9  -4    1.10    0.23
   3   9  -4    0.95    0.16
   2   9  -4  139.65    5.22
   2   9  -4  145.18    5.24
  -2  -9   4  148.16    5.24
  -1  -9   4    0.29    0.06
   0   9  -4    0.84    0.15
   0  -9   4    0.94    0.09
  -1   9  -4   58.55    2.19
   1  -9   4   61.35    2.17
  -2   9  -4    0.29    0.07
   2  -9   4    0.21    0.05
  -3   9  -4   -0.01    0.06
  -3   9  -4    0.09    0.11
  -3   9  -4    0.19    0.10
  -4   9  -4    0.53    0.12
  -4   9  -4    0.31    0.10
  -4   9  -4    0.43    0.10
  -5   9  -4    2.08    0.20
  -5   9  -4    2.29    0.16
  -5   9  -4    2.06    0.19
  -6   9  -4    0.99    0.20
  -6   9  -4    1.41    0.14
  -6   9  -4    1.09    0.20
  -7   9  -4    3.52    0.23
  -7   9  -4    3.52    0.21
  -8   9  -4    0.79    0.15
  -8   9  -4    0.53    0.14
  -9   9  -4    0.99    0.14
  -9   9  -4    0.95    0.15
   9  -9   4    0.75    0.13
  10  -9   4    3.20    0.18
  11  -9   4    0.35    0.07
  11   8  -4    0.01    0.04
 -11  -8   4   -0.02    0.05
  10   8  -4    0.10    0.06
   9   8  -4    1.80    0.16
   9   8  -4    2.10    0.19
   8   8  -4    1.42    0.19
   8   8  -4    1.44    0.16
   8   8  -4    1.15    0.24
   8   8  -4    1.24    0.14
   7   8  -4    7.28    0.40
   7   8  -4    7.86    0.35
   7   8  -4    7.87    0.36
   7   8  -4    7.19    0.37
   6   8  -4    5.92    0.30
   6   8  -4    5.34    0.31
   6   8  -4    5.78    0.28
   5   8  -4   27.25    1.06
   5   8  -4   27.22    1.08
   5   8  -4   28.78    1.08
   5   8  -4   27.75    1.05
   4   8  -4    1.87    0.18
   4   8  -4    2.13    0.27
   4   8  -4    1.65    0.18
   4   8  -4    1.57    0.20
  -4  -8   4    1.68    0.21
   3   8  -4    0.15    0.11
   3   8  -4    0.21    0.11
  -3  -8   4    0.11    0.07
  -2  -8   4   32.60    1.20
  -1  -8   4    8.61    0.34
  -1  -8   4    8.83    0.34
   0   8  -4    0.92    0.16
   0  -8   4    1.02    0.08
   0  -8   4    1.05    0.08
  -1   8  -4   42.41    1.58
   1  -8   4   43.66    1.56
   1  -8   4   43.30    1.57
  -2   8  -4    0.45    0.10
   2  -8   4    0.45    0.08
  -3   8  -4    0.87    0.10
   3  -8   4    0.85    0.12
  -4   8  -4    0.45    0.09
  -4   8  -4    0.08    0.10
  -5   8  -4    0.09    0.06
  -5   8  -4    0.11    0.10
  -5   8  -4   -0.04    0.11
  -6   8  -4    0.15    0.07
  -6   8  -4   -0.13    0.10
  -6   8  -4    0.03    0.10
  -7   8  -4   12.73    0.54
  -7   8  -4   12.79    0.53
  -8   8  -4    0.31    0.09
  -8   8  -4    0.57    0.12
  -9   8  -4    0.06    0.09
   9  -8   4    0.04    0.07
 -10   8  -4    6.01    0.31
  10  -8   4    6.06    0.28
  11  -8   4    0.05    0.06
  11  -8   4    0.00    0.06
  11   7  -4    1.66    0.12
 -11  -7   4    1.74    0.12
  10   7  -4    0.63    0.11
   9   7  -4    1.89    0.16
   8   7  -4   22.84    0.86
   8   7  -4   22.45    0.87
   8   7  -4   21.11    0.86
   8   7  -4   21.99    0.88
   7   7  -4    2.30    0.17
   7   7  -4    1.77    0.26
   7   7  -4    2.52    0.19
   7   7  -4    1.73    0.21
   6   7  -4    4.07    0.23
   6   7  -4    4.25    0.24
   6   7  -4    4.31    0.31
   6   7  -4    3.80    0.26
   5   7  -4    2.07    0.18
   5   7  -4    2.28    0.21
   5   7  -4    2.35    0.19
   5   7  -4    2.29    0.28
   4   7  -4    1.11    0.18
   4   7  -4    1.40    0.20
   4   7  -4    1.20    0.17
  -4  -7   4    1.14    0.14
  -3  -7   4    0.21    0.05
  -2  -7   4   19.46    0.72
  -1  -7   4    0.04    0.03
  -1  -7   4   -0.02    0.04
   0  -7   4    0.70    0.06
   0  -7   4    0.79    0.06
  -1   7  -4    4.87    0.23
   1  -7   4    5.19    0.21
   1  -7   4    5.20    0.20
  -2   7  -4    0.66    0.10
   2  -7   4    0.64    0.07
  -3   7  -4    0.52    0.09
   3  -7   4    0.48    0.09
  -4   7  -4  112.61    4.04
  -4   7  -4  117.46    4.03
   4  -7   4  104.58    4.03
  -5   7  -4    3.23    0.22
  -5   7  -4    3.36    0.24
  -5   7  -4    3.55    0.18
  -5   7  -4    3.22    0.24
  -6   7  -4    0.38    0.08
  -6   7  -4    0.32    0.10
  -7   7  -4    3.61    0.21
  -7   7  -4    3.82    0.24
  -8   7  -4   37.06    1.35
  -8   7  -4   34.61    1.36
  -9   7  -4    0.18    0.10
   9  -7   4    0.44    0.09
 -10   7  -4   -0.15    0.11
  10  -7   4    0.18    0.07
  11  -7   4   10.16    0.40
  11  -7   4    9.87    0.41
  12  -7   4    0.22    0.08
  11   6  -4    2.94    0.16
  10   6  -4    1.77    0.15
   9   6  -4    6.58    0.36
   9   6  -4    7.38    0.33
   9   6  -4    7.35    0.32
   8   6  -4   26.41    1.00
   8   6  -4   24.72    1.00
   8   6  -4   26.75    1.04
   8   6  -4   26.67    1.02
   7   6  -4    2.38    0.24
   7   6  -4    2.52    0.19
   7   6  -4    2.61    0.19
   7   6  -4    2.21    0.27
   6   6  -4    8.06    0.36
   6   6  -4    8.13    0.36
   6   6  -4    7.19    0.42
   6   6  -4    8.41    0.39
   5   6  -4   31.54    1.20
   5   6  -4   31.76    1.20
   5   6  -4   32.47    1.22
  -4  -6   4    0.16    0.06
   3   6  -4    7.62    0.32
  -3  -6   4    7.90    0.31
  -2  -6   4    1.01    0.07
  -1  -6   4    0.10    0.03
  -1  -6   4    0.10    0.02
   0  -6   4    2.38    0.11
   0  -6   4    2.55    0.11
   1  -6   4   14.78    0.55
  -2   6  -4    3.28    0.14
  -2   6  -4    3.33    0.17
   2  -6   4    3.17    0.14
  -3   6  -4    0.73    0.09
  -3   6  -4    0.60    0.07
   3  -6   4    0.64    0.08
  -4   6  -4    8.07    0.34
  -4   6  -4    8.67    0.34
   4  -6   4    8.08    0.34
  -5   6  -4   17.74    0.65
  -5   6  -4   15.75    0.66
  -5   6  -4   16.31    0.65
  -6   6  -4    1.22    0.12
  -6   6  -4    1.41    0.18
  -7   6  -4    4.13    0.22
  -7   6  -4    3.76    0.25
  -8   6  -4    7.61    0.38
  -8   6  -4    8.64    0.37
   8  -6   4    8.03    0.37
  -9   6  -4    0.06    0.10
   9  -6   4    0.01    0.08
  10  -6   4    0.79    0.13
  11  -6   4    2.22    0.16
  11  -6   4    2.39    0.15
  12  -6   4    0.26    0.09
  12  -6   4    0.45    0.11
  12   5  -4    0.22    0.05
  11   5  -4    0.49    0.10
  10   5  -4    0.07    0.10
   9   5  -4    0.62    0.14
   9   5  -4    0.67    0.13
   9   5  -4    0.45    0.09
   8   5  -4    3.98    0.28
   8   5  -4    3.99    0.23
   8   5  -4    4.36    0.24
   7   5  -4    5.98    0.34
   7   5  -4    6.58    0.48
   7   5  -4    6.24    0.31
   7   5  -4    6.61    0.31
   6   5  -4    5.53    0.28
   6   5  -4    5.45    0.27
   6   5  -4    5.39    0.32
   5   5  -4   -0.19    0.16
  -5  -5   4    0.04    0.07
  -4  -5   4    2.56    0.14
   3   5  -4    1.59    0.10
  -3  -5   4    1.38    0.10
  -2  -5   4   33.21    1.21
  -1  -5   4    1.59    0.08
   0  -5   4    0.28    0.03
   0  -5   4    0.26    0.04
   1  -5   4   33.57    1.22
  -2   5  -4    2.01    0.09
   2  -5   4    1.92    0.09
  -3   5  -4    0.04    0.03
  -3   5  -4    0.09    0.05
   3  -5   4   -0.04    0.03
  -4   5  -4   15.90    0.60
  -4   5  -4   16.03    0.60
   4  -5   4   15.15    0.60
  -5   5  -4    3.02    0.16
  -5   5  -4    2.76    0.18
  -6   5  -4    0.78    0.11
  -6   5  -4    1.03    0.18
  -7   5  -4    0.12    0.10
  -7   5  -4   -0.02    0.06
  -8   5  -4    1.51    0.17
   8  -5   4    1.34    0.16
  -9   5  -4   -0.04    0.11
   9  -5   4    0.17    0.08
  11  -5   4    1.42    0.13
  11  -5   4    1.31    0.12
  12  -5   4    0.63    0.11
  12  -5   4    0.51    0.13
  12   4  -4    0.19    0.05
  11   4  -4    0.05    0.06
  10   4  -4    1.59    0.14
   9   4  -4    0.07    0.09
   9   4  -4    0.12    0.07
   8   4  -4    0.21    0.14
   8   4  -4    0.22    0.08
   8   4  -4    0.13    0.08
   7   4  -4    6.89    0.32
   7   4  -4    6.67    0.32
   7   4  -4    6.60    0.37
   6   4  -4    4.90    0.25
   6   4  -4    4.35    0.25
   6   4  -4    4.51    0.31
  -5  -4   4   37.97    1.40
   4   4  -4    2.02    0.12
  -4  -4   4    2.03    0.11
   3   4  -4    1.74    0.09
  -3  -4   4    1.86    0.09
   2   4  -4    6.00    0.23
  -2  -4   4    5.82    0.23
  -1  -4   4    0.67    0.04
   0  -4   4   10.43    0.39
  -1   4  -4    1.82    0.08
   1  -4   4    1.86    0.08
  -2   4  -4    8.13    0.31
   2  -4   4    8.38    0.31
  -3   4  -4    3.37    0.15
  -3   4  -4    3.09    0.16
   3  -4   4    3.48    0.15
  -4   4  -4   10.87    0.43
  -4   4  -4   11.28    0.43
   4  -4   4   10.73    0.43
  -5   4  -4    9.90    0.40
  -5   4  -4    9.47    0.40
  -6   4  -4    1.54    0.19
  -6   4  -4    1.65    0.13
  -7   4  -4   17.48    0.68
  -7   4  -4   16.65    0.66
   7  -4   4   16.12    0.66
  -8   4  -4    5.85    0.30
   8  -4   4    5.88    0.29
   9  -4   4    0.22    0.09
  10  -4   4    7.12    0.34
  11  -4   4   19.20    0.73
  11  -4   4   19.11    0.74
  12  -4   4    1.16    0.12
  12  -4   4    1.35    0.13
  12   3  -4    2.54    0.14
  11   3  -4    3.98    0.21
  10   3  -4    0.73    0.13
   9   3  -4    0.33    0.08
   9   3  -4    0.41    0.09
   8   3  -4   11.81    0.49
   8   3  -4   12.17    0.55
   8   3  -4   11.77    0.51
   7   3  -4    4.31    0.31
   7   3  -4    4.62    0.26
   7   3  -4    4.83    0.25
   6   3  -4   16.98    0.68
   6   3  -4   14.32    0.62
  -5  -3   4   66.73    2.43
   4   3  -4   11.95    0.47
  -4  -3   4   12.44    0.47
   3   3  -4   10.26    0.38
  -3  -3   4    9.67    0.38
  -2  -3   4    9.01    0.34
   0  -3   4    0.74    0.04
  -1   3  -4  890.30   32.64
   1  -3   4  926.17   32.63
  -2   3  -4    1.28    0.07
   2  -3   4    1.35    0.07
  -3   3  -4    0.86    0.06
   3  -3   4    0.81    0.06
  -4   3  -4  113.19    4.12
  -4   3  -4  115.74    4.13
   4  -3   4  113.54    4.12
  -5   3  -4    0.27    0.06
  -5   3  -4    0.20    0.06
  -6   3  -4    0.15    0.10
   6  -3   4   -0.10    0.11
  -7   3  -4    3.23    0.20
   7  -3   4    2.91    0.22
  -8   3  -4    3.04    0.23
   8  -3   4    3.35    0.22
   9  -3   4    5.03    0.26
  10  -3   4   -0.06    0.08
  11  -3   4    2.71    0.17
  11  -3   4    2.56    0.17
  12  -3   4   -0.05    0.07
  12  -3   4    0.09    0.08
  12   2  -4   14.06    0.55
  11   2  -4    0.12    0.07
  10   2  -4    0.07    0.07
   9   2  -4    2.83    0.21
   9   2  -4    2.61    0.18
   8   2  -4   46.10    1.71
   7   2  -4    0.57    0.19
   7   2  -4    0.11    0.11
   7   2  -4    0.21    0.09
  -6  -2   4    9.18    0.39
  -5  -2   4   21.50    0.80
   4   2  -4    3.55    0.16
  -4  -2   4    3.71    0.16
   3   2  -4   10.19    0.39
  -3  -2   4   10.22    0.38
   2   2  -4  332.13   11.49
  -2  -2   4  305.18   11.47
  -1  -2   4    0.73    0.04
   0  -2   4    0.15    0.02
  -1   2  -4  170.29    6.41
   1  -2   4  185.26    6.42
  -2   2  -4    3.27    0.13
   2  -2   4    3.28    0.14
  -3   2  -4    0.56    0.05
   3  -2   4    0.67    0.06
  -4   2  -4   44.61    1.67
  -4   2  -4   47.38    1.67
   4  -2   4   45.23    1.67
  -5   2  -4    0.04    0.05
  -5   2  -4    0.02    0.07
  -6   2  -4    0.19    0.09
   6  -2   4    0.23    0.11
  -7   2  -4   18.91    0.75
   7  -2   4   19.26    0.75
   8  -2   4   10.86    0.46
   9  -2   4    0.70    0.15
   9  -2   4    0.98    0.15
  10  -2   4    1.47    0.17
  11  -2   4    2.05    0.15
  11  -2   4    2.38    0.16
  12  -2   4    0.41    0.14
  12  -2   4    0.35    0.08
  12   1  -4   11.21    0.45
  11   1  -4    1.98    0.15
  10   1  -4    0.11    0.07
   9   1  -4    1.61    0.20
   9   1  -4    1.25    0.15
   8   1  -4    7.93    0.38
   8   1  -4    8.23    0.36
   7   1  -4    0.30    0.13
   7   1  -4    0.03    0.09
  -6  -1   4    0.57    0.11
  -5  -1   4  115.57    4.17
   4   1  -4    2.28    0.11
  -4  -1   4    2.44    0.11
   3   1  -4   15.85    0.57
  -3  -1   4   14.68    0.56
   2   1  -4   54.24    1.89
  -2  -1   4   50.30    1.89
  -1  -1   4    0.02    0.01
   0   1  -4    0.16    0.02
   0  -1   4    0.18    0.02
  -1   1  -4   74.49    2.83
   1  -1   4   82.74    2.83
  -2   1  -4    5.38    0.22
   2  -1   4    5.72    0.22
  -3   1  -4    0.01    0.02
   3  -1   4    0.01    0.03
  -4   1  -4    2.38    0.12
   4  -1   4    2.16    0.12
  -5   1  -4    1.58    0.16
  -5   1  -4    1.92    0.13
  -6   1  -4    4.12    0.24
   6  -1   4    3.91    0.26
   7  -1   4   24.85    0.95
   8  -1   4    2.79    0.21
   9  -1   4   -0.08    0.08
   9  -1   4    0.13    0.09
  10  -1   4    3.48    0.23
  11  -1   4    2.00    0.15
  11  -1   4    2.04    0.15
  12  -1   4    0.03    0.08
  13   0  -4    0.16    0.05
  12   0  -4    0.23    0.06
  11   0  -4    0.98    0.18
  10   0  -4    0.15    0.08
   9   0  -4   22.42    0.87
   8   0  -4   22.30    0.90
   8   0  -4   21.76    0.85
   7   0  -4    1.51    0.16
  -6   0   4    0.10    0.09
  -6   0   4   -0.08    0.05
   5   0  -4  209.42    7.65
  -5   0   4  215.99    7.65
   4   0  -4    6.93    0.27
  -4   0   4    7.10    0.27
   3   0  -4    1.34    0.07
  -3   0   4    1.41    0.07
   2   0  -4  102.06    3.62
  -2   0   4   98.77    3.61
  -1   0   4    1.37    0.06
   0   0  -4    0.02    0.01
   0   0   4    0.03    0.01
  -1   0  -4   88.46    3.31
   1   0   4   95.85    3.32
  -2   0  -4    0.72    0.05
   2   0   4    0.77    0.05
  -3   0  -4    0.32    0.04
   3   0   4    0.39    0.05
  -4   0  -4   14.31    0.53
   4   0   4   13.35    0.53
  -5   0  -4    8.71    0.34
  -5   0  -4    7.84    0.36
   6   0   4    0.81    0.18
  -7   0  -4    0.58    0.13
   7   0   4    0.45    0.11
  -8   0  -4   18.49    0.74
   8   0   4   18.41    0.74
   8   0   4   19.09    0.75
   9   0   4    0.27    0.09
   9   0   4    0.08    0.09
  10   0   4    0.27    0.09
  10   0   4    0.45    0.09
  11   0   4    0.00    0.07
  11   0   4    0.07    0.07
  12   0   4    0.10    0.08
  13  -1  -4    0.46    0.07
  12  -1  -4    4.08    0.20
  10  -1  -4    0.85    0.14
   9  -1  -4    2.35    0.18
   8  -1  -4    1.65    0.16
   7  -1  -4    5.07    0.26
  -7   1   4    4.99    0.25
  -6   1   4   36.04    1.37
  -6   1   4   38.58    1.38
   5  -1  -4   40.86    1.52
  -5   1   4   42.35    1.52
   4  -1  -4    1.70    0.09
  -4   1   4    1.67    0.09
   3  -1  -4    4.65    0.18
  -3   1   4    4.68    0.18
   2  -1  -4  190.26    6.94
  -2   1   4  195.71    6.95
  -1   1   4    7.82    0.28
  -1   1   4    7.34    0.28
   0  -1  -4    0.85    0.04
   0   1   4    0.84    0.04
  -1  -1  -4   19.09    0.71
   1   1   4   19.75    0.71
  -2  -1  -4    2.80    0.12
   2   1   4    3.01    0.12
  -3  -1  -4    8.08    0.31
   3   1   4    8.05    0.31
  -4  -1  -4   58.15    2.08
   4   1   4   56.09    2.08
  -5  -1  -4   10.10    0.41
   6   1   4    7.82    0.37
   7   1   4   19.29    0.77
   7   1   4   19.29    0.76
  -8  -1  -4    3.64    0.24
   8   1   4    3.41    0.22
   8   1   4    3.32    0.23
  -9  -1  -4    0.61    0.11
   9   1   4    0.58    0.15
   9   1   4    0.43    0.10
  10   1   4    4.57    0.23
  10   1   4    4.05    0.23
  11   1   4    7.12    0.30
  11   1   4    6.69    0.30
  13  -2  -4    0.12    0.05
  12  -2  -4   22.10    0.84
  11  -2  -4   -0.02    0.06
  10  -2  -4    1.83    0.16
   9  -2  -4    9.85    0.42
   8  -2  -4   39.37    1.48
  -8   2   4   40.12    1.48
   7  -2  -4    0.79    0.14
  -7   2   4    0.50    0.12
  -6   2   4    6.82    0.28
  -6   2   4    6.23    0.28
   5  -2  -4   61.02    2.20
  -5   2   4   62.43    2.20
  -5   2   4   58.26    2.20
   4  -2  -4    4.77    0.19
  -4   2   4    4.65    0.19
   3  -2  -4    0.00    0.01
  -3   2   4   -0.01    0.01
  -2   2   4  238.61    8.59
  -1   2   4    0.43    0.03
  -1   2   4    0.43    0.03
   0  -2  -4    0.18    0.02
   0   2   4    0.16    0.02
  -1  -2  -4    5.91    0.23
   1   2   4    6.13    0.23
  -2  -2  -4    1.78    0.08
   2   2   4    1.78    0.09
  -3  -2  -4    1.37    0.08
   3   2   4    1.28    0.09
  -4  -2  -4   57.01    2.08
  -5  -2  -4    2.51    0.17
   5   2   4    2.49    0.22
   6   2   4    1.49    0.19
   6   2   4    1.60    0.17
   7   2   4    7.16    0.35
   7   2   4    7.34    0.34
  -8  -2  -4   20.20    0.78
   8   2   4   19.82    0.80
   8   2   4   20.03    0.79
  -9  -2  -4    1.71    0.17
   9   2   4    1.50    0.17
   9   2   4    1.32    0.17
 -10  -2  -4    2.32    0.19
  10   2   4    2.29    0.17
  10   2   4    2.65    0.18
  11   2   4    5.12    0.24
  13  -3  -4    0.73    0.09
  12  -3  -4    4.26    0.21
  11  -3  -4    0.03    0.07
  10  -3  -4    0.13    0.07
   9  -3  -4   24.75    0.98
  -9   3   4   26.71    0.99
   8  -3  -4    1.68    0.16
  -8   3   4    1.95    0.16
  -7   3   4    0.71    0.12
  -6   3   4    0.44    0.11
  -6   3   4    0.62    0.10
   5  -3  -4  179.58    6.53
  -5   3   4  176.86    6.53
  -5   3   4  187.77    6.53
   4  -3  -4    1.17    0.07
  -4   3   4    1.06    0.07
  -4   3   4    1.08    0.10
   3  -3  -4    0.32    0.03
  -3   3   4    0.37    0.03
  -2   3   4    7.51    0.28
  -1   3   4    0.03    0.01
  -1   3   4    0.02    0.01
   0  -3  -4    0.79    0.04
   0   3   4    0.83    0.04
  -1  -3  -4    1.93    0.09
   1   3   4    1.95    0.09
  -2  -3  -4    0.52    0.05
   2   3   4    0.49    0.05
  -3  -3  -4    2.95    0.13
   3   3   4    2.74    0.14
  -4  -3  -4   44.98    1.65
   5   3   4    0.86    0.17
   6   3   4    0.11    0.10
   6   3   4    0.10    0.09
   7   3   4   21.52    0.84
   7   3   4   21.69    0.86
  -8  -3  -4    0.08    0.08
   8   3   4    0.04    0.10
   8   3   4    0.22    0.09
  -9  -3  -4    0.68    0.14
   9   3   4    0.96    0.15
   9   3   4    0.77    0.14
 -10  -3  -4   -0.05    0.08
  10   3   4    0.02    0.08
  10   3   4    0.14    0.07
  11   3   4    7.76    0.33
  13  -4  -4    0.11    0.05
  12  -4  -4    5.91    0.26
  10  -4  -4    0.08    0.07
   9  -4  -4    0.16    0.07
  -9   4   4    0.34    0.10
   8  -4  -4    5.95    0.29
  -8   4   4    5.93    0.28
  -7   4   4    1.52    0.13
  -6   4   4    3.73    0.18
  -6   4   4    3.30    0.19
   5  -4  -4    1.31    0.10
  -5   4   4    1.31    0.10
   4  -4  -4    0.31    0.05
  -4   4   4    0.39    0.05
  -4   4   4    0.42    0.08
   3  -4  -4    2.39    0.10
  -3   4   4    2.32    0.10
  -2   4   4  134.92    5.03
  -2   4   4  145.10    5.03
  -1   4   4    1.45    0.06
  -1   4   4    1.32    0.05
   0  -4  -4    0.46    0.03
   0   4   4    0.44    0.03
  -1  -4  -4   58.33    2.12
   1   4   4   59.07    2.12
  -2  -4  -4   24.63    0.93
   2   4   4   25.97    0.93
  -3  -4  -4    0.21    0.04
   3   4   4    0.11    0.05
  -4  -4  -4  100.46    3.64
   5   4   4    4.69    0.27
   5   4   4    4.51    0.28
   6   4   4    9.41    0.42
   6   4   4    9.32    0.42
   7   4   4   39.98    1.54
   7   4   4   41.66    1.53
  -8  -4  -4    4.73    0.25
   8   4   4    4.98    0.26
   8   4   4    4.77    0.27
  -9  -4  -4    0.04    0.10
   9   4   4    0.09    0.10
 -10  -4  -4    1.72    0.14
  10   4   4    1.90    0.15
  10   4   4    1.65    0.15
  11   4   4    2.49    0.22
  11   4   4    2.34    0.15
  13  -5  -4    0.78    0.08
  12  -5  -4    1.30    0.11
  11  -5  -4    0.05    0.06
  10  -5  -4   -0.11    0.06
 -10   5   4   -0.10    0.11
   9  -5  -4    6.50    0.31
  -9   5   4    6.62    0.31
  -8   5   4   15.42    0.59
  -8   5   4   14.16    0.64
  -7   5   4    0.47    0.10
  -7   5   4    0.25    0.19
  -6   5   4    3.99    0.19
  -6   5   4    3.39    0.20
   5  -5  -4   49.91    1.84
  -5   5   4   50.71    1.85
  -5   5   4   51.39    1.84
   4  -5  -4    0.51    0.05
  -4   5   4    0.48    0.06
  -4   5   4    0.46    0.09
  -3   5   4   -0.07    0.05
  -3   5   4    0.01    0.02
   0  -5  -4    0.74    0.04
   0   5   4    0.75    0.04
  -1  -5  -4   51.46    1.88
   1   5   4   52.80    1.88
  -2  -5  -4    0.57    0.06
   2   5   4    0.58    0.07
  -3  -5  -4    2.17    0.13
   3   5   4    2.00    0.15
  -4  -5  -4   15.74    0.62
   4   5   4   15.96    0.64
   5   5   4    4.02    0.26
   5   5   4    4.19    0.31
   5   5   4    4.18    0.25
   6   5   4    0.46    0.15
   6   5   4    0.78    0.18
   6   5   4    1.08    0.18
   7   5   4    0.79    0.17
   7   5   4    0.79    0.16
  -8  -5  -4   11.47    0.48
   8   5   4   11.70    0.49
   8   5   4   11.58    0.50
  -9  -5  -4    0.27    0.07
   9   5   4    0.37    0.09
   9   5   4    0.41    0.09
 -10  -5  -4    0.62    0.10
  10   5   4    0.65    0.13
  10   5   4    0.60    0.11
  11   5   4    5.48    0.25
  13  -6  -4    0.14    0.05
  12  -6  -4    1.08    0.10
  11  -6  -4    2.08    0.15
  10  -6  -4   -0.05    0.07
 -10   6   4    0.08    0.10
   9  -6  -4    3.15    0.20
  -9   6   4    3.40    0.21
  -8   6   4    0.53    0.17
  -8   6   4    0.19    0.08
  -7   6   4    5.58    0.36
  -7   6   4    6.22    0.28
  -6   6   4    3.31    0.23
  -6   6   4    3.62    0.18
   5  -6  -4    5.08    0.24
  -5   6   4    5.21    0.23
  -5   6   4    5.15    0.22
  -4   6   4    1.56    0.11
  -4   6   4    1.66    0.08
  -3   6   4    0.76    0.09
  -2   6   4    2.00    0.13
  -1  -6  -4    4.12    0.17
   1   6   4    4.23    0.17
  -2  -6  -4   10.09    0.39
   2   6   4   10.39    0.40
  -3  -6  -4    0.41    0.10
  -4  -6  -4   10.16    0.46
   4   6   4   11.27    0.48
   4   6   4   11.48    0.48
   4   6   4   10.49    0.48
   5   6   4    5.58    0.30
   5   6   4    5.51    0.32
   5   6   4    5.33    0.30
   6   6   4    3.12    0.27
   6   6   4    3.28    0.23
   6   6   4    3.57    0.24
   7   6   4    2.97    0.21
   7   6   4    2.72    0.26
   7   6   4    2.53    0.22
  -8  -6  -4    3.78    0.21
   8   6   4    3.71    0.23
   8   6   4    3.45    0.23
  -9  -6  -4    0.52    0.11
   9   6   4    0.50    0.12
   9   6   4    0.83    0.14
 -10  -6  -4   -0.02    0.06
  10   6   4    0.14    0.08
  10   6   4    0.05    0.06
  12  -7  -4   12.20    0.48
  11  -7  -4    2.92    0.17
  10  -7  -4    1.89    0.16
 -10   7   4    1.96    0.18
  -9   7   4    4.44    0.24
  -9   7   4    4.34    0.31
  -8   7   4  113.85    4.14
  -7   7   4   -0.01    0.06
  -7   7   4   -0.03    0.15
  -6   7   4    1.40    0.27
  -6   7   4    1.42    0.12
  -6   7   4    1.23    0.18
  -5   7   4   56.98    1.93
  -5   7   4   46.41    1.89
  -4   7   4    0.90    0.09
  -3   7   4    0.18    0.06
  -2   7   4    0.38    0.08
  -1   7   4    2.03    0.15
  -1  -7  -4   21.84    0.80
  -2  -7  -4    0.93    0.10
   3   7   4    3.46    0.24
   3   7   4    3.11    0.24
   3   7   4    3.52    0.26
   4   7   4   19.42    0.77
   4   7   4   19.40    0.77
   4   7   4   18.74    0.76
   5   7   4    1.02    0.20
   5   7   4    0.98    0.17
   5   7   4    1.24    0.21
   6   7   4    0.70    0.16
   6   7   4    1.00    0.19
   6   7   4    0.75    0.19
   7   7   4    0.96    0.16
   7   7   4    1.32    0.18
   7   7   4    0.86    0.15
   8   7   4   10.49    0.45
  -9  -7  -4    0.40    0.09
   9   7   4    0.30    0.08
   9   7   4    0.28    0.08
 -10  -7  -4    0.26    0.06
  10   7   4    0.39    0.10
  10   7   4    0.23    0.09
  12  -8  -4    4.23    0.20
  11  -8  -4    1.76    0.14
 -11   8   4    1.76    0.18
  10  -8  -4    3.94    0.21
 -10   8   4    3.61    0.23
  -9   8   4    0.12    0.14
  -9   8   4    0.04    0.07
  -8   8   4    1.71    0.24
  -8   8   4    1.32    0.14
  -7   8   4    2.49    0.16
  -7   8   4    2.61    0.26
  -7   8   4    2.09    0.23
  -6   8   4    0.03    0.14
  -6   8   4    0.08    0.06
  -6   8   4    0.07    0.10
  -5   8   4    4.82    0.27
  -5   8   4    5.00    0.24
  -5   8   4    5.32    0.33
  -4   8   4    0.25    0.06
  -3   8   4    0.38    0.09
  -2   8   4   18.34    0.70
  -1   8   4    0.00    0.08
   1   8   4    7.19    0.38
   2   8   4    0.71    0.18
   2   8   4    0.71    0.18
   2   8   4    0.51    0.12
   3   8   4    1.07    0.17
   3   8   4    1.12    0.20
   3   8   4    1.13    0.18
   4   8   4   10.69    0.46
   4   8   4   10.40    0.47
   4   8   4   10.21    0.46
   5   8   4    0.76    0.13
   5   8   4    0.66    0.18
   5   8   4    0.85    0.16
   6   8   4    1.39    0.19
   6   8   4    1.32    0.19
   6   8   4    1.69    0.17
  -7  -8  -4    0.84    0.12
   7   8   4    1.02    0.15
   7   8   4    1.06    0.15
   7   8   4    0.61    0.13
  -8  -8  -4    0.83    0.11
   8   8   4    0.87    0.14
   8   8   4    0.83    0.13
  -9  -8  -4    0.05    0.05
   9   8   4    0.00    0.06
   9   8   4    0.00    0.07
  12  -9  -4   15.97    0.61
  11  -9  -4    1.26    0.11
 -11   9   4    0.93    0.16
 -10   9   4   -0.07    0.08
  -9   9   4    4.83    0.31
  -9   9   4    5.25    0.26
  -8   9   4    1.30    0.22
  -7   9   4    0.11    0.09
  -7   9   4    0.24    0.24
  -7   9   4    0.12    0.07
  -6   9   4   11.66    0.49
  -6   9   4   11.67    0.48
  -6   9   4   11.03    0.51
  -5   9   4   44.48    1.67
  -5   9   4   46.25    1.68
  -5   9   4   44.00    1.66
  -4   9   4    0.16    0.13
  -4   9   4    0.10    0.06
  -4   9   4    0.16    0.11
  -3   9   4    1.72    0.20
  -3   9   4    2.29    0.28
  -3   9   4    1.88    0.14
  -2   9   4    3.22    0.18
  -1   9   4    1.08    0.14
  -1   9   4    0.93    0.19
  -1   9   4    1.36    0.21
   0   9   4    0.70    0.14
   0   9   4    0.63    0.12
   0   9   4    0.45    0.12
   1   9   4   65.12    2.43
   1   9   4   67.15    2.43
   1   9   4   65.39    2.42
   2   9   4    1.75    0.20
   2   9   4    2.31    0.20
   2   9   4    2.07    0.20
   3   9   4    1.22    0.19
   3   9   4    1.44    0.18
   3   9   4    1.55    0.19
   4   9   4    0.99    0.17
   4   9   4    0.86    0.17
   4   9   4    0.65    0.11
   5   9   4   25.63    0.98
   5   9   4   25.16    0.99
   5   9   4   24.45    0.98
   6   9   4    0.27    0.10
   6   9   4    0.20    0.10
   6   9   4    0.11    0.09
   7   9   4    0.80    0.14
  -8  -9  -4    3.93    0.20
   8   9   4    4.05    0.22
   8   9   4    3.97    0.22
  -9  -9  -4    0.80    0.08
   9   9   4    1.02    0.14
   9   9   4    0.94    0.17
  12 -10  -4    0.67    0.08
  11 -10  -4    0.19    0.05
 -11  10   4    0.21    0.09
  10 -10  -4    0.47    0.11
 -10  10   4    0.49    0.12
  -9  10   4    6.58    0.34
  -9  10   4    6.02    0.30
  -8  10   4    2.75    0.24
  -8  10   4    2.39    0.17
  -7  10   4    0.58    0.12
  -7  10   4    0.77    0.19
  -7  10   4    0.45    0.10
  -6  10   4    0.67    0.12
  -6  10   4    0.70    0.11
  -6  10   4    0.89    0.21
  -5  10   4   99.59    3.63
  -5  10   4  101.62    3.64
  -5  10   4   97.76    3.63
  -4  10   4    0.53    0.11
  -4  10   4    0.41    0.10
  -4  10   4    0.54    0.14
  -3  10   4    0.05    0.07
  -3  10   4    0.20    0.10
  -3  10   4    0.05    0.12
  -2  10   4    0.30    0.12
  -2  10   4    0.07    0.10
  -2  10   4    0.25    0.08
  -1  10   4    0.84    0.18
  -1  10   4    0.95    0.20
  -1  10   4    0.94    0.16
   0  10   4    0.81    0.17
   0  10   4    0.61    0.12
   0  10   4    0.89    0.18
   1  10   4   19.70    0.81
   1  10   4   21.47    0.82
   1  10   4   20.57    0.82
   2  10   4    8.81    0.41
   2  10   4    8.89    0.41
   2  10   4    9.10    0.41
   3  10   4    6.37    0.33
   3  10   4    6.46    0.33
   3  10   4    7.04    0.34
   4  10   4    2.72    0.21
   4  10   4    2.20    0.21
   4  10   4    2.43    0.21
   5  10   4    4.92    0.29
   5  10   4    5.40    0.29
   5  10   4    5.38    0.28
  -6 -10  -4    0.78    0.12
   6  10   4    1.07    0.16
   6  10   4    0.69    0.16
   6  10   4    0.68    0.15
  -7 -10  -4    8.23    0.34
   7  10   4    7.79    0.35
   7  10   4    7.69    0.35
  -8 -10  -4    4.79    0.21
   8  10   4    4.63    0.23
   8  10   4    4.36    0.22
  -9 -10  -4   -0.02    0.04
   9  10   4   -0.05    0.06
  11 -11  -4    0.08    0.05
 -11  11   4    0.05    0.08
  10 -11  -4    0.10    0.06
 -10  11   4    0.14    0.08
  -9  11   4    6.61    0.31
  -9  11   4    6.05    0.34
  -8  11   4    2.29    0.17
  -8  11   4    2.61    0.22
  -7  11   4    0.46    0.12
  -7  11   4    0.59    0.15
  -7  11   4    0.49    0.12
  -6  11   4    3.09    0.21
  -6  11   4    2.92    0.24
  -6  11   4    3.00    0.19
  -5  11   4   34.28    1.34
  -5  11   4   33.42    1.25
  -5  11   4   31.86    1.25
  -4  11   4    0.15    0.09
  -4  11   4    0.21    0.08
  -4  11   4    0.19    0.11
  -3  11   4    0.65    0.16
  -3  11   4    0.57    0.12
  -3  11   4    0.65    0.12
  -2  11   4    6.30    0.33
  -2  11   4    6.93    0.31
  -2  11   4    6.88    0.34
  -1  11   4    0.07    0.10
  -1  11   4    0.06    0.09
   0  11   4    0.49    0.11
   0  11   4    0.44    0.10
   0  11   4    0.15    0.11
  -1 -11  -4   14.33    0.62
   1  11   4   15.11    0.69
   1  11   4   16.39    0.63
   2  11   4    1.76    0.18
   2  11   4    1.73    0.19
   2  11   4    1.70    0.19
   3  11   4    1.38    0.18
   3  11   4    1.54    0.18
   3  11   4    1.26    0.17
   4  11   4   20.60    0.81
   4  11   4   20.25    0.82
   4  11   4   20.11    0.80
  -5 -11  -4    1.68    0.14
   5  11   4    1.48    0.17
   5  11   4    1.52    0.17
   5  11   4    1.34    0.17
  -6 -11  -4    0.09    0.06
   6  11   4   -0.01    0.08
   6  11   4    0.06    0.07
  -7 -11  -4    1.39    0.11
   7  11   4    1.52    0.14
   7  11   4    1.58    0.14
  -8 -11  -4    0.36    0.07
   8  11   4    0.27    0.09
  11 -12  -4    0.18    0.05
  10 -12  -4    0.70    0.09
 -10  12   4    0.91    0.13
  -9  12   4    1.17    0.21
  -9  12   4    1.67    0.15
  -8  12   4    0.40    0.09
  -8  12   4    0.48    0.12
  -7  12   4   -0.03    0.10
  -7  12   4    0.02    0.07
  -7  12   4    0.06    0.08
  -6  12   4    0.32    0.11
  -6  12   4    0.10    0.07
  -6  12   4    0.23    0.09
  -5  12   4   18.18    0.74
  -5  12   4   19.08    0.76
  -5  12   4   18.91    0.74
  -4  12   4    0.18    0.10
  -4  12   4    0.11    0.10
  -4  12   4    0.19    0.09
  -3  12   4    0.36    0.10
  -3  12   4    0.46    0.10
  -3  12   4    0.30    0.11
  -2  12   4    9.41    0.43
  -2  12   4    9.91    0.43
  -1  12   4    5.19    0.27
  -1  12   4    4.60    0.28
   0  12   4    0.09    0.10
   0  12   4    0.17    0.11
   0  12   4    0.12    0.09
   1  12   4    1.04    0.18
   1  12   4    1.13    0.18
   1  12   4    1.36    0.18
  -2 -12  -4    2.41    0.21
   2  12   4    2.41    0.20
   2  12   4    2.06    0.20
   2  12   4    2.54    0.21
  -3 -12  -4    0.76    0.15
   3  12   4    0.49    0.10
   3  12   4    0.43    0.11
   3  12   4    0.13    0.09
  -4 -12  -4    0.71    0.14
   4  12   4    0.67    0.12
   4  12   4    0.64    0.15
   4  12   4    0.80    0.15
  -5 -12  -4    7.35    0.33
   5  12   4    7.53    0.39
   5  12   4    7.63    0.35
  -6 -12  -4    0.15    0.06
   6  12   4    0.10    0.07
   6  12   4    0.33    0.08
  -7 -12  -4    3.39    0.17
   7  12   4    3.35    0.18
   7  12   4    3.29    0.19
  11 -13  -4    0.15    0.05
  10 -13  -4    0.13    0.05
 -10  13   4    0.04    0.07
  -9  13   4    0.96    0.19
  -9  13   4    0.81    0.13
  -8  13   4   14.24    0.59
  -8  13   4   15.10    0.60
  -7  13   4    1.04    0.15
  -7  13   4    1.07    0.14
  -7  13   4    1.16    0.17
  -6  13   4    0.12    0.08
  -6  13   4   -0.15    0.09
  -6  13   4    0.03    0.09
  -5  13   4    3.91    0.23
  -5  13   4    3.55    0.24
  -5  13   4    3.51    0.22
  -4  13   4   -0.11    0.10
  -4  13   4    0.07    0.10
  -4  13   4    0.03    0.11
  -3  13   4    0.55    0.13
  -3  13   4    0.58    0.12
  -3  13   4    0.72    0.15
  -2  13   4    4.23    0.25
  -2  13   4    3.93    0.25
  -1  13   4    0.75    0.17
  -1  13   4    0.74    0.16
   0  13   4    2.89    0.22
   0  13   4    2.90    0.21
   1  13   4   95.33    3.50
   1  13   4   95.62    3.49
  -2 -13  -4    1.97    0.21
   2  13   4    2.48    0.20
   2  13   4    2.68    0.20
   2  13   4    2.51    0.20
  -3 -13  -4    6.04    0.29
   3  13   4    5.85    0.31
   3  13   4    5.98    0.31
   3  13   4    5.92    0.31
  -4 -13  -4    2.64    0.18
   4  13   4    2.59    0.20
  -5 -13  -4    8.39    0.34
   5  13   4    7.75    0.36
   5  13   4    8.18    0.36
  -6 -13  -4    1.50    0.11
   6  13   4    1.23    0.13
   6  13   4    1.29    0.12
  -7 -13  -4    4.57    0.20
   7  13   4    4.63    0.21
  10 -14  -4    0.11    0.05
 -10  14   4    0.03    0.11
  -9  14   4    0.50    0.13
  -8  14   4    1.09    0.14
  -8  14   4    0.87    0.16
  -7  14   4    0.86    0.16
  -7  14   4    0.94    0.16
  -7  14   4    0.80    0.14
  -6  14   4    1.98    0.18
  -6  14   4    2.06    0.17
  -6  14   4    1.90    0.19
  -5  14   4    8.75    0.42
  -5  14   4    9.78    0.43
  -5  14   4    9.88    0.42
  -4  14   4    0.23    0.09
  -4  14   4    0.24    0.10
  -4  14   4    0.19    0.12
   3 -14  -4   -0.07    0.11
  -3  14   4   -0.07    0.09
  -3  14   4   -0.05    0.09
  -2  14   4    0.64    0.12
  -2  14   4    0.76    0.15
  -1  14   4    2.75    0.21
  -1  14   4    2.90    0.22
   0  14   4    0.06    0.09
   0  14   4    0.10    0.09
   1  14   4   36.40    1.38
   1  14   4   36.80    1.39
   2  14   4    1.56    0.16
   2  14   4    1.86    0.17
  -3 -14  -4    0.11    0.10
   3  14   4   -0.01    0.07
   3  14   4    0.08    0.08
  -4 -14  -4    3.40    0.20
   4  14   4    3.58    0.20
   4  14   4    3.66    0.21
  -5 -14  -4    3.72    0.19
   5  14   4    3.76    0.20
   5  14   4    3.73    0.19
  -6 -14  -4    0.03    0.06
   6  14   4   -0.07    0.08
   6  14   4   -0.03    0.06
  -9  15   4    1.13    0.13
  -8  15   4    2.89    0.20
  -8  15   4    3.47    0.20
  -7  15   4    0.44    0.11
  -7  15   4    0.27    0.09
  -6  15   4    3.95    0.21
  -6  15   4    3.49    0.22
  -6  15   4    3.66    0.23
  -5  15   4    3.08    0.24
  -5  15   4    3.97    0.21
  -4  15   4    0.27    0.09
  -4  15   4    0.17    0.14
  -4  15   4    0.28    0.08
   3 -15  -4    0.17    0.12
  -3  15   4    0.27    0.10
  -3  15   4    0.12    0.08
  -2  15   4   26.98    1.05
  -2  15   4   27.28    1.04
  -1  15   4    0.84    0.15
  -1  15   4    0.73    0.15
   0  15   4    0.06    0.08
   0  15   4    0.08    0.08
   1  15   4    2.29    0.23
   1  15   4    2.28    0.27
   2  15   4    1.72    0.16
   2  15   4    1.89    0.16
   3  15   4    0.69    0.12
   3  15   4    0.61    0.13
   4  15   4    3.50    0.19
   4  15   4    3.45    0.19
   5  15   4   -0.04    0.10
   5  15   4   -0.02    0.08
   9 -16  -4    3.34    0.15
  -8  16   4    0.16    0.12
  -8  16   4    0.18    0.11
  -7  16   4    0.31    0.10
  -7  16   4    0.25    0.09
  -6  16   4    2.12    0.20
  -6  16   4    1.81    0.15
  -6  16   4    1.71    0.14
  -5  16   4    0.16    0.07
  -5  16   4    0.25    0.08
  -4  16   4    0.52    0.12
  -4  16   4    0.44    0.09
  -3  16   4   -0.04    0.08
  -3  16   4    0.00    0.08
   2 -16  -4   17.55    0.70
  -2  16   4   17.98    0.70
  -2  16   4   17.79    0.71
  -1  16   4    2.96    0.20
  -1  16   4    2.92    0.19
   0  16   4    0.03    0.07
   0  16   4    0.09    0.07
   1  16   4    5.45    0.27
   1  16   4    5.52    0.26
   2  16   4    1.24    0.13
   2  16   4    1.04    0.12
   3  16   4    0.22    0.07
   3  16   4    0.21    0.07
   4  16   4    0.94    0.13
   4  16   4    0.65    0.14
  -7  17   4    0.33    0.09
  -6  17   4    0.63    0.12
  -6  17   4    0.69    0.10
  -5  17   4    1.01    0.13
  -5  17   4    1.21    0.12
  -4  17   4    0.01    0.06
  -4  17   4    0.11    0.07
  -3  17   4    0.63    0.12
  -3  17   4    0.80    0.12
   2 -17  -4    0.27    0.10
  -2  17   4    0.31    0.08
  -2  17   4    0.37    0.08
   1 -17  -4    0.13    0.08
  -1  17   4    0.08    0.07
  -1  17   4   -0.05    0.06
   0 -17  -4    0.10    0.07
   0  17   4    0.33    0.07
   0  17   4    0.24    0.08
   1  17   4   -0.06    0.06
   1  17   4   -0.02    0.07
   2  17   4    1.01    0.10
   2  17   4    0.89    0.12
  -3 -17  -4    0.38    0.08
   3  17   4    0.37    0.08
   3  17   4    0.29    0.09
  -6  18   4    0.24    0.09
  -5  18   4    6.93    0.29
  -4  18   4    0.55    0.11
  -4  18   4    0.65    0.10
  -3  18   4    0.02    0.06
  -3  18   4    0.03    0.06
  -2  18   4   25.84    0.97
  -2  18   4   26.14    0.98
   1 -18  -4    0.91    0.14
  -1  18   4    0.84    0.10
  -1  18   4    0.80    0.11
   0 -18  -4    0.62    0.11
   0  18   4    0.74    0.11
   0  18   4    0.59    0.10
  -1 -18  -4   17.32    0.66
   1  18   4   17.33    0.66
   1  18   4   17.65    0.66
  -3  19   4    0.49    0.10
  -3  19   4    0.50    0.10
  -2  19   4    0.90    0.10
  -2  19   4    0.63    0.10
   1  19  -5   -0.08    0.07
   1  19  -5    0.05    0.05
   0  19  -5    0.23    0.07
  -1  19  -5    0.20    0.09
  -1  19  -5    0.21    0.06
  -2  19  -5    0.01    0.06
  -2  19  -5   -0.02    0.06
  -3  19  -5    0.03    0.05
  -3  19  -5    0.07    0.06
  -4  19  -5    0.48    0.08
  -4  19  -5    0.43    0.09
   3  18  -5    0.03    0.06
   3  18  -5    0.25    0.10
   2  18  -5    1.37    0.11
   2  18  -5    1.23    0.16
   1  18  -5    1.18    0.11
   1  18  -5    1.41    0.13
   0  18  -5    1.14    0.13
   0  18  -5    0.99    0.12
  -1  18  -5    0.04    0.06
  -1  18  -5    0.08    0.06
  -2  18  -5   13.48    0.53
  -3  18  -5    0.13    0.06
  -3  18  -5    0.15    0.06
  -4  18  -5    0.62    0.10
  -5  18  -5   10.78    0.43
  -6  18  -5    0.78    0.09
   5  17  -5    4.30    0.19
   4  17  -5    1.27    0.11
   4  17  -5    1.37    0.12
   4  17  -5    1.04    0.17
   3  17  -5    0.12    0.08
   3  17  -5    0.04    0.05
   3  17  -5    0.13    0.07
   2  17  -5    0.64    0.13
   2  17  -5    1.00    0.15
   2  17  -5    1.03    0.12
   1  17  -5    1.82    0.16
   1  17  -5    1.72    0.15
   0  17  -5    1.16    0.14
   0  17  -5    1.19    0.13
  -1  17  -5    1.21    0.14
  -1  17  -5    1.47    0.14
  -2  17  -5    8.83    0.39
  -2  17  -5    9.07    0.38
  -3  17  -5    1.37    0.13
  -3  17  -5    1.32    0.14
  -4  17  -5    0.61    0.11
  -4  17  -5    0.70    0.11
  -5  17  -5    0.42    0.08
  -5  17  -5    0.60    0.10
  -6  17  -5    1.38    0.11
  -7  17  -5    0.04    0.05
   6  16  -5   -0.01    0.05
   6  16  -5    0.08    0.05
   5  16  -5    0.09    0.06
   5  16  -5    0.08    0.05
   4  16  -5    4.54    0.22
   4  16  -5    4.31    0.24
   4  16  -5    4.69    0.23
   3  16  -5    0.16    0.08
   3  16  -5    0.05    0.06
   3  16  -5    0.10    0.09
   2  16  -5    6.10    0.31
   2  16  -5    6.17    0.31
   2  16  -5    6.46    0.30
   1  16  -5   25.06    0.98
   1  16  -5   25.11    0.97
   0  16  -5    0.39    0.10
   0  16  -5    0.37    0.09
   0  16  -5    0.29    0.14
  -1  16  -5    2.35    0.19
  -1  16  -5    2.38    0.18
  -2  16  -5    0.70    0.14
  -2  16  -5    0.72    0.13
  -3  16  -5    2.11    0.17
  -3  16  -5    2.19    0.21
  -4  16  -5    0.49    0.12
  -4  16  -5    0.53    0.13
  -4  16  -5    0.29    0.13
  -5  16  -5    0.50    0.11
  -5  16  -5    0.34    0.08
  -6  16  -5    0.31    0.10
  -6  16  -5    0.19    0.07
  -7  16  -5    0.47    0.10
  -7  16  -5    0.41    0.10
  -8  16  -5    0.09    0.06
   7  15  -5    4.45    0.19
   7  15  -5    4.13    0.19
  -7 -15   5    4.14    0.19
   6  15  -5    0.01    0.06
   6  15  -5    0.02    0.05
   5  15  -5    0.99    0.11
   5  15  -5    1.09    0.13
   5  15  -5    1.18    0.17
   4  15  -5   12.15    0.51
   4  15  -5   12.52    0.52
   4  15  -5   12.18    0.50
   3  15  -5    0.04    0.09
   3  15  -5    0.12    0.10
   2  15  -5    5.06    0.29
   2  15  -5    5.21    0.27
   2  15  -5    5.72    0.29
   1  15  -5   14.79    0.62
   1  15  -5   15.20    0.61
   1  15  -5   14.16    0.60
   0  15  -5    0.11    0.13
   0  15  -5    0.11    0.08
   0  15  -5   -0.08    0.09
  -1  15  -5   -0.09    0.07
  -1  15  -5    0.15    0.10
  -2  15  -5    1.25    0.17
  -2  15  -5    1.26    0.16
  -3  15  -5    0.20    0.09
  -3  15  -5    0.13    0.12
  -3  15  -5    0.16    0.08
  -4  15  -5    0.17    0.08
  -4  15  -5    0.12    0.08
  -4  15  -5    0.23    0.11
  -5  15  -5    1.42    0.17
  -5  15  -5    1.26    0.14
  -6  15  -5    0.16    0.07
  -6  15  -5    0.03    0.07
  -6  15  -5    0.10    0.09
  -7  15  -5    0.02    0.06
  -7  15  -5   -0.07    0.08
  -8  15  -5    1.73    0.12
  -8  15  -5    1.64    0.15
   9 -15   5    0.64    0.10
   7  14  -5    0.01    0.05
   7  14  -5    0.05    0.05
   6  14  -5    1.20    0.12
   6  14  -5    1.06    0.20
   6  14  -5    1.00    0.13
   5  14  -5    4.18    0.25
   5  14  -5    4.05    0.24
   5  14  -5    4.43    0.23
   4  14  -5    3.77    0.24
   4  14  -5    3.54    0.22
   3  14  -5    1.04    0.16
   3  14  -5    1.00    0.20
   3  14  -5    1.08    0.18
   3  14  -5    1.07    0.18
   2  14  -5    0.48    0.12
   2  14  -5    0.70    0.14
   2  14  -5    0.59    0.12
   1  14  -5    3.33    0.26
   1  14  -5    3.03    0.21
   1  14  -5    3.57    0.23
   0  14  -5    1.10    0.16
   0  14  -5    1.24    0.25
   0  14  -5    1.31    0.18
  -1  14  -5    0.07    0.09
  -1  14  -5   -0.11    0.09
  -2  14  -5    4.54    0.26
  -2  14  -5    5.10    0.27
  -3  14  -5   -0.06    0.08
  -3  14  -5    0.06    0.09
  -3  14  -5    0.21    0.11
  -4  14  -5    0.02    0.09
  -4  14  -5    0.04    0.10
  -4  14  -5    0.00    0.08
  -5  14  -5    4.57    0.25
  -5  14  -5    4.50    0.26
  -5  14  -5    4.79    0.26
  -6  14  -5    2.04    0.17
  -6  14  -5    1.69    0.17
  -6  14  -5    2.03    0.17
  -7  14  -5    0.58    0.11
  -8  14  -5    3.67    0.21
  -8  14  -5    3.98    0.20
  -9  14  -5    1.69    0.15
  -9  14  -5    1.89    0.12
   8  13  -5    6.38    0.27
   8  13  -5    6.39    0.28
   7  13  -5    2.23    0.15
   7  13  -5    2.57    0.17
   6  13  -5    0.19    0.08
   6  13  -5    0.39    0.12
   6  13  -5    0.09    0.07
   5  13  -5    3.02    0.20
   5  13  -5    3.25    0.22
   5  13  -5    3.18    0.20
   4  13  -5    1.32    0.18
   4  13  -5    1.73    0.18
   4  13  -5    1.21    0.16
   4  13  -5    1.65    0.20
   3  13  -5    3.61    0.22
   3  13  -5    3.34    0.25
   3  13  -5    3.73    0.25
   3  13  -5    3.41    0.24
   2  13  -5    3.90    0.27
   2  13  -5    3.73    0.26
   2  13  -5    4.23    0.24
   1  13  -5    0.40    0.12
   1  13  -5    0.24    0.12
   1  13  -5    0.25    0.10
   0  13  -5    0.42    0.15
   0  13  -5    0.41    0.11
   0  13  -5    0.36    0.09
  -1  13  -5    0.10    0.08
  -1  13  -5    0.22    0.11
  -2  13  -5    1.93    0.19
  -2  13  -5    1.93    0.19
  -2  13  -5    1.90    0.20
  -3  13  -5    0.63    0.16
  -3  13  -5    0.66    0.15
  -3  13  -5    0.77    0.17
  -4  13  -5    0.32    0.09
  -4  13  -5    0.24    0.09
  -4  13  -5    0.18    0.11
  -5  13  -5   59.48    2.14
  -5  13  -5   55.46    2.13
  -5  13  -5   58.06    2.13
  -6  13  -5    1.68    0.17
  -6  13  -5    2.00    0.18
  -6  13  -5    1.90    0.17
  -7  13  -5    0.20    0.08
  -7  13  -5    0.30    0.08
  -8  13  -5    4.40    0.23
  -8  13  -5    3.87    0.22
  -9  13  -5    4.35    0.22
  -9  13  -5    4.86    0.24
   9 -13   5    4.67    0.22
  10 -13   5    0.09    0.07
   9  12  -5    1.01    0.12
   9  12  -5    1.25    0.10
   8  12  -5    4.59    0.22
   8  12  -5    4.63    0.23
   7  12  -5    0.07    0.07
   7  12  -5    0.18    0.07
   6  12  -5    0.37    0.08
   6  12  -5    0.26    0.08
   6  12  -5    0.18    0.08
   6  12  -5    0.34    0.13
   5  12  -5    8.77    0.41
   5  12  -5    8.84    0.40
   5  12  -5    8.62    0.42
   5  12  -5    9.13    0.39
   4  12  -5   16.89    0.69
   4  12  -5   16.89    0.68
   4  12  -5   17.47    0.71
   4  12  -5   17.09    0.70
   3  12  -5   -0.13    0.11
   3  12  -5    0.02    0.08
   3  12  -5    0.06    0.10
   3  12  -5    0.06    0.12
   2  12  -5    4.73    0.29
   2  12  -5    4.81    0.31
   2  12  -5    4.85    0.26
   2  12  -5    5.04    0.29
   1  12  -5   47.93    1.76
   1  12  -5   46.19    1.77
   0  12  -5    0.63    0.16
   0  12  -5    0.58    0.16
   0  12  -5    0.90    0.17
  -1  12  -5    0.94    0.17
  -1  12  -5    0.64    0.13
  -1  12  -5    0.87    0.16
  -2  12  -5    2.67    0.19
  -2  12  -5    2.30    0.19
  -2  12  -5    2.11    0.21
  -3  12  -5    1.03    0.14
  -3  12  -5    0.63    0.12
  -3  12  -5    0.92    0.17
  -4  12  -5    0.73    0.13
  -4  12  -5    0.91    0.15
  -4  12  -5    0.82    0.16
  -5  12  -5    0.19    0.10
  -5  12  -5    0.15    0.08
  -5  12  -5    0.23    0.09
  -6  12  -5    1.15    0.15
  -6  12  -5    1.07    0.16
  -6  12  -5    1.62    0.16
  -7  12  -5    0.89    0.15
  -7  12  -5    0.79    0.14
  -8  12  -5   24.33    0.99
  -8  12  -5   24.75    0.95
  -9  12  -5    1.92    0.15
   9 -12   5    2.61    0.15
 -10  12  -5    0.09    0.09
  10 -12   5    0.04    0.06
   9  11  -5   -0.01    0.07
   9  11  -5    0.01    0.05
   8  11  -5    0.11    0.07
   8  11  -5    0.07    0.06
   7  11  -5    1.53    0.15
   7  11  -5    1.39    0.16
   7  11  -5    1.73    0.15
   7  11  -5    1.23    0.24
   6  11  -5    1.02    0.14
   6  11  -5    0.54    0.14
   6  11  -5    0.70    0.13
   6  11  -5    1.19    0.17
   5  11  -5    5.36    0.28
   5  11  -5    4.96    0.31
   5  11  -5    5.60    0.30
   5  11  -5    5.05    0.27
   4  11  -5   16.92    0.68
   4  11  -5   16.97    0.70
   4  11  -5   17.22    0.69
   4  11  -5   17.45    0.71
   3  11  -5    0.00    0.09
   3  11  -5   -0.05    0.11
   3  11  -5    0.01    0.12
   3  11  -5    0.03    0.11
   2  11  -5    0.94    0.22
   2  11  -5    0.61    0.15
   2  11  -5    0.66    0.13
   2  11  -5    0.45    0.13
   1  11  -5    0.08    0.13
   1  11  -5    0.06    0.10
   1  11  -5   -0.04    0.12
   0  11  -5    4.41    0.33
   0  11  -5    4.84    0.26
   0  11  -5    4.33    0.28
  -1  11  -5    0.12    0.10
  -1  11  -5    0.11    0.12
  -1  11  -5    0.06    0.10
  -2  11  -5   11.88    0.50
  -2  11  -5   12.05    0.51
  -2  11  -5   12.56    0.52
  -3  11  -5    1.13    0.13
  -3  11  -5    1.33    0.18
  -3  11  -5    1.23    0.17
  -4  11  -5    0.46    0.11
  -4  11  -5    0.30    0.17
  -4  11  -5    0.45    0.10
  -5  11  -5    0.87    0.15
  -5  11  -5    0.86    0.12
  -5  11  -5    0.55    0.11
  -6  11  -5    0.05    0.07
  -6  11  -5    0.28    0.10
  -6  11  -5    0.10    0.09
  -7  11  -5    1.99    0.17
  -7  11  -5    1.98    0.18
  -8  11  -5    0.88    0.14
  -8  11  -5    0.66    0.14
  -9  11  -5    0.22    0.08
  -9  11  -5    0.33    0.08
   9 -11   5    0.32    0.07
 -10  11  -5   -0.03    0.09
  10 -11   5    0.02    0.06
  11 -11   5    0.05    0.06
   9  10  -5    1.34    0.12
   9  10  -5    1.44    0.15
   8  10  -5    1.19    0.12
   8  10  -5    1.24    0.13
   8  10  -5    1.20    0.16
   7  10  -5   16.35    0.66
   7  10  -5   15.85    0.65
   7  10  -5   16.41    0.64
   7  10  -5   15.54    0.67
   6  10  -5    0.25    0.14
   6  10  -5    0.17    0.09
   6  10  -5    0.14    0.10
   6  10  -5    0.05    0.08
   5  10  -5    1.10    0.18
   5  10  -5    0.86    0.23
   5  10  -5    0.82    0.16
   5  10  -5    0.84    0.15
   4  10  -5   13.29    0.56
   4  10  -5   14.15    0.59
   3  10  -5    0.21    0.14
   3  10  -5    0.41    0.12
   3  10  -5    0.28    0.10
   3  10  -5    0.29    0.11
   2  10  -5    1.97    0.22
   2  10  -5    2.10    0.18
   2  10  -5    1.54    0.23
   2  10  -5    1.79    0.23
   1  10  -5    2.59    0.20
   1  10  -5    2.28    0.26
   1  10  -5    2.47    0.25
   0  10  -5    2.20    0.22
   0  10  -5    2.17    0.20
  -1  10  -5    0.09    0.09
  -1  10  -5    0.02    0.08
  -1  10  -5    0.22    0.12
  -2  10  -5   44.62    1.66
  -2  10  -5   43.84    1.65
  -2  10  -5   45.90    1.67
  -3  10  -5    4.10    0.21
  -3  10  -5    4.25    0.26
  -3  10  -5    3.78    0.25
  -4  10  -5    2.33    0.21
  -4  10  -5    1.77    0.14
  -4  10  -5    2.03    0.19
  -5  10  -5    4.04    0.25
  -5  10  -5    4.21    0.22
  -6  10  -5    1.01    0.17
  -6  10  -5    1.14    0.16
  -6  10  -5    1.17    0.13
  -7  10  -5    0.48    0.11
  -7  10  -5    0.57    0.10
  -8  10  -5    1.37    0.16
  -8  10  -5    1.25    0.15
  -9  10  -5    5.32    0.26
  -9  10  -5    5.00    0.26
   9 -10   5    5.33    0.26
 -10  10  -5    0.02    0.10
  10 -10   5    0.01    0.06
  11 -10   5    1.23    0.11
  11 -10   5    1.08    0.13
  10   9  -5    4.90    0.22
   9   9  -5   -0.06    0.08
   9   9  -5    0.00    0.06
   8   9  -5    0.00    0.07
   8   9  -5    0.10    0.09
   8   9  -5    0.05    0.06
   7   9  -5   14.45    0.58
   7   9  -5   13.61    0.58
   7   9  -5   14.47    0.60
   7   9  -5   14.26    0.65
   6   9  -5    8.68    0.45
   6   9  -5   10.26    0.42
   6   9  -5    9.16    0.43
   6   9  -5    9.11    0.40
   5   9  -5    5.20    0.29
   5   9  -5    5.04    0.28
   5   9  -5    5.30    0.33
   4   9  -5    0.22    0.10
   4   9  -5   -0.10    0.08
   4   9  -5    0.00    0.15
   4   9  -5   -0.01    0.10
   3   9  -5    7.24    0.34
   3   9  -5    6.58    0.32
   3   9  -5    6.09    0.37
   3   9  -5    6.71    0.33
   2   9  -5   -0.16    0.11
   2   9  -5   -0.11    0.09
  -2  -9   5    0.13    0.07
  -1  -9   5    4.12    0.20
   0   9  -5    0.61    0.15
   0  -9   5    0.61    0.10
  -1   9  -5    8.28    0.35
   1  -9   5    8.11    0.33
  -2   9  -5   57.02    2.07
   2  -9   5   55.81    2.05
  -3   9  -5    0.11    0.12
  -3   9  -5    0.01    0.12
  -3   9  -5    0.10    0.07
  -4   9  -5    2.21    0.20
  -4   9  -5    2.65    0.16
  -4   9  -5    2.32    0.22
  -5   9  -5   18.12    0.71
  -5   9  -5   17.96    0.72
  -5   9  -5   17.67    0.71
  -6   9  -5   28.06    1.04
  -6   9  -5   25.93    1.04
  -6   9  -5   26.96    1.04
  -7   9  -5    0.81    0.14
  -7   9  -5    0.62    0.15
  -8   9  -5   14.80    0.64
  -8   9  -5   17.22    0.66
  -9   9  -5   10.49    0.47
 -10   9  -5    0.47    0.11
  10  -9   5    0.56    0.12
  11  -9   5    0.10    0.06
  11  -9   5   -0.02    0.07
  11   8  -5    0.12    0.05
 -11  -8   5    0.20    0.06
  10   8  -5    0.24    0.07
   9   8  -5    2.09    0.19
   9   8  -5    2.07    0.16
   8   8  -5    4.76    0.25
   8   8  -5    5.02    0.28
   8   8  -5    5.18    0.27
   7   8  -5    3.87    0.24
   7   8  -5    4.09    0.23
   7   8  -5    4.08    0.26
   6   8  -5    0.73    0.14
   6   8  -5    0.73    0.15
   6   8  -5    1.10    0.26
   6   8  -5    0.81    0.17
   5   8  -5    4.11    0.24
   5   8  -5    3.40    0.32
   5   8  -5    4.04    0.25
   5   8  -5    3.97    0.23
   4   8  -5    9.22    0.41
   4   8  -5   10.07    0.43
   4   8  -5    8.86    0.47
   4   8  -5    9.22    0.41
   3   8  -5   -0.19    0.10
   3   8  -5    0.07    0.14
   3   8  -5    0.00    0.12
  -3  -8   5    0.02    0.07
  -2  -8   5    4.91    0.22
  -2  -8   5    4.44    0.23
  -1  -8   5    2.47    0.15
  -1  -8   5    2.60    0.13
   0   8  -5    0.42    0.09
   0  -8   5    0.42    0.07
   0  -8   5    0.37    0.08
  -1   8  -5    1.41    0.12
   1  -8   5    1.22    0.10
   1  -8   5    1.42    0.09
  -2   8  -5   23.35    0.87
   2  -8   5   22.74    0.86
  -3   8  -5    0.05    0.07
   3  -8   5    0.10    0.08
  -4   8  -5    0.68    0.17
  -4   8  -5    0.54    0.13
  -4   8  -5    0.55    0.10
  -5   8  -5   11.03    0.50
  -5   8  -5   11.79    0.48
  -5   8  -5   11.98    0.49
  -6   8  -5    6.32    0.29
  -6   8  -5    5.52    0.30
  -7   8  -5    0.42    0.12
  -7   8  -5    0.58    0.13
  -8   8  -5   34.08    1.23
  -8   8  -5   30.20    1.22
  -9   8  -5    0.36    0.09
   9  -8   5    0.34    0.09
 -10   8  -5    0.92    0.18
  10  -8   5    0.94    0.13
  11  -8   5    1.44    0.12
  11  -8   5    1.30    0.13
  11   7  -5    2.54    0.14
  10   7  -5    6.14    0.28
   9   7  -5    0.14    0.07
   9   7  -5    0.25    0.08
   8   7  -5    7.12    0.36
   8   7  -5    7.12    0.33
   8   7  -5    7.06    0.33
   7   7  -5   40.17    1.46
   7   7  -5   36.88    1.44
   7   7  -5   38.13    1.44
   6   7  -5    3.41    0.22
   6   7  -5    3.19    0.20
   6   7  -5    2.95    0.23
   5   7  -5    1.10    0.19
   5   7  -5    0.87    0.15
   5   7  -5    1.01    0.17
   4   7  -5   14.18    0.57
   4   7  -5   14.62    0.59
   4   7  -5   13.96    0.58
  -4  -7   5   14.25    0.57
  -3  -7   5    1.50    0.12
  -2  -7   5    1.39    0.10
  -1  -7   5   43.02    1.53
  -1  -7   5   40.88    1.53
   0  -7   5    0.33    0.05
   0  -7   5    0.39    0.06
  -1   7  -5    0.01    0.06
   1  -7   5   -0.01    0.03
   1  -7   5    0.00    0.03
  -2   7  -5   31.59    1.17
   2  -7   5   31.75    1.16
  -3   7  -5    1.73    0.12
  -3   7  -5    1.88    0.13
   3  -7   5    1.49    0.13
  -4   7  -5    0.26    0.07
  -4   7  -5    0.19    0.07
  -5   7  -5   30.92    1.19
  -5   7  -5   31.40    1.19
  -5   7  -5   31.85    1.18
  -6   7  -5    3.68    0.24
  -6   7  -5    3.95    0.21
  -7   7  -5    0.12    0.09
  -7   7  -5    0.13    0.07
  -8   7  -5    4.40    0.25
  -8   7  -5    4.30    0.27
   8  -7   5    4.36    0.24
  -9   7  -5    2.08    0.18
   9  -7   5    2.34    0.17
  10  -7   5    0.08    0.07
  11  -7   5    1.81    0.13
  11  -7   5    1.43    0.13
  11   6  -5    3.13    0.17
  10   6  -5    1.35    0.14
   9   6  -5    0.01    0.11
   9   6  -5    0.17    0.08
   9   6  -5    0.08    0.07
   8   6  -5    9.66    0.42
   8   6  -5    9.57    0.44
   8   6  -5   10.01    0.43
   7   6  -5    0.43    0.10
   7   6  -5    0.23    0.08
   7   6  -5    0.36    0.13
   6   6  -5    0.14    0.12
   6   6  -5    0.28    0.09
   6   6  -5    0.39    0.10
   5   6  -5   21.31    0.82
   5   6  -5   21.06    0.81
   5   6  -5   20.63    0.83
  -4  -6   5    0.18    0.06
  -3  -6   5    2.36    0.13
  -2  -6   5    2.70    0.13
  -1  -6   5    1.84    0.09
  -1  -6   5    2.03    0.10
   0  -6   5    0.40    0.05
   0  -6   5    0.48    0.05
  -1   6  -5    2.40    0.14
   1  -6   5    2.36    0.11
  -2   6  -5    5.80    0.24
  -2   6  -5    5.68    0.25
   2  -6   5    5.91    0.24
  -3   6  -5    0.02    0.06
  -3   6  -5    0.01    0.04
   3  -6   5    0.07    0.05
  -4   6  -5    0.44    0.09
  -4   6  -5    0.45    0.11
  -5   6  -5    3.04    0.23
  -5   6  -5    3.36    0.23
  -5   6  -5    3.15    0.17
  -6   6  -5    0.72    0.11
  -6   6  -5    0.81    0.16
  -7   6  -5    0.10    0.10
  -7   6  -5   -0.12    0.08
  -8   6  -5    0.34    0.11
  -8   6  -5    0.22    0.09
   8  -6   5    0.31    0.10
  -9   6  -5    2.73    0.21
   9  -6   5    2.44    0.19
  10  -6   5    0.13    0.07
  11  -6   5    0.80    0.11
  11  -6   5    0.77    0.11
  12  -6   5    2.40    0.14
  12   5  -5    0.18    0.05
  11   5  -5    0.08    0.06
   9   5  -5    0.04    0.08
   9   5  -5    0.11    0.08
   9   5  -5    0.20    0.13
   8   5  -5    0.14    0.08
   8   5  -5    0.32    0.12
   8   5  -5   -0.01    0.08
   7   5  -5   11.22    0.47
   7   5  -5   11.16    0.50
   7   5  -5   10.99    0.47
   6   5  -5    0.01    0.08
   6   5  -5   -0.08    0.12
   6   5  -5    0.02    0.10
   5   5  -5    4.57    0.24
  -5  -5   5    4.11    0.22
  -4  -5   5    0.48    0.08
   3   5  -5    0.98    0.09
  -3  -5   5    1.28    0.08
  -2  -5   5    0.79    0.06
  -1  -5   5  109.07    3.91
  -1  -5   5  108.25    3.91
   0  -5   5    2.09    0.10
   0  -5   5    2.01    0.09
   1  -5   5    4.71    0.19
  -2   5  -5   42.18    1.57
  -2   5  -5   43.37    1.56
   2  -5   5   42.75    1.56
  -3   5  -5    0.17    0.06
  -3   5  -5    0.19    0.04
   3  -5   5    0.27    0.05
  -4   5  -5    0.29    0.06
  -4   5  -5    0.22    0.05
  -5   5  -5    1.04    0.11
  -5   5  -5    0.95    0.18
  -5   5  -5    0.64    0.15
  -6   5  -5    0.93    0.17
  -6   5  -5    1.04    0.12
  -7   5  -5    0.18    0.08
   7  -5   5    0.26    0.10
  -8   5  -5    1.76    0.18
   8  -5   5    1.51    0.18
  -9   5  -5    0.06    0.12
   9  -5   5    0.06    0.09
  10  -5   5    0.34    0.08
  11  -5   5    6.07    0.27
  11  -5   5    5.68    0.27
  12  -5   5    0.11    0.06
  12   4  -5    1.35    0.10
  11   4  -5   21.33    0.82
  10   4  -5    7.33    0.33
   9   4  -5    1.06    0.24
   9   4  -5    0.87    0.14
   9   4  -5    1.00    0.15
   8   4  -5   10.24    0.44
   8   4  -5    9.84    0.47
   8   4  -5   10.50    0.44
   7   4  -5   70.56    2.65
   7   4  -5   72.32    2.64
   7   4  -5   74.00    2.66
   6   4  -5    1.83    0.23
   6   4  -5    2.12    0.18
   6   4  -5    1.95    0.18
  -5  -4   5    0.80    0.11
   4   4  -5   52.60    2.05
  -4  -4   5   59.93    2.05
   3   4  -5    2.40    0.12
  -3  -4   5    2.18    0.12
  -2  -4   5    0.04    0.02
  -1  -4   5   18.54    0.70
  -1  -4   5   19.73    0.70
   0  -4   5    1.59    0.08
  -1   4  -5    7.30    0.29
   1  -4   5    7.65    0.29
  -2   4  -5    1.71    0.09
   2  -4   5    1.74    0.09
  -3   4  -5    5.29    0.22
  -3   4  -5    5.35    0.23
   3  -4   5    4.85    0.22
  -4   4  -5    4.75    0.21
  -4   4  -5    4.71    0.22
  -5   4  -5   75.35    2.80
  -5   4  -5   78.31    2.80
  -6   4  -5    4.06    0.21
  -6   4  -5    3.92    0.25
  -7   4  -5    1.59    0.16
  -7   4  -5    2.13    0.19
   7  -4   5    1.80    0.19
  -8   4  -5    0.88    0.17
   8  -4   5    0.71    0.12
   9  -4   5    4.77    0.25
  10  -4   5    1.19    0.15
  10  -4   5    1.34    0.14
  11  -4   5    0.05    0.06
  11  -4   5    0.09    0.08
  12  -4   5    2.28    0.14
  12   3  -5    0.04    0.05
  11   3  -5    2.58    0.16
  10   3  -5    0.42    0.09
   9   3  -5    0.10    0.07
   9   3  -5    0.15    0.09
   8   3  -5   26.46    0.97
   8   3  -5   25.29    0.99
   8   3  -5   23.45    1.00
   7   3  -5    0.35    0.09
   7   3  -5    0.58    0.15
   7   3  -5    0.26    0.10
   6   3  -5    1.69    0.18
   6   3  -5    1.73    0.18
  -5  -3   5    0.20    0.05
   4   3  -5   20.12    0.75
  -4  -3   5   19.83    0.74
   3   3  -5    0.70    0.06
  -3  -3   5    0.56    0.05
  -2  -3   5    0.42    0.04
  -1  -3   5  125.28    4.50
   0  -3   5    4.30    0.17
  -1   3  -5    9.76    0.36
   1  -3   5    9.46    0.37
  -2   3  -5  209.61    7.72
   2  -3   5  220.31    7.72
  -3   3  -5    5.61    0.25
  -3   3  -5    5.67    0.23
   3  -3   5    5.94    0.24
  -4   3  -5    0.30    0.07
  -4   3  -5    0.14    0.06
   4  -3   5    0.08    0.05
  -5   3  -5    8.96    0.38
  -5   3  -5    9.14    0.38
  -6   3  -5    0.46    0.09
  -6   3  -5    0.36    0.12
   6  -3   5    0.04    0.11
  -7   3  -5    1.57    0.17
   7  -3   5    1.42    0.19
  -8   3  -5    1.69    0.21
   8  -3   5    1.74    0.19
   9  -3   5    9.85    0.42
  10  -3   5    0.24    0.08
  10  -3   5    0.13    0.08
  11  -3   5    0.03    0.06
  11  -3   5    0.11    0.08
  12  -3   5    0.20    0.07
  12   2  -5   -0.03    0.05
  11   2  -5    2.32    0.16
  10   2  -5    0.29    0.08
   9   2  -5    2.88    0.19
   9   2  -5    2.80    0.21
   8   2  -5    6.08    0.40
   8   2  -5    6.06    0.31
   7   2  -5   10.42    0.44
   7   2  -5   10.71    0.45
   7   2  -5    9.56    0.49
  -5  -2   5   25.81    0.96
   4   2  -5  143.85    5.30
  -4  -2   5  150.49    5.30
   3   2  -5    8.79    0.33
  -3  -2   5    8.69    0.33
  -2  -2   5    0.42    0.04
   0  -2   5    2.72    0.11
  -1   2  -5    7.60    0.31
   1  -2   5    8.58    0.31
  -2   2  -5   85.41    3.18
   2  -2   5   90.99    3.18
  -3   2  -5   12.06    0.48
   3  -2   5   12.95    0.48
  -4   2  -5    0.04    0.04
  -4   2  -5    0.23    0.07
   4  -2   5   -0.02    0.06
  -5   2  -5    2.28    0.16
  -5   2  -5    2.19    0.15
   6  -2   5   14.05    0.58
  -7   2  -5   12.65    0.51
   7  -2   5   11.90    0.51
   8  -2   5    0.08    0.09
   9  -2   5    0.12    0.09
   9  -2   5    0.04    0.09
  10  -2   5    0.72    0.13
  10  -2   5    0.55    0.14
  11  -2   5    0.12    0.07
  11  -2   5    0.08    0.08
  12  -2   5    2.06    0.14
  12   1  -5    0.88    0.10
  11   1  -5   12.52    0.51
  10   1  -5    3.64    0.21
   9   1  -5    0.14    0.11
   9   1  -5   -0.01    0.08
   8   1  -5   67.24    2.51
   8   1  -5   69.87    2.52
   7   1  -5    1.60    0.22
   7   1  -5    1.51    0.17
  -6  -1   5    0.60    0.12
  -5  -1   5    0.82    0.08
   4   1  -5  158.60    5.67
  -4  -1   5  156.66    5.68
   3   1  -5    2.44    0.11
  -3  -1   5    2.73    0.11
  -2  -1   5    1.37    0.07
  -1  -1   5    0.11    0.03
  -1  -1   5    0.14    0.02
   0   1  -5    2.11    0.09
   0  -1   5    2.24    0.09
  -2   1  -5   43.37    1.65
   2  -1   5   47.43    1.65
  -3   1  -5   15.14    0.57
   3  -1   5   15.29    0.57
  -4   1  -5    3.65    0.19
  -4   1  -5    3.60    0.17
  -5   1  -5    6.50    0.29
  -5   1  -5    6.66    0.30
  -6   1  -5    1.43    0.25
  -6   1  -5    1.95    0.18
   6  -1   5    2.01    0.22
  -7   1  -5    1.02    0.22
   7  -1   5    0.83    0.18
   8  -1   5   54.29    2.03
   8  -1   5   54.96    2.02
   9  -1   5    0.21    0.08
   9  -1   5    0.15    0.09
  10  -1   5   -0.04    0.09
  10  -1   5    0.06    0.07
  11  -1   5    0.18    0.07
  11  -1   5    0.23    0.08
  12  -1   5    1.22    0.12
  13   0  -5    0.16    0.05
  12   0  -5    0.10    0.06
  11   0  -5    0.08    0.11
  10   0  -5    6.08    0.29
   9   0  -5    0.05    0.08
   8   0  -5    4.28    0.25
   8   0  -5    4.93    0.33
   7   0  -5   19.48    0.76
  -6   0   5    0.41    0.09
  -6   0   5    0.48    0.11
   5   0  -5    0.87    0.09
  -5   0   5    1.09    0.09
   4   0  -5    2.12    0.11
  -4   0   5    2.17    0.10
   3   0  -5    0.80    0.05
  -3   0   5    0.89    0.05
  -2   0   5    0.73    0.04
  -1   0   5   39.85    1.44
   0   0  -5    0.23    0.03
   0   0   5    0.24    0.03
  -1   0  -5    0.72    0.05
   1   0   5    0.79    0.05
  -2   0  -5    8.69    0.34
   2   0   5    9.44    0.35
  -3   0  -5    2.12    0.11
   3   0   5    2.28    0.11
  -4   0  -5    0.55    0.07
  -4   0  -5    0.62    0.13
  -5   0  -5   81.55    2.97
  -5   0  -5   81.82    2.97
  -6   0  -5    0.10    0.12
   6   0   5    0.15    0.12
  -7   0  -5    0.40    0.12
   7   0   5    0.12    0.11
  -8   0  -5    2.25    0.22
   8   0   5    2.49    0.20
   8   0   5    2.44    0.20
   9   0   5    0.18    0.09
   9   0   5    0.28    0.09
  10   0   5    0.15    0.07
  10   0   5    0.15    0.09
  11   0   5    0.38    0.11
  11   0   5    0.23    0.07
  13  -1  -5    0.01    0.04
  12  -1  -5    1.16    0.11
  10  -1  -5    5.19    0.27
   9  -1  -5    3.37    0.21
   8  -1  -5    0.81    0.15
   7  -1  -5   24.84    0.95
  -7   1   5   24.92    0.94
  -6   1   5    2.96    0.17
  -6   1   5    3.39    0.17
   5  -1  -5    1.31    0.10
  -5   1   5    1.33    0.12
  -5   1   5    1.30    0.09
   4  -1  -5   38.30    1.38
  -4   1   5   37.74    1.38
   3  -1  -5    0.74    0.05
  -3   1   5    0.80    0.05
  -2   1   5    7.69    0.29
  -1   1   5  866.36   31.12
   0  -1  -5    2.66    0.11
   0   1   5    2.77    0.11
  -1  -1  -5    1.28    0.06
   1   1   5    1.34    0.06
  -2  -1  -5  132.11    4.90
   2   1   5  140.10    4.90
  -3  -1  -5    7.99    0.32
   3   1   5    8.47    0.33
  -4  -1  -5    0.13    0.04
   6   1   5   25.02    0.97
   6   1   5   24.92    0.96
  -7  -1  -5    1.55    0.19
   7   1   5    1.51    0.19
   7   1   5    1.42    0.17
  -8  -1  -5    1.50    0.18
   8   1   5    1.27    0.16
   8   1   5    1.40    0.18
  -9  -1  -5   21.96    0.86
   9   1   5   22.32    0.88
   9   1   5   23.19    0.87
  10   1   5    0.30    0.08
  10   1   5    0.12    0.08
  11   1   5    0.36    0.10
  13  -2  -5    0.12    0.05
  12  -2  -5    0.45    0.09
  11  -2  -5    0.13    0.09
  10  -2  -5    3.75    0.22
   9  -2  -5    0.45    0.09
   8  -2  -5   12.92    0.53
  -8   2   5   13.02    0.53
   7  -2  -5    7.33    0.32
  -7   2   5    6.36    0.36
  -6   2   5    2.67    0.16
  -6   2   5    2.73    0.15
   5  -2  -5    5.44    0.23
  -5   2   5    5.14    0.22
  -5   2   5    5.28    0.23
   4  -2  -5  104.31    3.80
  -4   2   5  106.32    3.79
   3  -2  -5    1.15    0.06
  -3   2   5    1.10    0.06
  -2   2   5    0.85    0.05
  -1   2   5   36.43    1.32
   0  -2  -5    0.00    0.01
   0   2   5    0.03    0.01
  -1  -2  -5    0.17    0.03
   1   2   5    0.20    0.03
  -2  -2  -5   57.10    2.14
   2   2   5   61.01    2.14
  -3  -2  -5    6.37    0.26
   3   2   5    6.68    0.27
  -4  -2  -5    6.78    0.29
   5   2   5    0.28    0.11
   6   2   5    0.47    0.10
   6   2   5    0.66    0.13
  -7  -2  -5    0.09    0.09
   7   2   5    0.04    0.13
   7   2   5    0.12    0.09
  -8  -2  -5    1.47    0.17
   8   2   5    1.52    0.18
  -9  -2  -5   12.56    0.51
   9   2   5   12.76    0.53
   9   2   5   12.68    0.52
 -10  -2  -5    0.86    0.16
  10   2   5    1.08    0.15
  10   2   5    0.88    0.12
  11   2   5    0.21    0.07
  13  -3  -5    1.89    0.11
  12  -3  -5    0.36    0.08
  11  -3  -5   -0.08    0.09
  10  -3  -5    0.46    0.09
   9  -3  -5    0.30    0.08
  -9   3   5    0.42    0.11
   8  -3  -5    6.67    0.31
  -8   3   5    6.66    0.31
  -7   3   5    5.21    0.24
  -6   3   5    4.47    0.21
  -6   3   5    4.55    0.22
   5  -3  -5   15.82    0.62
  -5   3   5   16.66    0.62
  -5   3   5   16.79    0.63
   4  -3  -5   25.07    0.91
  -4   3   5   24.24    0.92
  -4   3   5   24.98    0.91
  -3   3   5    1.64    0.08
  -2   3   5    0.74    0.04
  -2   3   5    0.64    0.04
  -1   3   5    1.15    0.05
  -1   3   5    1.30    0.06
   0  -3  -5    1.76    0.08
   0   3   5    1.78    0.08
  -1  -3  -5    0.65    0.05
   1   3   5    0.65    0.05
  -2  -3  -5   10.40    0.39
   2   3   5   10.32    0.39
  -3  -3  -5   27.15    1.02
   3   3   5   28.08    1.02
  -4  -3  -5    2.43    0.15
   5   3   5    0.16    0.16
   5   3   5    0.01    0.09
   6   3   5    2.92    0.21
   6   3   5    2.90    0.24
  -7  -3  -5    6.25    0.30
   7   3   5    5.81    0.32
   7   3   5    6.38    0.32
  -8  -3  -5   23.15    0.89
   8   3   5   23.17    0.91
   8   3   5   23.05    0.90
  -9  -3  -5    1.58    0.18
   9   3   5    1.34    0.25
   9   3   5    2.01    0.17
 -10  -3  -5    0.09    0.08
  10   3   5    0.00    0.06
  10   3   5    0.01    0.09
  11   3   5    0.25    0.07
  13  -4  -5    0.68    0.08
  12  -4  -5    0.79    0.10
  10  -4  -5    4.14    0.23
 -10   4   5    4.11    0.29
   9  -4  -5    5.46    0.28
  -9   4   5    5.92    0.29
   8  -4  -5   11.95    0.51
  -8   4   5   12.91    0.51
  -7   4   5    1.96    0.14
  -6   4   5    0.78    0.10
  -6   4   5    0.92    0.13
   5  -4  -5    6.33    0.27
  -5   4   5    6.54    0.27
  -5   4   5    6.47    0.27
   4  -4  -5    8.85    0.34
  -4   4   5    8.95    0.36
  -4   4   5    8.80    0.34
  -3   4   5    0.10    0.05
  -3   4   5    0.11    0.02
  -2   4   5    0.66    0.04
  -2   4   5    0.65    0.04
  -1   4   5  114.12    3.89
  -1   4   5  102.65    3.89
   0  -4  -5    0.60    0.04
   0   4   5    0.64    0.04
  -1  -4  -5    1.05    0.06
   1   4   5    1.05    0.06
  -2  -4  -5  109.99    4.03
   2   4   5  113.42    4.03
  -3  -4  -5   61.73    2.21
   3   4   5   59.97    2.22
  -4  -4  -5    2.30    0.16
   4   4   5    2.21    0.22
   5   4   5   58.83    2.26
   5   4   5   64.99    2.27
   5   4   5   59.78    2.25
   6   4   5    0.56    0.12
  -7  -4  -5    9.87    0.42
   7   4   5    9.89    0.43
   7   4   5    9.20    0.43
  -8  -4  -5   11.50    0.47
   8   4   5   11.41    0.49
   8   4   5   11.05    0.48
  -9  -4  -5   20.71    0.79
   9   4   5   21.31    0.80
   9   4   5   20.05    0.81
 -10  -4  -5    0.16    0.07
  10   4   5    0.09    0.09
  10   4   5    0.09    0.07
  11   4   5    2.19    0.14
  13  -5  -5    1.69    0.11
  12  -5  -5    0.15    0.05
  11  -5  -5    3.48    0.20
  10  -5  -5    0.46    0.09
 -10   5   5    0.65    0.12
   9  -5  -5    0.92    0.14
  -9   5   5    0.75    0.14
  -8   5   5    4.78    0.24
  -7   5   5    0.19    0.06
  -6   5   5    0.12    0.06
  -6   5   5    0.15    0.08
   5  -5  -5    0.09    0.05
  -5   5   5    0.20    0.05
  -5   5   5    0.15    0.05
  -4   5   5    0.38    0.08
  -4   5   5    0.48    0.06
  -3   5   5    0.58    0.08
  -3   5   5    0.58    0.05
  -3   5   5    0.44    0.04
  -2   5   5    0.39    0.08
   0   5   5    0.32    0.04
  -1  -5  -5    0.45    0.05
   1   5   5    0.49    0.06
  -2  -5  -5   40.09    1.44
   2   5   5   39.04    1.44
  -3  -5  -5    1.12    0.12
   3   5   5    1.03    0.16
  -4  -5  -5    0.73    0.11
   4   5   5    0.42    0.11
   4   5   5    0.58    0.15
   5   5   5    3.99    0.27
   5   5   5    3.75    0.24
   5   5   5    3.39    0.29
   6   5   5    2.22    0.19
   6   5   5    2.12    0.35
   6   5   5    1.70    0.27
  -7  -5  -5    1.02    0.14
   7   5   5    0.86    0.18
   7   5   5    0.93    0.16
  -8  -5  -5    1.33    0.14
   8   5   5    1.22    0.16
   8   5   5    0.94    0.17
  -9  -5  -5    2.30    0.15
   9   5   5    1.95    0.16
   9   5   5    1.93    0.18
 -10  -5  -5    0.51    0.10
  10   5   5    0.37    0.10
  10   5   5    0.61    0.15
  13  -6  -5   -0.01    0.04
  12  -6  -5    1.02    0.10
  11  -6  -5   21.52    0.83
  10  -6  -5    0.03    0.07
 -10   6   5    0.27    0.10
   9  -6  -5    0.45    0.09
  -9   6   5    0.25    0.09
  -8   6   5   29.56    1.12
  -7   6   5   48.95    1.81
  -6   6   5    0.00    0.05
  -6   6   5   -0.06    0.10
  -4   6   5  139.58    5.01
  -4   6   5  139.41    5.04
  -3   6   5    0.04    0.05
  -2   6   5    2.52    0.14
  -1   6   5    5.10    0.23
  -1  -6  -5    0.52    0.06
   1   6   5    0.54    0.06
  -2  -6  -5   11.83    0.44
   2   6   5   11.11    0.48
  -3  -6  -5    0.98    0.15
   3   6   5    0.58    0.14
   3   6   5    0.73    0.18
   4   6   5    0.37    0.14
   4   6   5    0.13    0.13
   4   6   5    0.35    0.11
   5   6   5   27.17    1.01
   5   6   5   25.27    1.00
   5   6   5   24.78    0.99
   6   6   5    4.26    0.29
   6   6   5    4.48    0.26
   6   6   5    4.02    0.27
  -7  -6  -5    1.35    0.14
   7   6   5    1.32    0.19
   7   6   5    1.27    0.17
  -8  -6  -5    2.36    0.16
   8   6   5    2.14    0.18
  -9  -6  -5   10.96    0.45
   9   6   5   10.97    0.46
   9   6   5   11.73    0.46
 -10  -6  -5    0.02    0.06
  10   6   5    0.03    0.09
  12  -7  -5    0.41    0.08
  11  -7  -5    0.00    0.06
  10  -7  -5    0.36    0.08
 -10   7   5    0.22    0.09
  -9   7   5    0.75    0.13
  -8   7   5    0.51    0.12
  -7   7   5    0.75    0.11
  -6   7   5    7.41    0.32
  -6   7   5    7.33    0.35
  -6   7   5    7.78    0.43
  -5   7   5   14.35    0.55
  -5   7   5   13.76    0.57
  -4   7   5   14.51    0.56
  -3   7   5    1.19    0.11
  -2   7   5    1.91    0.13
  -1   7   5   52.86    1.93
   0   7   5    5.55    0.27
  -1  -7  -5    0.38    0.08
   2   7   5  105.32    3.80
   2   7   5  103.02    3.80
   3   7   5   18.13    0.73
   3   7   5   17.93    0.73
   3   7   5   18.30    0.73
   4   7   5    1.16    0.17
   4   7   5    1.07    0.19
   4   7   5    0.79    0.14
   5   7   5    5.73    0.33
   5   7   5    6.02    0.32
   5   7   5    5.86    0.31
   6   7   5   16.79    0.66
   6   7   5   15.72    0.67
   6   7   5   16.21    0.67
  -7  -7  -5    0.63    0.12
   7   7   5    0.44    0.10
   7   7   5    0.58    0.11
  -8  -7  -5    4.32    0.22
   8   7   5    4.14    0.24
   8   7   5    4.44    0.24
  -9  -7  -5    0.05    0.05
   9   7   5    0.09    0.09
   9   7   5    0.03    0.06
 -10  -7  -5    0.93    0.09
  10   7   5    0.79    0.10
  12  -8  -5    1.38    0.11
  11  -8  -5    0.29    0.07
 -11   8   5    0.50    0.12
  10  -8  -5    4.70    0.24
 -10   8   5    4.44    0.25
  -9   8   5   -0.06    0.07
  -8   8   5    6.71    0.39
  -8   8   5    7.36    0.33
  -7   8   5   14.05    0.61
  -7   8   5   14.28    0.57
  -6   8   5    1.81    0.27
  -6   8   5    1.89    0.14
  -6   8   5    1.62    0.18
  -5   8   5    9.54    0.38
  -5   8   5    8.31    0.44
  -5   8   5    8.68    0.40
  -4   8   5    4.02    0.27
  -4   8   5    3.59    0.19
  -3   8   5    0.32    0.07
  -2   8   5    0.06    0.07
  -1   8   5   53.10    1.94
   1   8   5    0.21    0.11
   1   8   5    0.41    0.11
   2   8   5   34.43    1.32
   2   8   5   33.83    1.31
   2   8   5   36.00    1.32
   3   8   5    1.51    0.21
   3   8   5    1.35    0.18
   3   8   5    1.23    0.18
   4   8   5    0.77    0.14
   4   8   5    0.91    0.16
   5   8   5    9.04    0.42
   5   8   5    9.61    0.43
   5   8   5    9.15    0.43
  -6  -8  -5    0.33    0.08
   6   8   5    0.40    0.12
   6   8   5    0.44    0.11
   6   8   5    0.70    0.16
  -7  -8  -5   -0.01    0.06
   7   8   5    0.02    0.08
   7   8   5   -0.13    0.10
  -8  -8  -5    2.62    0.15
   8   8   5    2.50    0.18
   8   8   5    2.34    0.17
  -9  -8  -5    0.15    0.05
   9   8   5    0.30    0.07
   9   8   5    0.21    0.13
  12  -9  -5    0.10    0.05
  11  -9  -5    2.77    0.16
 -11   9   5    2.80    0.19
 -10   9   5    0.17    0.09
  -9   9   5    4.16    0.23
  -8   9   5    0.26    0.14
  -8   9   5    0.31    0.12
  -7   9   5    0.58    0.12
  -7   9   5    0.79    0.18
  -7   9   5    0.96    0.16
  -6   9   5    1.78    0.18
  -6   9   5    1.67    0.14
  -6   9   5    1.54    0.25
  -5   9   5    6.28    0.36
  -5   9   5    5.92    0.30
  -5   9   5    6.03    0.28
  -4   9   5    6.90    0.34
  -4   9   5    7.49    0.38
  -4   9   5    6.81    0.31
  -3   9   5    0.04    0.06
  -3   9   5   -0.07    0.11
  -3   9   5    0.09    0.14
  -2   9   5    1.39    0.21
  -2   9   5    1.19    0.22
  -2   9   5    1.52    0.13
  -1   9   5  172.76    5.77
  -1   9   5  155.81    5.76
  -1   9   5  148.46    5.73
   0   9   5    3.93    0.28
   0   9   5    4.37    0.25
   0   9   5    3.98    0.26
   1   9   5    0.12    0.10
   1   9   5   -0.09    0.11
   1   9   5    0.16    0.12
   2   9   5   14.30    0.59
   2   9   5   14.25    0.59
   2   9   5   14.16    0.60
   3   9   5    8.07    0.47
   3   9   5    8.44    0.39
   4   9   5    0.40    0.11
   4   9   5    0.32    0.10
   4   9   5    0.54    0.12
   5   9   5   12.80    0.55
   5   9   5   12.60    0.54
   5   9   5   12.83    0.55
  -6  -9  -5    0.09    0.07
   6   9   5    0.12    0.09
   6   9   5    0.17    0.09
  -7  -9  -5    1.03    0.11
   7   9   5    0.71    0.15
   7   9   5    0.94    0.14
  -8  -9  -5    1.32    0.11
   8   9   5    1.31    0.15
   8   9   5    1.29    0.13
  -9  -9  -5    7.91    0.32
   9   9   5    7.97    0.33
  12 -10  -5    0.09    0.05
  11 -10  -5    7.12    0.30
 -11  10   5    7.20    0.32
  10 -10  -5    0.92    0.12
 -10  10   5    0.81    0.14
  -9  10   5    0.04    0.07
  -8  10   5    0.06    0.07
  -8  10   5    0.28    0.14
  -7  10   5    5.65    0.33
  -7  10   5    5.97    0.29
  -7  10   5    6.20    0.30
  -6  10   5    0.81    0.17
  -6  10   5    1.14    0.12
  -5  10   5    1.37    0.23
  -5  10   5    1.49    0.14
  -5  10   5    1.48    0.17
   4 -10  -5    3.41    0.31
  -4  10   5    4.22    0.21
  -4  10   5    4.26    0.29
  -4  10   5    4.33    0.25
  -3  10   5    1.45    0.22
  -3  10   5    1.00    0.13
  -3  10   5    1.07    0.17
  -2  10   5    0.45    0.12
  -2  10   5    0.44    0.09
  -2  10   5    0.32    0.13
  -1  10   5   35.51    1.35
  -1  10   5   36.17    1.35
   0  10   5    2.06    0.21
   0  10   5    2.41    0.21
   0  10   5    1.76    0.20
  -1 -10  -5    0.16    0.11
   1  10   5   -0.10    0.09
   1  10   5   -0.13    0.11
   1  10   5    0.16    0.10
  -2 -10  -5   28.51    1.18
   2  10   5   30.53    1.20
   2  10   5   30.92    1.21
   2  10   5   36.22    1.26
   3  10   5    7.63    0.37
   3  10   5    7.38    0.36
   3  10   5    7.61    0.37
  -4 -10  -5    0.57    0.14
   4  10   5    1.23    0.18
   4  10   5    0.71    0.16
   4  10   5    0.92    0.17
  -5 -10  -5    2.35    0.18
   5  10   5    2.56    0.21
   5  10   5    2.52    0.20
   5  10   5    2.88    0.21
  -6 -10  -5   13.89    0.55
   6  10   5   13.41    0.57
   6  10   5   13.14    0.55
  -7 -10  -5    2.07    0.13
   7  10   5    1.90    0.16
   7  10   5    1.95    0.16
  -8 -10  -5    0.05    0.04
   8  10   5    0.11    0.10
   8  10   5    0.02    0.06
  11 -11  -5    5.36    0.23
 -11  11   5    5.26    0.26
  10 -11  -5    0.08    0.06
 -10  11   5    0.12    0.08
  -9  11   5    0.04    0.07
  -8  11   5   -0.01    0.07
  -8  11   5   -0.12    0.12
  -7  11   5   14.40    0.60
  -7  11   5   14.87    0.59
  -7  11   5   13.62    0.58
  -6  11   5    0.37    0.13
  -6  11   5    0.11    0.07
  -6  11   5    0.11    0.09
  -5  11   5    0.30    0.13
  -5  11   5    0.22    0.09
  -5  11   5    0.25    0.07
   4 -11  -5    4.22    0.31
  -4  11   5    4.68    0.28
  -4  11   5    4.83    0.29
  -4  11   5    4.76    0.24
  -3  11   5    0.09    0.10
  -3  11   5    0.14    0.12
  -3  11   5    0.10    0.08
  -2  11   5    1.71    0.16
  -2  11   5    1.56    0.19
  -2  11   5    1.52    0.19
  -1  11   5    4.54    0.27
  -1  11   5    4.54    0.27
   0  11   5    2.96    0.23
   0  11   5    2.89    0.22
  -1 -11  -5   -0.05    0.12
   1  11   5   -0.09    0.10
   1  11   5   -0.11    0.11
   1  11   5   -0.10    0.09
  -2 -11  -5    5.26    0.28
   2  11   5    5.05    0.30
   2  11   5    5.04    0.29
   2  11   5    5.52    0.29
  -3 -11  -5    7.37    0.34
   3  11   5    7.27    0.35
   3  11   5    7.26    0.36
   3  11   5    6.96    0.36
  -4 -11  -5    1.82    0.16
   4  11   5    2.14    0.20
   4  11   5    1.99    0.19
   4  11   5    1.73    0.19
  -5 -11  -5    2.77    0.18
   5  11   5    2.88    0.21
   5  11   5    2.96    0.21
  -6 -11  -5    1.94    0.14
   6  11   5    2.05    0.16
   6  11   5    2.10    0.17
  -7 -11  -5    0.03    0.05
   7  11   5    0.15    0.09
   7  11   5    0.14    0.07
   8  11   5    0.91    0.10
  11 -12  -5    2.44    0.14
  10 -12  -5    7.75    0.33
 -10  12   5    7.93    0.34
  -9  12   5    1.52    0.15
  -8  12   5   -0.09    0.07
  -7  12   5    1.51    0.15
  -7  12   5    1.37    0.16
  -7  12   5    1.71    0.21
  -6  12   5    2.64    0.20
  -6  12   5    2.38    0.23
  -6  12   5    2.62    0.18
  -5  12   5    3.49    0.25
  -5  12   5    3.51    0.21
  -5  12   5    3.64    0.23
   4 -12  -5    2.90    0.28
  -4  12   5    3.89    0.21
  -4  12   5    3.37    0.25
  -4  12   5    3.38    0.24
  -3  12   5    0.34    0.11
  -3  12   5    0.56    0.11
  -3  12   5    0.38    0.10
  -2  12   5    1.93    0.21
  -2  12   5    1.43    0.19
  -2  12   5    1.25    0.18
  -1  12   5   67.22    2.51
  -1  12   5   69.23    2.52
   0  12   5    1.39    0.18
   0  12   5    1.79    0.19
   1  12   5    1.29    0.18
   1  12   5    1.54    0.19
  -2 -12  -5  121.77    4.49
   2  12   5  124.84    4.51
   2  12   5  124.81    4.52
   2  12   5  123.59    4.50
  -3 -12  -5    0.63    0.15
   3  12   5    0.66    0.15
   3  12   5    0.39    0.11
  -4 -12  -5    0.09    0.08
   4  12   5    0.28    0.10
   4  12   5    0.30    0.10
  -5 -12  -5   13.68    0.54
   5  12   5   13.20    0.55
   5  12   5   14.08    0.57
  -6 -12  -5   13.14    0.51
   6  12   5   12.24    0.52
   6  12   5   13.12    0.51
  -7 -12  -5    0.90    0.14
  -7 -12  -5    1.04    0.09
   7  12   5    1.03    0.10
  11 -13  -5    1.44    0.10
  10 -13  -5    0.40    0.08
 -10  13   5    0.26    0.08
  -9  13   5    0.16    0.09
  -8  13   5    0.15    0.12
  -8  13   5    0.06    0.08
  -7  13   5   14.18    0.57
  -7  13   5   12.91    0.56
  -7  13   5   13.75    0.56
  -6  13   5    5.63    0.31
  -6  13   5    6.22    0.30
  -6  13   5    5.79    0.29
  -5  13   5    1.80    0.20
  -5  13   5    2.51    0.18
  -5  13   5    2.81    0.19
   4 -13  -5   20.06    0.80
  -4  13   5   20.56    0.79
  -4  13   5   18.41    0.78
  -4  13   5   20.14    0.79
   3 -13  -5    1.98    0.22
  -3  13   5    2.26    0.21
  -3  13   5    2.42    0.20
  -3  13   5    2.62    0.21
  -2  13   5    0.92    0.16
  -2  13   5    1.16    0.18
  -1  13   5   95.39    3.49
  -1  13   5   94.96    3.48
   0  13   5    1.74    0.18
   0  13   5    1.90    0.19
   1  13   5    0.91    0.16
   1  13   5    1.25    0.17
  -2 -13  -5    6.19    0.33
   2  13   5    6.72    0.33
   2  13   5    6.54    0.33
  -3 -13  -5   10.93    0.50
   3  13   5   11.35    0.49
   3  13   5   11.23    0.48
  -4 -13  -5    0.15    0.08
   4  13   5    0.14    0.09
   4  13   5    0.10    0.08
  -5 -13  -5    0.35    0.07
   5  13   5    0.23    0.09
   5  13   5    0.42    0.08
  -6 -13  -5    0.27    0.06
   6  13   5    0.17    0.06
   6  13   5    0.15    0.09
  10 -14  -5    9.43    0.37
  -9  14   5    0.06    0.08
  -8  14   5    1.90    0.20
  -8  14   5    1.98    0.16
  -7  14   5    0.29    0.11
  -7  14   5    0.63    0.14
  -7  14   5    0.38    0.09
  -6  14   5    0.15    0.10
  -6  14   5    0.23    0.09
  -6  14   5    0.38    0.10
  -5  14   5    2.64    0.21
  -5  14   5    2.62    0.19
  -5  14   5    2.92    0.20
  -4  14   5    4.23    0.26
  -4  14   5    4.39    0.25
  -4  14   5    4.03    0.26
   3 -14  -5    0.21    0.11
  -3  14   5   -0.02    0.09
  -3  14   5    0.12    0.10
  -2  14   5    1.20    0.16
  -2  14   5    1.14    0.17
  -1  14   5    1.11    0.17
  -1  14   5    0.91    0.16
   0  14   5    0.91    0.16
   0  14   5    0.42    0.10
   1  14   5    0.13    0.09
   1  14   5   -0.08    0.08
   2  14   5   -0.03    0.08
  -3 -14  -5    1.10    0.17
   3  14   5    1.41    0.14
   3  14   5    1.30    0.15
  -4 -14  -5    1.11    0.14
   4  14   5    1.23    0.13
   4  14   5    1.43    0.14
   5  14   5    0.38    0.09
  -6 -14  -5   11.75    0.46
  -6 -14  -5   12.04    0.46
   6  14   5   12.13    0.47
  -9  15   5    0.11    0.08
  -8  15   5    0.59    0.10
  -7  15   5    1.60    0.17
  -7  15   5    1.51    0.16
  -6  15   5   -0.16    0.10
  -6  15   5    0.00    0.09
  -6  15   5    0.11    0.07
  -5  15   5   -0.05    0.10
  -5  15   5    0.04    0.11
  -5  15   5    0.10    0.09
  -4  15   5   14.90    0.61
  -4  15   5   15.00    0.60
   3 -15  -5   -0.08    0.13
  -3  15   5    0.05    0.09
  -3  15   5   -0.05    0.09
   2 -15  -5   -0.06    0.09
  -2  15   5    0.23    0.09
  -2  15   5    0.01    0.08
  -1  15   5    0.17    0.09
  -1  15   5    0.23    0.09
   0  15   5    0.99    0.15
   1  15   5    0.75    0.14
   1  15   5    0.87    0.14
   2  15   5   10.34    0.45
   2  15   5   10.73    0.44
   3  15   5    0.58    0.13
   3  15   5    0.46    0.11
   4  15   5    0.50    0.13
   4  15   5    0.27    0.07
   5  15   5    4.22    0.20
   9 -16  -5    0.32    0.08
  -7  16   5    0.30    0.11
  -6  16   5    0.47    0.11
  -6  16   5    0.60    0.13
  -6  16   5    0.58    0.14
  -5  16   5    0.10    0.07
  -5  16   5    0.11    0.08
  -4  16   5    5.45    0.27
  -4  16   5    5.68    0.28
   3 -16  -5    0.25    0.11
  -3  16   5    0.30    0.09
  -3  16   5    0.41    0.08
   2 -16  -5    0.53    0.10
  -2  16   5    0.70    0.13
  -2  16   5    0.56    0.12
   1 -16  -5    4.26    0.23
  -1  16   5    4.36    0.24
  -1  16   5    4.02    0.23
   0  16   5    0.12    0.08
   0  16   5    0.18    0.08
   1  16   5    0.19    0.07
   1  16   5    0.11    0.08
   2  16   5    3.07    0.18
   2  16   5    3.28    0.18
   3  16   5   -0.02    0.08
   3  16   5   -0.01    0.06
  -4 -16  -5    0.06    0.05
   4  16   5    0.01    0.05
  -6  17   5    0.94    0.14
  -5  17   5    0.40    0.10
  -5  17   5    0.39    0.08
  -4  17   5    3.04    0.18
  -4  17   5    3.33    0.19
  -3  17   5    0.01    0.07
  -3  17   5    0.06    0.07
   2 -17  -5    0.40    0.09
  -2  17   5    0.48    0.12
  -2  17   5    0.44    0.11
   1 -17  -5    2.44    0.17
  -1  17   5    2.58    0.16
  -1  17   5    2.34    0.17
   0 -17  -5    0.82    0.11
   0  17   5    0.96    0.12
   0  17   5    0.55    0.11
  -1 -17  -5    1.99    0.13
   1  17   5    1.92    0.14
  -2 -17  -5    7.70    0.35
   2  17   5    7.65    0.34
  -5  18   5   -0.05    0.06
  -5  18   5    0.06    0.08
  -4  18   5    0.07    0.10
  -4  18   5    0.04    0.07
  -3  18   5    0.59    0.10
  -2  18   5    0.45    0.11
  -2  18   5    0.70    0.11
   1 -18  -5    2.56    0.16
  -1  18   5    2.72    0.15
  -1  18   5    2.54    0.16
   0 -18  -5    2.58    0.15
   0  18   5    2.11    0.16
   0  18   5    2.40    0.14
  -1 -18  -5    0.18    0.06
   1  18   5    0.06    0.06
   1  19  -6    0.50    0.13
   1  19  -6    0.74    0.10
   0  19  -6    0.51    0.11
   0  19  -6    0.44    0.10
  -1  19  -6    0.12    0.07
  -1  19  -6    0.13    0.06
  -2  19  -6    0.08    0.07
  -2  19  -6    0.03    0.06
  -3  19  -6    0.45    0.10
  -3  19  -6    0.41    0.09
  -4  19  -6    0.65    0.09
   3  18  -6    1.26    0.11
   2  18  -6    0.26    0.09
   2  18  -6    0.22    0.06
   1  18  -6   -0.01    0.08
   1  18  -6    0.01    0.06
   0  18  -6    0.72    0.11
   0  18  -6    0.74    0.11
  -1  18  -6   -0.01    0.07
  -1  18  -6   -0.10    0.06
  -2  18  -6    0.30    0.07
  -2  18  -6    0.37    0.08
  -3  18  -6    9.27    0.38
  -3  18  -6    9.26    0.39
  -4  18  -6    2.21    0.14
  -5  18  -6    0.05    0.06
  -6  18  -6    2.42    0.14
   5  17  -6    0.42    0.08
   5  17  -6    0.33    0.06
   4  17  -6   10.11    0.39
   4  17  -6    9.19    0.39
   3  17  -6    3.62    0.23
   3  17  -6    3.32    0.19
   3  17  -6    3.32    0.18
   2  17  -6    1.09    0.15
   2  17  -6    1.43    0.15
   2  17  -6    1.38    0.13
   1  17  -6    0.16    0.07
   1  17  -6    0.02    0.11
   1  17  -6   -0.03    0.08
   0  17  -6    5.36    0.26
   0  17  -6    5.28    0.27
  -1  17  -6   -0.03    0.07
  -1  17  -6   -0.04    0.07
  -2  17  -6    0.98    0.13
  -2  17  -6    1.10    0.14
  -3  17  -6    0.00    0.07
  -3  17  -6    0.11    0.07
  -4  17  -6    1.47    0.14
  -4  17  -6    1.27    0.13
  -5  17  -6    0.97    0.12
  -5  17  -6    0.74    0.10
  -6  17  -6    0.04    0.06
  -7  17  -6    0.06    0.06
   6  16  -6    1.99    0.12
   6  16  -6    2.07    0.12
   5  16  -6    0.13    0.05
   5  16  -6    0.11    0.06
   4  16  -6   -0.06    0.06
   4  16  -6    0.05    0.11
   4  16  -6   -0.02    0.06
   3  16  -6   13.59    0.57
   3  16  -6   14.12    0.57
   3  16  -6   14.31    0.56
   2  16  -6    0.16    0.07
   2  16  -6    0.12    0.09
   2  16  -6    0.08    0.09
   1  16  -6    0.38    0.11
   1  16  -6    0.41    0.11
   1  16  -6    0.45    0.10
   0  16  -6   22.42    0.87
  -1  16  -6    0.04    0.08
  -1  16  -6   -0.09    0.08
  -2  16  -6    0.86    0.18
  -2  16  -6    0.84    0.14
  -3  16  -6    2.92    0.19
  -4  16  -6    0.08    0.07
  -4  16  -6    0.09    0.07
  -4  16  -6    0.23    0.14
  -5  16  -6    0.03    0.07
  -5  16  -6    0.15    0.11
  -5  16  -6    0.10    0.07
  -6  16  -6    3.17    0.21
  -6  16  -6    3.17    0.18
  -7  16  -6    1.28    0.16
  -7  16  -6    1.22    0.11
  -8  16  -6   -0.01    0.05
   8 -16   6    0.08    0.07
   7  15  -6    0.04    0.05
   7  15  -6   -0.05    0.05
  -7 -15   6   -0.03    0.06
   6  15  -6    2.00    0.13
   6  15  -6    1.98    0.13
   5  15  -6    1.71    0.15
   5  15  -6    1.78    0.14
   4  15  -6    0.61    0.13
   4  15  -6    0.50    0.11
   4  15  -6    0.32    0.08
   3  15  -6    0.90    0.17
   2  15  -6    0.66    0.17
   2  15  -6    0.06    0.07
   2  15  -6    0.09    0.10
   1  15  -6    1.52    0.21
   1  15  -6    1.29    0.18
   1  15  -6    1.67    0.16
   0  15  -6    5.80    0.35
   0  15  -6    6.46    0.32
   0  15  -6    6.36    0.31
  -1  15  -6    0.02    0.09
  -1  15  -6    0.02    0.08
  -2  15  -6    0.02    0.09
  -2  15  -6    0.49    0.10
  -3  15  -6    5.86    0.29
  -3  15  -6    5.25    0.31
  -3  15  -6    6.14    0.30
  -4  15  -6    0.13    0.10
  -4  15  -6    0.18    0.08
  -4  15  -6    0.33    0.09
  -5  15  -6    0.19    0.09
  -5  15  -6    0.21    0.09
  -6  15  -6    4.04    0.22
  -6  15  -6    4.37    0.24
  -7  15  -6    3.19    0.19
  -7  15  -6    2.81    0.18
  -8  15  -6    0.60    0.09
  -8  15  -6    0.65    0.13
   8 -15   6    0.65    0.15
   7  14  -6    0.41    0.09
   7  14  -6    0.43    0.09
   6  14  -6    0.56    0.12
   6  14  -6    0.45    0.11
   5  14  -6   -0.01    0.07
   5  14  -6   -0.11    0.07
   5  14  -6   -0.04    0.12
   4  14  -6    0.62    0.15
   4  14  -6    0.76    0.15
   4  14  -6    0.94    0.16
   4  14  -6    0.63    0.13
   3  14  -6    5.70    0.32
   3  14  -6    6.00    0.32
   3  14  -6    6.26    0.31
   3  14  -6    6.42    0.32
   2  14  -6    0.93    0.18
   2  14  -6    0.97    0.19
   2  14  -6    0.90    0.16
   1  14  -6    3.03    0.23
   1  14  -6    2.92    0.20
   1  14  -6    2.68    0.25
   0  14  -6    2.47    0.28
   0  14  -6    2.68    0.20
   0  14  -6    2.51    0.21
  -1  14  -6    0.80    0.16
  -1  14  -6    0.63    0.16
  -2  14  -6    0.57    0.14
  -2  14  -6    0.74    0.16
  -2  14  -6    0.60    0.15
  -3  14  -6    1.78    0.18
  -3  14  -6    1.97    0.18
  -3  14  -6    1.94    0.17
  -4  14  -6    1.52    0.17
  -4  14  -6    1.64    0.17
  -4  14  -6    1.58    0.17
  -5  14  -6    0.16    0.09
  -5  14  -6    0.16    0.08
  -5  14  -6    0.22    0.09
  -6  14  -6   26.05    0.99
  -6  14  -6   25.23    0.98
  -7  14  -6    0.51    0.12
  -7  14  -6    0.50    0.12
  -8  14  -6    0.07    0.06
  -8  14  -6   -0.01    0.07
   9 -14   6    1.77    0.13
   8  13  -6    1.43    0.11
   8  13  -6    1.40    0.12
   7  13  -6    1.68    0.13
   7  13  -6    1.71    0.14
   6  13  -6    2.91    0.19
   6  13  -6    2.71    0.17
   6  13  -6    2.36    0.17
   5  13  -6    1.14    0.14
   5  13  -6    0.73    0.14
   5  13  -6    1.11    0.16
   5  13  -6    0.86    0.16
   4  13  -6    0.43    0.10
   4  13  -6    0.69    0.14
   4  13  -6    0.65    0.16
   4  13  -6    0.63    0.16
   3  13  -6   17.08    0.68
   3  13  -6   16.37    0.67
   3  13  -6   16.67    0.69
   3  13  -6   16.13    0.66
   2  13  -6    2.10    0.19
   2  13  -6    2.55    0.22
   2  13  -6    1.93    0.22
   1  13  -6    0.81    0.19
   1  13  -6    0.87    0.22
   1  13  -6    0.97    0.16
   0  13  -6    3.73    0.25
   0  13  -6    3.28    0.31
   0  13  -6    3.94    0.23
  -1  13  -6    0.51    0.11
  -1  13  -6    0.45    0.12
  -2  13  -6    0.35    0.10
  -2  13  -6    0.39    0.10
  -2  13  -6    0.44    0.11
  -3  13  -6    4.45    0.26
  -3  13  -6    4.75    0.26
  -3  13  -6    4.79    0.26
  -4  13  -6    3.51    0.23
  -4  13  -6    4.02    0.23
  -4  13  -6    3.73    0.23
  -5  13  -6    0.68    0.15
  -5  13  -6    0.89    0.17
  -5  13  -6    0.93    0.14
  -6  13  -6   17.67    0.75
  -6  13  -6   19.83    0.75
  -6  13  -6   19.16    0.74
  -7  13  -6    0.18    0.08
  -8  13  -6    0.36    0.08
  -8  13  -6    0.28    0.08
  -9  13  -6    8.94    0.38
   9 -13   6    8.57    0.36
   9  12  -6    0.03    0.05
   9  12  -6    0.03    0.06
   8  12  -6    0.10    0.06
   8  12  -6    0.06    0.07
   7  12  -6    2.77    0.17
   7  12  -6    2.69    0.17
   7  12  -6    2.48    0.18
   6  12  -6    5.32    0.28
   6  12  -6    5.01    0.25
   6  12  -6    4.74    0.26
   5  12  -6    0.09    0.08
   5  12  -6   -0.07    0.07
   5  12  -6   -0.12    0.13
   5  12  -6    0.22    0.10
   4  12  -6   11.22    0.51
   4  12  -6   11.60    0.49
   4  12  -6   10.91    0.51
   4  12  -6   12.11    0.49
   3  12  -6   21.38    0.87
   3  12  -6   22.78    0.87
   3  12  -6   21.60    0.86
   3  12  -6   21.97    0.86
   2  12  -6    1.59    0.17
   2  12  -6    1.43    0.21
   2  12  -6    1.44    0.21
   1  12  -6    0.52    0.13
   1  12  -6    0.60    0.15
   1  12  -6    0.75    0.15
   0  12  -6   -0.04    0.16
   0  12  -6    0.04    0.11
   0  12  -6    0.16    0.09
  -1  12  -6    0.62    0.11
  -1  12  -6    0.76    0.18
  -1  12  -6    0.91    0.17
  -2  12  -6    0.79    0.20
  -2  12  -6    0.59    0.15
  -3  12  -6    6.35    0.32
  -3  12  -6    6.58    0.33
  -3  12  -6    6.80    0.31
  -4  12  -6    1.99    0.18
  -4  12  -6    1.98    0.19
  -4  12  -6    2.40    0.20
  -5  12  -6    0.70    0.15
  -5  12  -6    0.58    0.11
  -6  12  -6    2.41    0.18
  -6  12  -6    2.51    0.20
  -6  12  -6    2.42    0.19
  -7  12  -6    8.06    0.37
  -7  12  -6    7.84    0.37
  -8  12  -6    0.53    0.12
  -8  12  -6    0.84    0.13
  -9  12  -6    6.89    0.31
   9 -12   6    6.90    0.30
  10 -12   6    1.41    0.14
   9  11  -6    0.74    0.09
   9  11  -6    0.74    0.12
   8  11  -6    0.10    0.06
   8  11  -6    0.16    0.08
   7  11  -6    1.10    0.14
   7  11  -6    1.02    0.15
   7  11  -6    1.06    0.13
   6  11  -6    1.98    0.16
   6  11  -6    1.70    0.17
   6  11  -6    1.99    0.19
   5  11  -6    0.69    0.16
   5  11  -6    0.64    0.16
   5  11  -6    0.81    0.14
   5  11  -6    0.83    0.15
   4  11  -6    9.59    0.44
   4  11  -6    9.20    0.46
   4  11  -6   10.32    0.43
   4  11  -6    9.60    0.43
   3  11  -6    8.18    0.40
   3  11  -6    8.03    0.39
   3  11  -6    7.89    0.37
   3  11  -6    7.53    0.41
   2  11  -6    1.16    0.20
   2  11  -6    1.26    0.22
   2  11  -6    0.89    0.16
   2  11  -6    0.90    0.15
   1  11  -6    1.72    0.24
   1  11  -6    1.33    0.21
   1  11  -6    1.20    0.18
   0  11  -6    0.65    0.18
   0  11  -6    0.77    0.13
   0  11  -6    0.63    0.12
  -1  11  -6    1.77    0.17
  -1  11  -6    1.73    0.19
  -1  11  -6    1.52    0.20
  -2  11  -6    5.16    0.28
  -2  11  -6    5.43    0.29
  -2  11  -6    4.84    0.25
  -3  11  -6   24.50    0.94
  -3  11  -6   24.20    0.93
  -3  11  -6   23.23    0.92
  -4  11  -6    0.48    0.12
  -4  11  -6    0.35    0.10
  -5  11  -6    3.08    0.20
  -5  11  -6    3.14    0.22
  -5  11  -6    2.91    0.21
  -6  11  -6    1.17    0.15
  -6  11  -6    1.29    0.18
  -6  11  -6    1.19    0.16
  -7  11  -6    1.87    0.18
  -7  11  -6    1.85    0.16
  -8  11  -6    0.70    0.14
  -8  11  -6    0.81    0.14
  -9  11  -6    0.17    0.08
   9 -11   6    0.00    0.07
 -10  11  -6    0.66    0.15
  10 -11   6    1.11    0.12
   9  10  -6    4.81    0.24
   9  10  -6    4.93    0.23
   8  10  -6    1.75    0.15
   8  10  -6    1.50    0.17
   8  10  -6    1.49    0.13
   7  10  -6    1.86    0.16
   7  10  -6    1.85    0.17
   7  10  -6    1.82    0.19
   6  10  -6   31.29    1.18
   6  10  -6   30.42    1.17
   6  10  -6   30.20    1.16
   5  10  -6    1.84    0.19
   5  10  -6    1.67    0.17
   5  10  -6    1.84    0.17
   5  10  -6    1.30    0.27
   4  10  -6    2.04    0.26
   3  10  -6    7.32    0.35
   3  10  -6    7.84    0.37
   3  10  -6    6.97    0.39
   3  10  -6    7.48    0.35
   2  10  -6    1.51    0.24
   2  10  -6    1.70    0.22
   2  10  -6    1.73    0.18
   2  10  -6    1.62    0.22
   1  10  -6    0.15    0.10
   1  10  -6    0.17    0.13
   1  10  -6    0.05    0.14
   0  10  -6    0.13    0.13
   0  10  -6    0.06    0.10
   0  10  -6    0.11    0.12
  -1  10  -6    0.97    0.19
  -1  10  -6    1.64    0.21
  -1  10  -6    1.24    0.15
  -2  10  -6    0.84    0.13
  -2  10  -6    0.95    0.12
  -2  10  -6    0.90    0.14
  -3  10  -6  150.31    5.68
  -3  10  -6  161.29    5.69
  -3  10  -6  159.32    5.68
  -4  10  -6    0.55    0.11
  -4  10  -6    0.85    0.18
  -4  10  -6    0.44    0.11
  -5  10  -6    4.00    0.25
  -5  10  -6    4.34    0.23
  -6  10  -6    6.43    0.30
  -6  10  -6    5.74    0.31
  -6  10  -6    6.34    0.32
  -7  10  -6    1.77    0.16
  -7  10  -6    1.93    0.18
  -8  10  -6    3.56    0.22
  -8  10  -6    3.37    0.22
  -9  10  -6    1.30    0.15
   9 -10   6    0.82    0.13
 -10  10  -6    0.16    0.10
  10 -10   6    0.21    0.07
  11 -10   6    0.05    0.05
  10   9  -6    0.52    0.11
  10   9  -6    0.72    0.09
   9   9  -6    0.17    0.09
   9   9  -6    0.16    0.06
   8   9  -6    0.37    0.09
   8   9  -6    0.63    0.12
   8   9  -6    0.46    0.10
   7   9  -6   19.46    0.79
   7   9  -6   20.29    0.79
   7   9  -6   19.65    0.77
   6   9  -6    0.32    0.09
   6   9  -6    0.26    0.10
   6   9  -6    0.40    0.10
   5   9  -6    1.79    0.18
   5   9  -6    1.67    0.17
   5   9  -6    1.92    0.20
   4   9  -6    1.15    0.19
   4   9  -6    1.52    0.18
   4   9  -6    1.55    0.19
   4   9  -6    1.51    0.17
   3   9  -6   68.70    2.42
   3   9  -6   66.22    2.40
   3   9  -6   64.73    2.40
   3   9  -6   61.99    2.41
   2   9  -6    0.85    0.21
   2   9  -6    0.91    0.13
  -2  -9   6    0.76    0.16
  -1  -9   6    1.03    0.13
   0   9  -6   12.69    0.53
   0  -9   6   13.97    0.52
  -1   9  -6    0.12    0.07
   1  -9   6    0.10    0.06
  -2   9  -6    0.60    0.11
  -2   9  -6    0.52    0.12
   2  -9   6    0.64    0.13
  -3   9  -6   13.22    0.52
  -3   9  -6   11.98    0.49
  -3   9  -6   11.78    0.52
  -4   9  -6    2.37    0.20
  -4   9  -6    2.58    0.16
  -4   9  -6    2.12    0.22
  -5   9  -6    1.08    0.12
  -5   9  -6    0.99    0.14
  -5   9  -6    0.94    0.16
  -6   9  -6   26.11    1.01
  -6   9  -6   26.16    1.01
  -7   9  -6    1.32    0.17
  -8   9  -6    0.35    0.10
  -8   9  -6    0.31    0.09
   8  -9   6    0.30    0.09
  -9   9  -6   10.78    0.47
   9  -9   6   11.10    0.45
 -10   9  -6    2.29    0.19
  10  -9   6    2.27    0.15
  11  -9   6    0.25    0.07
  11   8  -6    0.18    0.05
  10   8  -6    5.39    0.28
  10   8  -6    5.50    0.25
   9   8  -6    1.51    0.17
   9   8  -6    1.65    0.15
   9   8  -6    1.71    0.14
   8   8  -6    3.44    0.20
   8   8  -6    3.41    0.23
   8   8  -6    3.11    0.21
   7   8  -6    2.62    0.22
   7   8  -6    2.54    0.19
   7   8  -6    2.72    0.19
   6   8  -6   31.61    1.23
   6   8  -6   32.73    1.24
   6   8  -6   33.43    1.25
   5   8  -6    1.63    0.19
   5   8  -6    1.78    0.20
   5   8  -6    1.77    0.17
   4   8  -6   17.51    0.72
   4   8  -6   18.13    0.70
   4   8  -6   18.13    0.71
   3   8  -6    4.12    0.26
   3   8  -6    3.52    0.25
   3   8  -6    3.95    0.24
  -3  -8   6    3.45    0.21
  -2  -8   6    1.94    0.14
  -2  -8   6    1.93    0.18
  -1  -8   6    0.23    0.07
  -1  -8   6    0.22    0.05
   0   8  -6  181.68    6.61
   0  -8   6  185.66    6.61
   0  -8   6  183.24    6.60
  -1   8  -6    2.67    0.16
   1  -8   6    2.59    0.15
   1  -8   6    2.71    0.14
  -2   8  -6    0.01    0.05
   2  -8   6   -0.02    0.06
  -3   8  -6    5.93    0.27
  -3   8  -6    6.11    0.32
  -4   8  -6   11.30    0.49
  -4   8  -6   10.63    0.49
  -4   8  -6   12.22    0.47
  -5   8  -6    3.02    0.17
  -5   8  -6    2.79    0.21
  -5   8  -6    2.20    0.25
  -6   8  -6    0.87    0.16
  -6   8  -6    0.93    0.13
  -7   8  -6    4.61    0.24
  -7   8  -6    4.05    0.25
  -8   8  -6    2.61    0.19
  -8   8  -6    1.90    0.17
   8  -8   6    2.15    0.19
  -9   8  -6    5.21    0.28
   9  -8   6    5.58    0.33
 -10   8  -6    1.97    0.21
  10  -8   6    1.87    0.15
  11  -8   6    0.29    0.06
  11   7  -6    2.44    0.14
  10   7  -6    2.92    0.23
  10   7  -6    3.23    0.18
   9   7  -6   10.22    0.47
   9   7  -6   10.36    0.44
   9   7  -6   10.42    0.43
   8   7  -6    4.20    0.26
   8   7  -6    4.14    0.24
   8   7  -6    3.97    0.23
   7   7  -6   54.88    2.02
   7   7  -6   53.77    2.03
   7   7  -6   54.92    2.02
   6   7  -6   16.08    0.64
   6   7  -6   15.44    0.62
   6   7  -6   15.11    0.63
   5   7  -6    0.89    0.18
   5   7  -6    0.97    0.15
   5   7  -6    1.18    0.17
   4   7  -6    3.46    0.25
   4   7  -6    3.93    0.25
   4   7  -6    4.05    0.23
  -4  -7   6    3.86    0.23
  -3  -7   6   84.88    3.08
  -2  -7   6    1.14    0.09
  -2  -7   6    1.01    0.12
  -1  -7   6    0.07    0.03
  -1  -7   6    0.15    0.05
   0   7  -6   10.29    0.43
   0  -7   6   11.24    0.42
   0  -7   6   10.92    0.41
  -1   7  -6    0.11    0.07
   1  -7   6   -0.01    0.04
  -2   7  -6    0.15    0.06
   2  -7   6    0.08    0.05
  -3   7  -6    0.02    0.05
  -3   7  -6    0.17    0.06
   3  -7   6    0.22    0.08
  -4   7  -6   11.45    0.49
  -4   7  -6   11.90    0.47
  -4   7  -6   11.39    0.48
  -5   7  -6    5.79    0.34
  -5   7  -6    6.25    0.31
  -5   7  -6    6.29    0.28
  -6   7  -6    8.25    0.37
  -6   7  -6    8.83    0.39
  -7   7  -6    0.44    0.11
  -7   7  -6    0.20    0.09
  -8   7  -6   -0.06    0.08
  -8   7  -6    0.05    0.09
   8  -7   6    0.12    0.09
  -9   7  -6    2.26    0.20
   9  -7   6    2.71    0.19
  10  -7   6    0.19    0.08
  11  -7   6    0.06    0.05
  11   6  -6    0.44    0.10
  10   6  -6    0.78    0.12
  10   6  -6    0.62    0.14
   9   6  -6    0.25    0.08
   9   6  -6    0.22    0.08
   9   6  -6    0.27    0.12
   8   6  -6    1.40    0.16
   8   6  -6    1.27    0.20
   8   6  -6    1.28    0.15
   7   6  -6    5.13    0.30
   7   6  -6    5.23    0.27
   7   6  -6    5.22    0.27
   6   6  -6   39.80    1.48
   6   6  -6   39.27    1.46
   6   6  -6   38.55    1.47
   5   6  -6    2.19    0.18
   5   6  -6    2.04    0.21
   5   6  -6    2.17    0.20
  -4  -6   6    1.27    0.13
  -3  -6   6    1.63    0.11
  -2  -6   6    1.84    0.11
  -1  -6   6    3.51    0.16
  -1  -6   6    3.49    0.15
   0  -6   6   42.45    1.53
   0  -6   6   41.74    1.53
  -1   6  -6    0.82    0.10
   1  -6   6    0.86    0.08
  -2   6  -6    0.16    0.06
  -2   6  -6    0.29    0.07
   2  -6   6    0.12    0.04
  -3   6  -6   11.24    0.43
  -3   6  -6   10.52    0.43
   3  -6   6   10.60    0.43
  -4   6  -6    0.39    0.08
  -4   6  -6    0.64    0.09
  -5   6  -6    0.45    0.10
  -5   6  -6    0.51    0.12
  -6   6  -6    0.20    0.08
  -6   6  -6    0.11    0.10
  -7   6  -6    5.38    0.26
  -7   6  -6    4.77    0.28
   7  -6   6    4.72    0.27
  -8   6  -6    0.89    0.14
   8  -6   6    1.14    0.17
  -9   6  -6    0.30    0.12
   9  -6   6    0.35    0.10
  10  -6   6    0.59    0.13
  11  -6   6    0.12    0.14
  11  -6   6    0.04    0.06
  12   5  -6    0.81    0.09
  11   5  -6    0.13    0.06
   9   5  -6   -0.09    0.12
   9   5  -6    0.03    0.07
   9   5  -6    0.05    0.08
   8   5  -6    1.56    0.21
   8   5  -6    2.03    0.18
   8   5  -6    2.21    0.18
   7   5  -6    8.90    0.40
   7   5  -6    9.04    0.42
   7   5  -6    8.57    0.39
   6   5  -6   12.36    0.53
   6   5  -6   11.56    0.51
   6   5  -6   12.65    0.50
   5   5  -6    0.08    0.09
   5   5  -6    0.19    0.12
  -4  -5   6    0.43    0.09
  -3  -5   6    2.38    0.12
  -2  -5   6    0.04    0.03
  -1  -5   6    3.15    0.14
  -1  -5   6    3.38    0.15
   0  -5   6  129.58    4.67
  -1   5  -6    0.81    0.10
   1  -5   6    0.68    0.07
  -2   5  -6    0.15    0.06
  -2   5  -6    0.02    0.05
   2  -5   6    0.07    0.04
  -3   5  -6   10.15    0.41
  -3   5  -6   10.36    0.40
   3  -5   6   10.14    0.40
  -4   5  -6    0.31    0.07
  -4   5  -6    0.49    0.09
  -5   5  -6    2.12    0.14
  -5   5  -6    1.88    0.20
  -6   5  -6   43.57    1.63
  -6   5  -6   44.25    1.64
  -7   5  -6   18.94    0.71
  -7   5  -6   17.77    0.72
   7  -5   6   17.32    0.72
  -8   5  -6    0.01    0.11
   8  -5   6    0.06    0.10
  -9   5  -6    1.28    0.21
   9  -5   6    1.37    0.16
  10  -5   6    7.58    0.34
  10  -5   6    7.53    0.34
  11  -5   6    1.81    0.22
  11  -5   6    1.52    0.13
  12   4  -6    3.83    0.18
  11   4  -6    1.05    0.12
  10   4  -6    8.26    0.37
  10   4  -6    8.25    0.36
   9   4  -6    5.39    0.28
   9   4  -6    5.85    0.29
   9   4  -6    5.51    0.33
   8   4  -6    1.17    0.23
   8   4  -6    1.27    0.17
   8   4  -6    1.22    0.16
   7   4  -6    9.98    0.46
   7   4  -6   10.32    0.44
   7   4  -6   10.06    0.43
   6   4  -6   14.09    0.57
   6   4  -6   14.13    0.57
   6   4  -6   14.15    0.59
  -5  -4   6    2.09    0.15
  -4  -4   6   12.19    0.47
  -3  -4   6   66.59    2.41
  -2  -4   6    0.01    0.02
  -1  -4   6    3.49    0.15
  -1  -4   6    3.35    0.14
   0  -4   6  128.75    4.64
  -1   4  -6    1.01    0.06
   1  -4   6    1.06    0.07
  -2   4  -6    0.86    0.10
  -2   4  -6    1.05    0.07
   2  -4   6    1.18    0.07
  -3   4  -6    0.19    0.04
  -3   4  -6    0.25    0.06
   3  -4   6    0.18    0.04
  -4   4  -6   15.16    0.59
  -4   4  -6   15.27    0.59
  -5   4  -6    0.91    0.14
  -5   4  -6    0.85    0.12
  -6   4  -6    8.93    0.38
  -6   4  -6    9.43    0.41
   6  -4   6    7.91    0.40
  -7   4  -6   12.66    0.50
   7  -4   6   11.64    0.51
  -8   4  -6    1.32    0.18
   8  -4   6    0.77    0.17
   9  -4   6   16.39    0.65
  10  -4   6    0.14    0.08
  10  -4   6    0.14    0.07
  11  -4   6    0.42    0.10
  12   3  -6    1.76    0.12
  11   3  -6    0.03    0.06
  10   3  -6    0.42    0.10
  10   3  -6    0.38    0.08
   9   3  -6    9.71    0.41
   9   3  -6    9.08    0.46
   9   3  -6    9.18    0.41
   8   3  -6    0.36    0.10
   8   3  -6    0.17    0.15
   8   3  -6    0.20    0.08
   7   3  -6    4.17    0.30
   7   3  -6    4.62    0.24
   7   3  -6    4.49    0.25
   6   3  -6   52.35    1.83
   6   3  -6   44.34    1.71
   6   3  -6   43.04    1.71
  -5  -3   6    3.12    0.16
   4   3  -6    0.53    0.08
  -4  -3   6    0.55    0.07
  -3  -3   6    0.87    0.07
  -2  -3   6    3.05    0.13
  -1  -3   6    0.27    0.04
  -1  -3   6    0.35    0.04
   0  -3   6 1000.00   35.95
  -1   3  -6    0.84    0.06
   1  -3   6    0.86    0.06
  -2   3  -6    0.01    0.02
  -2   3  -6   -0.09    0.06
   2  -3   6    0.01    0.03
  -3   3  -6    3.74    0.18
  -3   3  -6    3.69    0.17
   3  -3   6    3.58    0.17
  -4   3  -6    7.37    0.30
  -4   3  -6    6.69    0.29
  -5   3  -6    5.14    0.30
  -5   3  -6    6.07    0.26
  -6   3  -6    1.06    0.14
  -6   3  -6    1.07    0.17
   6  -3   6    1.09    0.15
  -7   3  -6    1.31    0.17
   7  -3   6    1.17    0.20
  -8   3  -6    0.16    0.13
   8  -3   6   -0.24    0.09
   9  -3   6    4.58    0.25
   9  -3   6    4.59    0.25
  10  -3   6    0.35    0.08
  10  -3   6    0.63    0.15
  11  -3   6   -0.05    0.06
  12   2  -6    2.04    0.13
  11   2  -6    0.17    0.07
  10   2  -6    0.96    0.18
  10   2  -6    1.28    0.14
   9   2  -6    5.63    0.28
   9   2  -6    5.67    0.30
   8   2  -6    4.85    0.28
   8   2  -6    4.88    0.33
   8   2  -6    5.62    0.34
   7   2  -6    7.27    0.34
   7   2  -6    6.90    0.32
   7   2  -6    6.49    0.38
  -5  -2   6    6.99    0.29
   4   2  -6    0.95    0.08
  -4  -2   6    1.12    0.08
   3   2  -6   25.19    0.93
  -3  -2   6   25.57    0.93
  -2  -2   6    1.08    0.06
  -1  -2   6   13.83    0.51
  -1  -2   6   13.65    0.51
  -1   2  -6    8.29    0.33
   1  -2   6    8.75    0.33
  -2   2  -6    0.63    0.05
   2  -2   6    0.63    0.05
  -3   2  -6    3.85    0.17
  -3   2  -6    3.69    0.19
   3  -2   6    3.63    0.17
  -4   2  -6    1.62    0.13
  -4   2  -6    1.47    0.11
  -5   2  -6    0.33    0.12
  -5   2  -6    0.38    0.08
  -6   2  -6   23.48    0.85
   6  -2   6   20.67    0.86
  -7   2  -6   11.49    0.48
   7  -2   6   11.03    0.48
   8  -2   6    2.18    0.20
   9  -2   6    8.28    0.37
   9  -2   6    7.73    0.36
  10  -2   6    8.66    0.39
  10  -2   6    9.19    0.39
  11  -2   6    0.16    0.06
  13   1  -6   -0.07    0.05
  12   1  -6    0.08    0.05
  11   1  -6    0.20    0.07
  10   1  -6    0.08    0.07
   9   1  -6    0.07    0.12
   9   1  -6    0.42    0.10
   8   1  -6    8.25    0.40
   8   1  -6    8.89    0.38
   7   1  -6    5.10    0.30
   7   1  -6    5.33    0.35
   7   1  -6    5.45    0.27
  -6  -1   6   29.71    1.11
  -5  -1   6    3.79    0.18
   4   1  -6    1.29    0.09
  -4  -1   6    1.51    0.08
   3   1  -6   14.76    0.55
  -3  -1   6   14.61    0.55
  -2  -1   6    0.08    0.02
  -1  -1   6   14.87    0.55
   0   1  -6  357.63   13.06
   0  -1   6  367.18   13.10
  -1   1  -6    0.34    0.04
   1  -1   6    0.29    0.04
  -2   1  -6    3.79    0.16
   2  -1   6    3.72    0.16
  -3   1  -6   20.86    0.84
  -3   1  -6   23.27    0.84
   3  -1   6   23.37    0.84
  -4   1  -6    7.98    0.34
  -4   1  -6    7.95    0.33
  -5   1  -6    0.55    0.14
  -6   1  -6   15.15    0.59
  -6   1  -6   15.31    0.61
   6  -1   6   13.93    0.61
  -7   1  -6   35.70    1.32
   7  -1   6   34.38    1.32
   8  -1   6    3.84    0.25
   8  -1   6    3.98    0.24
   9  -1   6    0.18    0.10
   9  -1   6    0.05    0.08
  10  -1   6    0.61    0.16
  10  -1   6    0.76    0.12
  11  -1   6   -0.01    0.06
  13   0  -6    0.92    0.09
  12   0  -6    0.05    0.06
  11   0  -6    2.34    0.18
  10   0  -6   12.36    0.51
   9   0  -6    1.74    0.17
   8   0  -6    1.60    0.25
   8   0  -6    1.60    0.16
   7   0  -6    0.68    0.16
  -6   0   6   59.77    2.09
  -6   0   6   54.62    2.08
   5   0  -6    0.21    0.05
  -5   0   6    0.17    0.04
  -5   0   6    0.19    0.07
   4   0  -6    5.68    0.22
  -4   0   6    4.78    0.22
   3   0  -6   36.21    1.33
  -3   0   6   36.77    1.33
  -2   0   6    2.42    0.10
  -1   0   6    0.26    0.03
   0   0  -6   23.96    0.89
   0   0   6   24.93    0.89
  -1   0  -6    0.36    0.04
   1   0   6    0.38    0.04
  -2   0  -6    1.26    0.07
   2   0   6    1.29    0.08
  -3   0  -6    0.91    0.08
   3   0   6    0.88    0.08
  -4   0  -6    0.15    0.09
  -4   0  -6    0.11    0.05
  -5   0  -6    3.87    0.23
  -6   0  -6   27.00    0.99
   6   0   6   24.41    0.99
   7   0   6    1.29    0.20
   7   0   6    0.86    0.16
  -8   0  -6    1.31    0.18
   8   0   6    1.55    0.16
   8   0   6    1.56    0.19
   9   0   6    0.19    0.11
   9   0   6    0.25    0.09
  10   0   6    2.41    0.17
  10   0   6    2.67    0.19
  11   0   6    0.37    0.10
  13  -1  -6    0.05    0.05
  12  -1  -6    9.13    0.38
  10  -1  -6    0.64    0.13
   9  -1  -6   30.12    1.14
   8  -1  -6   10.19    0.44
   7  -1  -6    0.64    0.15
  -7   1   6    0.35    0.09
  -6   1   6    0.43    0.08
  -6   1   6    0.11    0.06
   5  -1  -6    5.83    0.25
  -5   1   6    6.18    0.25
  -5   1   6    5.67    0.25
   4  -1  -6    8.27    0.32
  -4   1   6    8.37    0.32
  -3   1   6    1.09    0.06
  -2   1   6    0.97    0.05
  -1   1   6    0.20    0.03
   0  -1  -6   31.44    1.21
   0   1   6   35.11    1.21
  -1  -1  -6    1.23    0.07
   1   1   6    1.34    0.07
  -2  -1  -6    0.40    0.05
   2   1   6    0.60    0.06
  -3  -1  -6    6.75    0.27
   3   1   6    6.39    0.27
  -4  -1  -6   10.72    0.41
  -4  -1  -6    9.62    0.43
  -5  -1  -6    0.48    0.11
  -6  -1  -6   -0.13    0.10
   6   1   6    0.12    0.09
   6   1   6    0.04    0.12
  -7  -1  -6   40.93    1.47
   7   1   6   38.11    1.49
   7   1   6   39.06    1.51
  -8  -1  -6    1.11    0.18
   8   1   6    1.00    0.16
   8   1   6    1.00    0.20
  -9  -1  -6    5.95    0.38
   9   1   6    6.54    0.34
   9   1   6    6.87    0.32
  10   1   6    3.28    0.20
  10   1   6    3.41    0.21
  11   1   6    0.06    0.06
  13  -2  -6    1.23    0.10
  12  -2  -6   -0.01    0.05
  10  -2  -6    0.25    0.08
   9  -2  -6    9.07    0.40
   8  -2  -6    1.27    0.15
  -8   2   6    1.18    0.15
   7  -2  -6    0.28    0.10
  -7   2   6    0.40    0.08
  -6   2   6    0.46    0.08
  -6   2   6    0.50    0.10
   5  -2  -6    0.17    0.05
  -5   2   6    0.16    0.06
  -5   2   6    0.22    0.05
   4  -2  -6    5.87    0.24
  -4   2   6    5.85    0.24
  -4   2   6    5.91    0.25
  -3   2   6    9.55    0.36
  -2   2   6    0.43    0.04
  -2   2   6    0.47    0.04
  -1   2   6    0.02    0.01
   0  -2  -6    5.42    0.21
   0   2   6    5.56    0.21
  -1  -2  -6    0.66    0.05
   1   2   6    0.74    0.05
  -2  -2  -6    6.10    0.24
   2   2   6    6.10    0.25
   3   2   6    0.27    0.05
  -4  -2  -6    1.04    0.13
   5   2   6    0.39    0.11
  -6  -2  -6   14.26    0.56
   6   2   6   14.25    0.57
   6   2   6   12.58    0.57
  -7  -2  -6   29.97    1.10
   7   2   6   29.05    1.11
   7   2   6   27.90    1.12
  -8  -2  -6    0.98    0.16
   8   2   6    1.18    0.16
   8   2   6    0.95    0.13
  -9  -2  -6    9.79    0.43
   9   2   6   11.12    0.45
   9   2   6    9.77    0.44
 -10  -2  -6    3.31    0.21
  10   2   6    3.47    0.19
  10   2   6    3.77    0.23
  11   2   6    0.02    0.06
  13  -3  -6    0.17    0.05
  12  -3  -6    1.80    0.13
  10  -3  -6    0.08    0.08
   9  -3  -6    4.90    0.26
  -9   3   6    5.44    0.28
   8  -3  -6    0.83    0.15
  -8   3   6    0.74    0.13
   7  -3  -6    8.04    0.36
  -7   3   6    8.43    0.35
  -6   3   6   33.91    1.23
  -6   3   6   32.42    1.23
   5  -3  -6    1.24    0.11
  -5   3   6    1.34    0.10
  -5   3   6    1.23    0.11
   4  -3  -6    0.06    0.03
  -4   3   6    0.10    0.05
  -4   3   6    0.11    0.03
  -3   3   6   48.02    1.80
  -3   3   6   50.64    1.78
  -2   3   6    0.05    0.02
  -2   3   6    0.07    0.02
  -1   3   6    0.06    0.02
  -1   3   6    0.08    0.02
   0  -3  -6   96.25    3.52
   0   3   6   99.46    3.52
  -1  -3  -6    3.78    0.16
   1   3   6    3.83    0.16
  -2  -3  -6    3.78    0.17
   2   3   6    3.99    0.17
  -3  -3  -6    1.02    0.10
   3   3   6    0.99    0.12
  -4  -3  -6    2.73    0.19
   4   3   6    2.57    0.22
   5   3   6    0.18    0.10
   5   3   6    0.14    0.15
  -6  -3  -6   10.31    0.44
   6   3   6   10.25    0.46
  -7  -3  -6   11.05    0.44
   7   3   6   10.09    0.45
   7   3   6    9.56    0.45
  -8  -3  -6    3.77    0.22
   8   3   6    3.82    0.23
   8   3   6    3.86    0.25
  -9  -3  -6    2.26    0.16
   9   3   6    2.43    0.17
   9   3   6    2.14    0.20
 -10  -3  -6    4.46    0.22
  10   3   6    4.29    0.22
  11   3   6    0.44    0.09
  13  -4  -6   11.96    0.46
  12  -4  -6    2.03    0.13
  11  -4  -6    0.63    0.13
  10  -4  -6    0.49    0.12
 -10   4   6   -0.01    0.12
   9  -4  -6   16.84    0.69
  -9   4   6   17.96    0.69
   8  -4  -6    0.25    0.08
  -8   4   6    0.17    0.08
  -7   4   6    3.49    0.19
  -6   4   6    2.36    0.17
  -6   4   6    2.16    0.14
   5  -4  -6    8.32    0.35
  -5   4   6    8.87    0.35
  -5   4   6    8.68    0.34
  -4   4   6    0.04    0.05
  -4   4   6    0.07    0.03
  -3   4   6    0.07    0.05
  -3   4   6    0.04    0.02
  -2   4   6   -0.01    0.06
  -2   4   6    0.02    0.02
  -2   4   6    0.01    0.02
  -1   4   6    0.09    0.02
  -1   4   6    0.07    0.02
   0  -4  -6   19.92    0.74
   0   4   6   20.80    0.74
  -1  -4  -6    3.88    0.17
   1   4   6    4.04    0.17
  -2  -4  -6    9.16    0.35
   2   4   6    8.85    0.36
  -3  -4  -6  105.28    3.81
  -4  -4  -6   12.92    0.53
   4   4   6   13.02    0.55
   5   4   6    0.73    0.16
   5   4   6    0.55    0.14
  -6  -4  -6    1.90    0.17
   6   4   6    1.57    0.22
   6   4   6    2.21    0.19
  -7  -4  -6    1.93    0.17
   7   4   6    1.79    0.18
   7   4   6    1.91    0.22
  -8  -4  -6    3.91    0.22
   8   4   6    3.80    0.23
   8   4   6    3.70    0.25
  -9  -4  -6    0.28    0.07
   9   4   6    0.27    0.08
   9   4   6    0.25    0.11
  10   4   6    2.89    0.17
  13  -5  -6    2.81    0.14
  12  -5  -6    0.22    0.06
  11  -5  -6    0.06    0.06
  10  -5  -6    0.30    0.08
 -10   5   6    0.27    0.11
   9  -5  -6    4.53    0.25
  -9   5   6    4.82    0.25
  -8   5   6    1.58    0.14
  -7   5   6    4.15    0.21
  -6   5   6    1.03    0.10
  -5   5   6    2.15    0.13
  -5   5   6    1.97    0.13
  -4   5   6    0.69    0.07
  -4   5   6    0.66    0.08
  -3   5   6   62.34    2.27
  -3   5   6   60.51    2.29
  -3   5   6   66.03    2.27
  -2   5   6    0.13    0.03
  -2   5   6    0.12    0.03
  -2   5   6    0.27    0.06
  -1   5   6    0.00    0.06
  -1   5   6    0.00    0.02
  -1   5   6   -0.02    0.02
   0   5   6   55.26    1.99
  -1  -5  -6    0.70    0.07
   1   5   6    0.69    0.07
   2   5   6   10.49    0.42
  -3  -5  -6    1.74    0.15
   3   5   6    1.67    0.20
   4   5   6    0.22    0.14
   4   5   6    0.18    0.11
   4   5   6    0.10    0.16
   5   5   6    0.37    0.14
   5   5   6    0.43    0.11
   5   5   6    0.37    0.14
  -6  -5  -6    1.92    0.16
   6   5   6    1.40    0.22
   6   5   6    2.09    0.19
  -7  -5  -6    7.56    0.34
   7   5   6    7.66    0.36
   7   5   6    7.60    0.37
   8   5   6    0.50    0.13
  -9  -5  -6   -0.05    0.06
   9   5   6    0.08    0.07
   9   5   6   -0.08    0.10
 -10  -5  -6    0.04    0.06
  10   5   6    0.07    0.06
  13  -6  -6    3.74    0.17
  12  -6  -6    4.66    0.22
  11  -6  -6    0.32    0.07
 -11   6   6    0.40    0.21
  10  -6  -6    0.75    0.13
 -10   6   6    0.85    0.16
   9  -6  -6    3.52    0.21
  -8   6   6    2.20    0.16
  -7   6   6    7.12    0.32
  -6   6   6    4.31    0.27
  -6   6   6    4.29    0.21
  -5   6   6    5.30    0.24
  -4   6   6    3.50    0.18
  -3   6   6   13.53    0.53
  -2   6   6    3.02    0.16
  -1   6   6    0.25    0.07
   0   6   6   54.13    2.07
   0   6   6   59.65    2.05
  -1  -6  -6    0.22    0.05
  -2  -6  -6    8.82    0.38
   3   6   6   35.18    1.34
   3   6   6   35.57    1.34
   4   6   6    3.45    0.25
   4   6   6    4.09    0.25
   4   6   6    3.54    0.29
   5   6   6    0.22    0.10
   5   6   6    0.16    0.13
   5   6   6    0.10    0.12
  -6  -6  -6    5.92    0.29
   6   6   6    5.62    0.31
   6   6   6    5.89    0.33
  -7  -6  -6    1.27    0.14
   7   6   6    0.97    0.16
   7   6   6    1.32    0.19
  -8  -6  -6    1.38    0.13
   8   6   6    1.29    0.15
   8   6   6    1.37    0.18
  -9  -6  -6    0.67    0.10
   9   6   6    0.86    0.11
 -10  -6  -6    4.51    0.20
  10   6   6    4.29    0.21
  12  -7  -6    3.69    0.18
  11  -7  -6    0.29    0.07
  10  -7  -6    5.56    0.27
 -10   7   6    5.63    0.28
   9  -7  -6    4.65    0.24
  -9   7   6    4.36    0.24
  -8   7   6    0.57    0.11
  -7   7   6    0.47    0.10
  -6   7   6   56.37    2.10
  -6   7   6   57.81    2.11
  -5   7   6    0.12    0.06
  -5   7   6    0.02    0.12
  -4   7   6    0.27    0.07
  -3   7   6    2.38    0.14
  -2   7   6    0.74    0.11
  -1   7   6    0.17    0.07
   0   7   6    4.78    0.24
   1   7   6    0.09    0.11
   2   7   6    0.53    0.12
   2   7   6    0.47    0.13
   3   7   6   66.50    2.36
   3   7   6   65.31    2.37
   3   7   6   60.08    2.35
   4   7   6    0.90    0.17
   4   7   6    0.91    0.22
   4   7   6    0.80    0.18
  -5  -7  -6    1.20    0.14
   5   7   6    1.07    0.16
   5   7   6    0.98    0.21
   5   7   6    1.33    0.20
  -6  -7  -6   26.31    1.02
   6   7   6   27.83    1.05
   6   7   6   26.52    1.04
  -7  -7  -6    1.72    0.15
   7   7   6    2.23    0.21
   7   7   6    1.97    0.18
  -8  -7  -6    0.19    0.06
   8   7   6    0.24    0.08
   8   7   6    0.29    0.10
  -9  -7  -6    2.27    0.13
   9   7   6    2.20    0.15
  12  -8  -6   10.08    0.40
  11  -8  -6    0.07    0.06
 -11   8   6    0.04    0.10
  10  -8  -6    3.54    0.20
 -10   8   6    3.10    0.21
  -9   8   6   14.89    0.61
  -8   8   6    0.82    0.12
  -7   8   6    1.04    0.13
  -6   8   6   25.60    1.01
  -6   8   6   27.27    1.01
  -5   8   6   -0.02    0.17
  -5   8   6    0.13    0.06
  -5   8   6    0.28    0.11
  -4   8   6    0.16    0.12
  -4   8   6   -0.11    0.05
  -3   8   6    3.03    0.17
  -2   8   6    1.08    0.12
  -1   8   6    0.19    0.08
   0   8   6    2.69    0.22
   0   8   6    2.60    0.26
  -1  -8  -6    1.03    0.19
   1   8   6    0.74    0.19
   1   8   6    0.96    0.17
   2   8   6    0.07    0.10
   2   8   6    0.04    0.09
   2   8   6   -0.17    0.13
   3   8   6   11.77    0.49
   3   8   6   11.16    0.48
   3   8   6   10.33    0.49
   4   8   6   -0.05    0.14
   4   8   6    0.07    0.09
   4   8   6    0.26    0.10
  -5  -8  -6    2.51    0.18
   5   8   6    2.21    0.22
   5   8   6    2.63    0.22
   5   8   6    2.38    0.20
  -6  -8  -6    4.82    0.24
   6   8   6    4.69    0.27
   6   8   6    4.40    0.26
   7   8   6    1.65    0.18
  -8  -8  -6    0.59    0.09
   8   8   6    0.65    0.11
   8   8   6    0.56    0.11
  -9  -8  -6    1.08    0.10
   9   8   6    1.09    0.11
  12  -9  -6    0.09    0.06
  11  -9  -6    2.39    0.15
 -11   9   6    2.09    0.18
  10  -9  -6    5.36    0.25
 -10   9   6    4.98    0.26
  -9   9   6    7.31    0.34
  -8   9   6    0.19    0.08
  -7   9   6    4.39    0.26
  -7   9   6    4.48    0.23
  -6   9   6   47.09    1.77
  -6   9   6   48.57    1.77
  -6   9   6   47.29    1.78
  -5   9   6    1.69    0.18
  -5   9   6    1.54    0.13
  -5   9   6    1.57    0.27
   4  -9  -6    1.98    0.25
  -4   9   6    1.98    0.14
  -4   9   6    1.95    0.22
  -4   9   6    1.86    0.27
  -3   9   6    0.64    0.11
  -3   9   6    0.47    0.15
  -3   9   6    0.64    0.13
  -2   9   6    0.02    0.14
  -2   9   6    0.15    0.13
  -2   9   6    0.16    0.08
  -1   9   6    2.63    0.23
  -1   9   6    2.44    0.18
  -1   9   6    2.31    0.23
   0   9   6    5.88    0.30
   0   9   6    5.62    0.30
   0   9   6    4.74    0.32
  -1  -9  -6    0.06    0.11
   1   9   6   -0.08    0.11
   1   9   6    0.09    0.12
   1   9   6   -0.04    0.10
  -2  -9  -6    9.68    0.43
   2   9   6   10.07    0.46
   2   9   6   10.56    0.46
   2   9   6   10.41    0.45
  -3  -9  -6   27.63    1.07
   3   9   6   26.19    1.14
   3   9   6   29.66    1.09
   3   9   6   29.08    1.10
  -4  -9  -6    0.07    0.07
   4   9   6   -0.12    0.09
   4   9   6    0.15    0.11
   4   9   6    0.10    0.09
  -5  -9  -6    3.21    0.20
   5   9   6    2.88    0.23
   5   9   6    3.52    0.24
  -6  -9  -6    2.78    0.18
   6   9   6    2.85    0.23
   6   9   6    3.08    0.21
  -7  -9  -6   18.08    0.69
   7   9   6   17.53    0.71
   7   9   6   17.63    0.69
  -8  -9  -6   -0.04    0.04
   8   9   6    0.01    0.06
  -9  -9  -6    1.43    0.10
   9   9   6    1.53    0.11
  12 -10  -6   -0.04    0.05
  11 -10  -6    0.16    0.06
 -11  10   6    0.07    0.10
  10 -10  -6    1.29    0.13
 -10  10   6    1.35    0.15
  -9  10   6    0.04    0.07
  -8  10   6    0.05    0.07
  -7  10   6    0.61    0.16
  -7  10   6    0.46    0.15
  -7  10   6    0.68    0.13
  -6  10   6   10.50    0.46
  -6  10   6   10.18    0.53
  -6  10   6   11.44    0.46
  -5  10   6    5.35    0.29
  -5  10   6    5.32    0.33
  -5  10   6    5.15    0.26
   4 -10  -6    2.40    0.25
  -4  10   6    2.26    0.25
  -4  10   6    2.34    0.21
  -4  10   6    2.46    0.16
  -3  10   6   19.79    0.80
  -3  10   6   19.80    0.79
  -3  10   6   20.37    0.77
  -2  10   6    0.19    0.11
  -2  10   6    0.05    0.13
  -2  10   6    0.08    0.08
  -1  10   6    0.08    0.11
  -1  10   6    0.16    0.12
   0  10   6    2.38    0.23
   0  10   6    2.56    0.22
  -1 -10  -6    1.78    0.21
   1  10   6    1.65    0.19
   1  10   6    1.74    0.18
   1  10   6    1.95    0.22
  -2 -10  -6    2.30    0.20
   2  10   6    2.40    0.30
   2  10   6    2.43    0.21
  -3 -10  -6   33.28    1.28
   3  10   6   35.83    1.32
   3  10   6   33.75    1.30
   3  10   6   34.05    1.31
  -4 -10  -6    6.47    0.32
   4  10   6    7.02    0.35
   4  10   6    7.04    0.35
  -5 -10  -6    0.24    0.07
   5  10   6    0.19    0.10
   5  10   6    0.27    0.11
  -6 -10  -6    1.17    0.12
   6  10   6    1.04    0.17
   6  10   6    1.35    0.15
  -7 -10  -6    0.23    0.06
   7  10   6    0.24    0.07
   7  10   6    0.20    0.11
  -8 -10  -6    0.02    0.04
   8  10   6   -0.04    0.06
  11 -11  -6    0.05    0.05
 -11  11   6    0.04    0.09
  10 -11  -6    0.09    0.06
 -10  11   6    0.09    0.08
  -9  11   6    5.90    0.29
  -8  11   6    0.08    0.07
  -7  11   6    0.09    0.07
  -7  11   6    0.08    0.09
  -7  11   6    0.17    0.14
  -6  11   6   73.80    2.80
  -6  11   6   74.97    2.80
  -6  11   6   79.94    2.81
  -5  11   6    0.69    0.16
  -5  11   6    0.55    0.12
  -5  11   6    0.68    0.14
   4 -11  -6    0.59    0.14
  -4  11   6    0.81    0.14
  -4  11   6    0.65    0.21
  -4  11   6    0.60    0.12
  -3  11   6    0.69    0.13
  -3  11   6    0.30    0.12
  -3  11   6    0.42    0.11
  -2  11   6    0.07    0.09
  -2  11   6    0.03    0.11
  -2  11   6   -0.05    0.10
  -1  11   6    1.62    0.19
  -1  11   6    1.66    0.20
   0  11   6    1.40    0.19
  -1 -11  -6    0.22    0.12
   1  11   6    0.13    0.11
   1  11   6    0.07    0.10
  -2 -11  -6    0.68    0.16
   2  11   6    0.51    0.12
   2  11   6    0.61    0.12
  -3 -11  -6    0.22    0.09
   3  11   6    0.33    0.10
   3  11   6    0.33    0.12
  -4 -11  -6    0.30    0.08
   4  11   6    0.41    0.10
   4  11   6    0.23    0.11
   5  11   6    0.06    0.10
  -6 -11  -6    5.56    0.25
   6  11   6    5.41    0.28
   6  11   6    5.39    0.27
  -7 -11  -6    5.75    0.24
   7  11   6    5.26    0.25
  11 -12  -6    0.54    0.08
  10 -12  -6    2.43    0.15
 -10  12   6    2.60    0.16
  -9  12   6    8.16    0.36
  -8  12   6    0.07    0.07
  -7  12   6    0.18    0.09
  -7  12   6    0.08    0.13
  -7  12   6    0.16    0.08
  -6  12   6    7.63    0.35
  -6  12   6    7.46    0.36
  -6  12   6    7.69    0.38
  -5  12   6   -0.01    0.12
  -5  12   6    0.20    0.09
   4 -12  -6   -0.06    0.13
  -4  12   6   -0.19    0.11
  -4  12   6    0.12    0.10
  -4  12   6    0.05    0.08
   3 -12  -6   60.16    2.24
  -3  12   6   60.52    2.24
  -3  12   6   59.87    2.23
  -3  12   6   61.71    2.24
  -2  12   6    4.50    0.28
  -2  12   6    4.79    0.27
  -1  12   6    1.27    0.18
  -1  12   6    1.19    0.19
   0  12   6   19.95    0.81
   0  12   6   20.77    0.81
   1  12   6   36.71    1.36
   1  12   6   35.09    1.37
  -2 -12  -6    0.07    0.10
   2  12   6   -0.05    0.08
   2  12   6    0.00    0.11
  -3 -12  -6   23.45    0.90
   3  12   6   23.77    0.93
   3  12   6   23.18    0.91
   4  12   6    0.26    0.10
   4  12   6    0.11    0.08
  -5 -12  -6    4.06    0.20
   5  12   6    3.83    0.22
   5  12   6    3.78    0.23
  -6 -12  -6    9.59    0.38
   6  12   6    9.14    0.40
   6  12   6    9.55    0.39
  -7 -12  -6    3.82    0.17
   7  12   6    3.90    0.18
  10 -13  -6    1.10    0.10
 -10  13   6    1.02    0.14
  -9  13   6    2.64    0.19
  -8  13   6    0.24    0.08
  -7  13   6    0.03    0.08
  -7  13   6    0.03    0.08
  -7  13   6   -0.17    0.13
  -6  13   6   41.42    1.66
  -6  13   6   47.29    1.67
  -6  13   6   45.31    1.66
  -5  13   6    1.26    0.16
  -5  13   6    1.14    0.16
  -5  13   6    1.24    0.20
   4 -13  -6    4.01    0.28
  -4  13   6    4.03    0.24
  -4  13   6    4.15    0.26
  -4  13   6    4.18    0.25
   3 -13  -6   60.70    2.21
  -3  13   6   57.32    2.21
  -3  13   6   61.05    2.22
  -3  13   6   60.58    2.22
  -2  13   6    0.97    0.18
  -2  13   6    0.66    0.16
  -1  13   6    0.27    0.10
  -1  13   6    0.06    0.10
   0  13   6   39.79    1.53
   0  13   6   40.99    1.52
   1  13   6   -0.13    0.09
   1  13   6   -0.04    0.09
  -2 -13  -6    0.02    0.11
   2  13   6   -0.08    0.09
   2  13   6   -0.11    0.09
  -3 -13  -6    0.92    0.15
   3  13   6    1.32    0.21
   3  13   6    0.90    0.17
  -4 -13  -6    0.49    0.09
   4  13   6    0.44    0.10
   4  13   6    0.30    0.08
  -5 -13  -6   -0.05    0.06
   5  13   6   -0.07    0.06
   5  13   6    0.02    0.09
  -6 -13  -6    0.21    0.06
  -6 -13  -6    0.22    0.06
   6  13   6    0.20    0.06
  10 -14  -6   10.80    0.42
  -9  14   6    5.03    0.25
  -7  14   6    0.18    0.09
  -7  14   6    0.23    0.12
  -6  14   6   42.43    1.69
  -6  14   6   46.38    1.69
  -6  14   6   47.46    1.71
  -5  14   6    0.16    0.10
  -5  14   6    0.30    0.10
  -5  14   6    0.17    0.09
   4 -14  -6    0.19    0.12
  -4  14   6    0.03    0.09
  -4  14   6    0.13    0.10
  -4  14   6   -0.02    0.11
   3 -14  -6   28.90    1.12
  -3  14   6   29.26    1.13
  -3  14   6   30.14    1.12
  -2  14   6    0.54    0.11
  -2  14   6    0.43    0.10
  -1  14   6    1.23    0.17
  -1  14   6    0.96    0.17
   0  14   6    0.17    0.10
   0  14   6    0.12    0.09
   1  14   6    0.06    0.09
   1  14   6    0.25    0.10
   2  14   6    0.50    0.10
   2  14   6    0.41    0.09
  -3 -14  -6   16.15    0.64
   3  14   6   16.44    0.64
   3  14   6   16.11    0.65
  -4 -14  -6    1.46    0.14
   4  14   6    1.57    0.13
   4  14   6    1.60    0.16
  -5 -14  -6    0.77    0.11
   5  14   6    0.75    0.10
   9 -15  -6    6.54    0.27
  -8  15   6    1.37    0.16
  -7  15   6    0.37    0.12
  -7  15   6    0.48    0.11
  -6  15   6    6.96    0.34
  -6  15   6    7.02    0.32
  -6  15   6    6.69    0.31
  -5  15   6    0.21    0.12
  -5  15   6    0.10    0.09
  -5  15   6    0.09    0.08
  -4  15   6    0.10    0.10
  -4  15   6   -0.18    0.11
   3 -15  -6   18.67    0.76
  -3  15   6   19.58    0.80
  -3  15   6   19.62    0.79
  -2  15   6    0.91    0.15
  -1  15   6    0.02    0.10
   0  15   6   26.25    1.03
   0  15   6   27.80    1.04
   1  15   6    2.56    0.19
   1  15   6    2.83    0.19
   2  15   6   -0.04    0.07
   2  15   6    0.03    0.08
   3  15   6    5.21    0.26
   3  15   6    5.86    0.26
   4  15   6    2.54    0.15
  -7  16   6   -0.01    0.12
  -6  16   6    3.20    0.19
  -6  16   6    2.71    0.17
  -6  16   6    2.91    0.25
  -5  16   6    0.07    0.07
  -5  16   6   -0.06    0.08
  -4  16   6    0.80    0.14
  -4  16   6    0.80    0.13
   3 -16  -6    0.11    0.10
  -3  16   6    0.11    0.08
  -3  16   6    0.21    0.08
   2 -16  -6    0.10    0.08
  -2  16   6    0.14    0.08
  -2  16   6    0.17    0.09
   1 -16  -6    0.05    0.07
  -1  16   6   -0.12    0.08
  -1  16   6   -0.06    0.07
   0 -16  -6    3.27    0.19
   0  16   6    3.01    0.19
   0  16   6    3.05    0.20
   1  16   6    0.19    0.09
   1  16   6    0.26    0.08
  -2 -16  -6    0.10    0.06
   2  16   6    0.26    0.09
   2  16   6    0.18    0.07
  -3 -16  -6    0.87    0.09
   3  16   6    0.66    0.10
  -6  17   6    5.87    0.32
  -5  17   6    0.05    0.06
  -4  17   6    0.00    0.08
  -4  17   6    0.07    0.07
  -3  17   6   37.87    1.34
  -3  17   6   33.91    1.33
   2 -17  -6    0.28    0.08
  -2  17   6    0.23    0.08
  -2  17   6    0.28    0.08
   1 -17  -6   -0.08    0.07
  -1  17   6    0.04    0.07
  -1  17   6    0.16    0.08
   0 -17  -6   12.47    0.48
   0  17   6   12.00    0.49
  -1 -17  -6    3.82    0.19
   1  17   6    3.81    0.22
   1  17   6    3.81    0.19
  -2 -17  -6    0.07    0.05
   2  17   6   -0.04    0.05
  -4  18   6    0.78    0.13
  -4  18   6    0.93    0.12
  -3  18   6    6.06    0.26
  -3  18   6    6.06    0.27
  -2  18   6    0.88    0.11
  -2  18   6    0.98    0.13
   1 -18  -6    0.21    0.08
  -1  18   6    0.46    0.10
  -1  18   6    0.25    0.07
   0 -18  -6    2.11    0.14
   0  18   6    2.33    0.14
   1  19  -7    0.37    0.09
   0  19  -7    0.07    0.08
   0  19  -7   -0.03    0.06
  -1  19  -7    5.95    0.26
  -2  19  -7    0.68    0.10
  -2  19  -7    0.81    0.12
  -3  19  -7    0.68    0.10
  -3  19  -7    0.59    0.11
  -4  19  -7    0.79    0.10
   3  18  -7    0.04    0.06
   2  18  -7   15.18    0.56
   2  18  -7   13.87    0.57
   1  18  -7    0.03    0.06
   0  18  -7   -0.01    0.07
   0  18  -7    0.08    0.06
  -1  18  -7   13.55    0.54
  -1  18  -7   13.43    0.53
  -2  18  -7    0.63    0.11
  -2  18  -7    0.72    0.11
  -3  18  -7    0.47    0.11
  -3  18  -7    0.41    0.10
  -4  18  -7    2.22    0.14
  -6  18  -7    1.00    0.10
   5  17  -7    0.20    0.06
   5  17  -7    0.20    0.06
   4  17  -7    1.24    0.11
   3  17  -7    0.23    0.07
   3  17  -7    0.15    0.11
   3  17  -7    0.31    0.08
   2  17  -7    4.68    0.22
   2  17  -7    3.95    0.23
   2  17  -7    3.93    0.23
   1  17  -7    1.53    0.14
   1  17  -7    1.34    0.16
   0  17  -7    0.02    0.08
   0  17  -7    0.03    0.07
  -1  17  -7    1.96    0.16
  -1  17  -7    1.91    0.15
  -2  17  -7   -0.07    0.07
  -2  17  -7   -0.02    0.07
  -3  17  -7    0.06    0.07
  -3  17  -7   -0.10    0.07
  -4  17  -7    0.56    0.12
  -4  17  -7    0.30    0.08
  -5  17  -7    0.05    0.06
  -6  17  -7    0.10    0.06
  -7  17  -7    1.54    0.11
   6  16  -7    2.74    0.15
   6  16  -7    2.77    0.15
   5  16  -7    1.41    0.11
   5  16  -7    1.38    0.12
   4  16  -7    0.04    0.06
   4  16  -7   -0.04    0.07
   3  16  -7    0.00    0.07
   3  16  -7    0.23    0.11
   3  16  -7    0.14    0.08
   2  16  -7    0.10    0.10
   2  16  -7    0.20    0.10
   2  16  -7    0.19    0.08
   1  16  -7    0.14    0.09
   1  16  -7    0.11    0.08
   1  16  -7    0.17    0.12
   0  16  -7    2.53    0.26
   0  16  -7    2.35    0.19
  -2  16  -7    0.05    0.08
  -3  16  -7   -0.03    0.08
  -3  16  -7    0.02    0.08
  -4  16  -7    1.98    0.17
  -4  16  -7    1.39    0.33
  -4  16  -7    2.26    0.16
  -5  16  -7    0.33    0.11
  -5  16  -7    0.26    0.07
  -5  16  -7    0.35    0.08
  -6  16  -7   -0.06    0.10
  -6  16  -7   -0.04    0.06
  -7  16  -7    0.82    0.10
  -7  16  -7    0.76    0.15
  -8  16  -7    0.13    0.05
   7  15  -7    0.06    0.05
   7  15  -7    0.14    0.05
   6  15  -7   -0.05    0.06
   6  15  -7    0.02    0.06
   5  15  -7    3.47    0.20
   5  15  -7    3.80    0.20
   4  15  -7    0.06    0.07
   4  15  -7    0.01    0.12
   4  15  -7    0.09    0.08
   3  15  -7    2.69    0.21
   3  15  -7    2.83    0.23
   3  15  -7    2.78    0.19
   2  15  -7   24.65    0.98
   2  15  -7   25.50    1.00
   2  15  -7   26.99    1.02
   1  15  -7    0.67    0.14
   1  15  -7    0.83    0.18
   1  15  -7    0.67    0.14
   0  15  -7    1.93    0.19
   0  15  -7    1.70    0.17
  -1  15  -7   41.54    1.56
  -1  15  -7   41.75    1.57
  -2  15  -7    2.12    0.19
  -2  15  -7    1.66    0.17
  -3  15  -7    0.16    0.09
  -3  15  -7    0.17    0.09
  -3  15  -7    0.24    0.12
  -4  15  -7    0.48    0.12
  -4  15  -7    0.67    0.14
  -5  15  -7    3.51    0.22
  -5  15  -7    3.47    0.21
  -5  15  -7    3.63    0.21
  -6  15  -7    0.21    0.07
  -6  15  -7    0.22    0.09
  -7  15  -7    2.64    0.18
  -7  15  -7    2.36    0.15
  -8  15  -7    0.36    0.09
  -8  15  -7    0.46    0.08
   8 -15   7    0.18    0.08
   7  14  -7    0.14    0.06
   7  14  -7    0.14    0.06
   6  14  -7    1.50    0.14
   6  14  -7    1.30    0.13
   5  14  -7    0.65    0.13
   5  14  -7    0.82    0.14
   5  14  -7    0.71    0.13
   4  14  -7    0.66    0.13
   4  14  -7    0.80    0.15
   4  14  -7    0.58    0.15
   4  14  -7    0.56    0.14
   3  14  -7    5.40    0.31
   3  14  -7    5.71    0.29
   3  14  -7    6.01    0.31
   3  14  -7    5.88    0.31
   2  14  -7    0.32    0.12
   2  14  -7    0.31    0.09
   2  14  -7    0.15    0.11
   1  14  -7    0.75    0.18
   1  14  -7    0.67    0.11
   1  14  -7    1.17    0.22
   0  14  -7    0.40    0.10
   0  14  -7    0.37    0.11
  -1  14  -7    2.74    0.21
  -1  14  -7    3.02    0.21
  -2  14  -7    1.92    0.19
  -2  14  -7    2.32    0.22
  -2  14  -7    1.70    0.19
  -3  14  -7    0.89    0.15
  -3  14  -7    0.90    0.16
  -3  14  -7    0.81    0.16
  -4  14  -7   -0.12    0.08
  -4  14  -7   -0.12    0.09
  -4  14  -7   -0.09    0.08
  -5  14  -7    0.92    0.16
  -5  14  -7    0.96    0.15
  -5  14  -7    0.88    0.14
  -6  14  -7    0.70    0.13
  -6  14  -7    0.72    0.14
  -7  14  -7    0.04    0.07
  -7  14  -7   -0.03    0.07
  -8  14  -7    0.39    0.09
  -8  14  -7    0.47    0.12
   8 -14   7    0.49    0.12
   8  13  -7    1.51    0.12
   8  13  -7    1.66    0.12
   7  13  -7    0.10    0.06
   7  13  -7    0.10    0.06
   6  13  -7    1.63    0.15
   6  13  -7    1.80    0.15
   6  13  -7    1.39    0.14
   5  13  -7   12.31    0.52
   5  13  -7   12.80    0.52
   5  13  -7   12.79    0.54
   4  13  -7    0.34    0.11
   4  13  -7    0.29    0.09
   4  13  -7    0.72    0.16
   4  13  -7    0.55    0.14
   3  13  -7    3.47    0.25
   3  13  -7    3.39    0.23
   3  13  -7    3.08    0.24
   3  13  -7    3.28    0.26
   2  13  -7   54.09    2.03
   2  13  -7   55.12    2.04
   2  13  -7   54.35    2.02
   1  13  -7    0.07    0.09
   1  13  -7    0.00    0.13
   1  13  -7    0.02    0.12
   0  13  -7    0.26    0.11
   0  13  -7    0.28    0.16
   0  13  -7    0.40    0.10
  -1  13  -7    4.43    0.26
  -1  13  -7    4.20    0.26
  -2  13  -7    0.66    0.17
  -2  13  -7    0.76    0.17
  -2  13  -7    0.68    0.17
  -3  13  -7    0.39    0.10
  -3  13  -7    0.41    0.10
  -3  13  -7    0.66    0.16
  -4  13  -7   23.71    0.99
  -4  13  -7   26.87    0.99
  -4  13  -7   26.55    1.00
  -5  13  -7    1.70    0.18
  -5  13  -7    1.55    0.17
  -5  13  -7    1.81    0.17
  -6  13  -7    1.57    0.16
  -6  13  -7    1.52    0.15
  -7  13  -7    1.62    0.16
  -7  13  -7    1.80    0.15
  -8  13  -7    3.02    0.18
  -8  13  -7    2.43    0.21
   8 -13   7    3.00    0.17
  -9  13  -7   -0.01    0.08
   9 -13   7   -0.03    0.09
   9  12  -7    0.25    0.07
   9  12  -7    0.38    0.08
   8  12  -7    2.37    0.16
   8  12  -7    2.23    0.14
   7  12  -7    0.91    0.13
   7  12  -7    1.03    0.12
   7  12  -7    1.15    0.13
   6  12  -7    5.20    0.26
   6  12  -7    5.35    0.26
   6  12  -7    4.91    0.28
   5  12  -7    4.26    0.25
   5  12  -7    4.43    0.26
   5  12  -7    4.45    0.25
   4  12  -7    3.26    0.24
   4  12  -7    3.43    0.23
   4  12  -7    3.17    0.28
   4  12  -7    3.50    0.23
   3  12  -7    3.77    0.25
   3  12  -7    3.32    0.22
   3  12  -7    3.43    0.24
   3  12  -7    3.14    0.27
   2  12  -7    0.31    0.13
   2  12  -7   -0.02    0.12
   2  12  -7    0.19    0.10
   2  12  -7    0.13    0.13
   1  12  -7    0.14    0.10
   0  12  -7    0.49    0.13
   0  12  -7    0.53    0.19
  -1  12  -7    4.92    0.31
  -1  12  -7    5.31    0.28
  -2  12  -7    0.31    0.11
  -2  12  -7    0.84    0.18
  -2  12  -7    0.41    0.09
  -3  12  -7    0.16    0.09
  -3  12  -7    0.19    0.09
  -3  12  -7    0.32    0.10
  -4  12  -7   11.18    0.48
  -4  12  -7   11.17    0.47
  -4  12  -7   10.76    0.48
  -5  12  -7    0.69    0.12
  -5  12  -7    0.78    0.14
  -5  12  -7    0.73    0.15
  -6  12  -7    1.73    0.17
  -6  12  -7    1.57    0.16
  -7  12  -7    1.19    0.15
  -7  12  -7    1.00    0.13
  -8  12  -7    0.30    0.08
  -8  12  -7    0.37    0.09
   8 -12   7    0.28    0.08
  -9  12  -7    0.09    0.08
   9 -12   7    0.01    0.08
   9  11  -7    2.91    0.17
   9  11  -7    3.00    0.16
   8  11  -7    3.05    0.17
   8  11  -7    2.96    0.18
   8  11  -7    2.88    0.18
   7  11  -7    0.75    0.15
   7  11  -7    0.76    0.12
   6  11  -7    0.30    0.09
   6  11  -7    0.05    0.09
   6  11  -7    0.31    0.09
   5  11  -7    4.33    0.25
   5  11  -7    4.37    0.27
   5  11  -7    4.44    0.25
   4  11  -7    0.51    0.10
   4  11  -7    0.55    0.12
   4  11  -7    0.70    0.15
   4  11  -7    0.59    0.17
   3  11  -7    0.31    0.15
   3  11  -7    0.31    0.11
   3  11  -7    0.55    0.13
   3  11  -7    0.53    0.12
   2  11  -7    5.23    0.31
   2  11  -7    5.80    0.32
   2  11  -7    5.54    0.33
   2  11  -7    5.50    0.29
   1  11  -7    0.69    0.16
   1  11  -7    0.48    0.12
   1  11  -7    0.83    0.15
   0  11  -7    0.10    0.13
   0  11  -7    0.06    0.18
   0  11  -7    0.35    0.12
  -1  11  -7    1.47    0.21
  -1  11  -7    1.27    0.15
  -1  11  -7    1.29    0.20
  -2  11  -7    3.14    0.19
  -2  11  -7    2.44    0.22
  -2  11  -7    3.04    0.24
  -3  11  -7   -0.06    0.08
  -3  11  -7   -0.01    0.10
  -3  11  -7   -0.04    0.09
  -4  11  -7    1.38    0.20
  -4  11  -7    1.10    0.17
  -4  11  -7    1.17    0.14
  -5  11  -7    3.43    0.24
  -5  11  -7    3.36    0.22
  -5  11  -7    3.52    0.21
  -6  11  -7    0.44    0.11
  -6  11  -7    0.58    0.13
  -7  11  -7    3.40    0.21
  -7  11  -7    3.01    0.20
  -8  11  -7   13.28    0.57
  -8  11  -7   12.70    0.54
   8 -11   7   13.63    0.53
  -9  11  -7    0.07    0.07
   9 -11   7    0.19    0.08
  10  10  -7    1.43    0.11
  10  10  -7    1.46    0.16
   9  10  -7    0.05    0.06
   9  10  -7   -0.05    0.07
   8  10  -7    9.01    0.40
   8  10  -7    9.18    0.39
   8  10  -7    9.78    0.41
   7  10  -7    3.12    0.21
   7  10  -7    3.41    0.23
   7  10  -7    3.44    0.20
   6  10  -7   15.87    0.64
   6  10  -7   15.79    0.66
   6  10  -7   16.10    0.65
   5  10  -7    3.95    0.23
   5  10  -7    3.87    0.25
   4  10  -7    0.45    0.11
   4  10  -7    0.19    0.10
   4  10  -7    0.27    0.10
   3  10  -7    3.72    0.32
   3  10  -7    3.60    0.23
   3  10  -7    3.46    0.23
   3  10  -7    3.71    0.25
   2  10  -7   21.84    0.84
   2  10  -7   21.04    0.84
   2  10  -7   20.82    0.86
   2  10  -7   21.91    0.85
   1  10  -7    0.59    0.15
   1  10  -7    1.07    0.18
   1  10  -7    0.94    0.14
   0  10  -7    0.13    0.10
   0  10  -7    0.10    0.14
   0  10  -7    0.02    0.12
  -1  10  -7    9.39    0.42
  -1  10  -7    8.86    0.42
  -1  10  -7    9.20    0.39
  -2  10  -7    4.32    0.27
  -2  10  -7    4.11    0.22
  -2  10  -7    4.05    0.28
  -3  10  -7    0.73    0.17
  -3  10  -7    0.87    0.19
  -3  10  -7    0.68    0.12
  -4  10  -7   42.26    1.53
  -4  10  -7   41.65    1.54
  -4  10  -7   38.62    1.52
  -5  10  -7   17.59    0.68
  -5  10  -7   16.82    0.68
  -5  10  -7   16.38    0.68
  -6  10  -7    3.82    0.23
  -6  10  -7    3.62    0.23
  -7  10  -7    2.12    0.18
  -7  10  -7    2.10    0.17
  -8  10  -7   19.16    0.75
  -8  10  -7   18.89    0.75
  -9  10  -7    1.01    0.15
   9 -10   7    1.29    0.15
 -10  10  -7    0.66    0.17
  10   9  -7    0.07    0.05
  10   9  -7    0.16    0.09
   9   9  -7    0.25    0.06
   9   9  -7    0.23    0.07
   9   9  -7    0.28    0.09
   8   9  -7    2.32    0.16
   8   9  -7    2.28    0.18
   8   9  -7    2.23    0.19
   7   9  -7    0.04    0.07
   7   9  -7    0.01    0.08
   7   9  -7   -0.11    0.09
   6   9  -7    0.03    0.08
   6   9  -7   -0.02    0.10
   6   9  -7    0.05    0.08
   5   9  -7    3.17    0.23
   5   9  -7    3.28    0.22
   5   9  -7    3.31    0.21
   4   9  -7    0.24    0.09
   4   9  -7    0.27    0.10
   4   9  -7    0.33    0.11
   3   9  -7    1.29    0.19
   3   9  -7    1.17    0.20
   3   9  -7    1.70    0.19
   2   9  -7   21.98    0.87
   2   9  -7   22.09    0.87
   2   9  -7   22.87    0.89
  -2  -9   7   22.32    0.86
  -1  -9   7    0.11    0.08
   0   9  -7    0.62    0.14
   0  -9   7    0.67    0.09
  -1   9  -7   34.47    1.35
   1  -9   7   38.37    1.35
  -2   9  -7    0.87    0.21
  -2   9  -7    0.97    0.12
   2  -9   7    0.88    0.16
  -3   9  -7    0.15    0.11
  -3   9  -7   -0.07    0.07
  -3   9  -7    0.12    0.13
  -4   9  -7    1.32    0.13
  -4   9  -7    1.16    0.21
  -4   9  -7    1.56    0.19
  -5   9  -7    1.05    0.13
  -5   9  -7    0.93    0.20
  -6   9  -7    0.60    0.15
  -6   9  -7    0.60    0.10
  -7   9  -7   10.99    0.50
  -7   9  -7   12.74    0.51
  -8   9  -7    0.82    0.14
  -8   9  -7    0.48    0.10
   8  -9   7    0.77    0.15
  -9   9  -7    1.54    0.16
   9  -9   7    1.97    0.17
 -10   9  -7    3.34    0.23
  11  -9   7    1.23    0.10
  11   8  -7    0.12    0.05
  10   8  -7    0.36    0.10
  10   8  -7    0.22    0.07
   9   8  -7    3.42    0.20
   9   8  -7    3.25    0.22
   9   8  -7    3.64    0.19
   8   8  -7   20.51    0.82
   8   8  -7   20.97    0.81
   8   8  -7   21.32    0.83
   7   8  -7    9.72    0.44
   7   8  -7   10.19    0.46
   7   8  -7   10.05    0.43
   6   8  -7    8.47    0.37
   6   8  -7    7.55    0.38
   6   8  -7    8.27    0.38
   5   8  -7    3.69    0.22
   5   8  -7    3.63    0.25
   5   8  -7    3.60    0.24
   4   8  -7    0.23    0.11
   4   8  -7    0.18    0.09
   4   8  -7    0.15    0.11
   3   8  -7    5.38    0.30
   3   8  -7    5.43    0.31
   3   8  -7    5.11    0.28
  -3  -8   7    5.26    0.27
  -2  -8   7   19.68    0.75
   1   8  -7    2.87    0.20
  -1  -8   7    3.10    0.16
  -1  -8   7    2.86    0.19
   0   8  -7   -0.02    0.08
   0  -8   7   -0.01    0.07
   0  -8   7    0.06    0.05
  -1   8  -7    0.61    0.11
   1  -8   7    0.45    0.10
   1  -8   7    0.52    0.13
  -3   8  -7   -0.01    0.06
  -3   8  -7    0.28    0.11
  -4   8  -7    5.34    0.28
  -4   8  -7    5.22    0.25
  -4   8  -7    4.57    0.32
  -5   8  -7    0.15    0.10
  -5   8  -7    0.09    0.13
  -5   8  -7    0.09    0.07
  -6   8  -7    0.42    0.09
  -6   8  -7    0.70    0.16
  -7   8  -7    0.89    0.17
  -8   8  -7    4.19    0.25
  -8   8  -7    3.90    0.24
   8  -8   7    4.49    0.24
  -9   8  -7    0.04    0.09
   9  -8   7    0.17    0.09
 -10   8  -7    0.52    0.15
  10  -8   7    0.42    0.09
  11  -8   7    5.79    0.25
  11   7  -7    0.60    0.09
  10   7  -7   -0.01    0.06
  10   7  -7    0.06    0.10
   9   7  -7   11.98    0.50
   9   7  -7   11.92    0.52
   9   7  -7   11.69    0.48
   8   7  -7    7.38    0.34
   8   7  -7    7.32    0.37
   8   7  -7    7.78    0.35
   7   7  -7    2.25    0.17
   7   7  -7    1.86    0.21
   7   7  -7    2.26    0.18
   6   7  -7    0.69    0.11
   6   7  -7    1.02    0.18
   5   7  -7    0.84    0.18
   5   7  -7    1.24    0.18
   5   7  -7    1.24    0.16
   4   7  -7    3.45    0.25
   4   7  -7    3.71    0.25
   4   7  -7    3.71    0.22
  -3  -7   7    1.62    0.14
  -2  -7   7    1.84    0.18
  -2  -7   7    1.64    0.12
   1   7  -7    2.14    0.17
  -1  -7   7    2.56    0.13
  -1  -7   7    2.10    0.14
   0   7  -7    0.29    0.08
   0  -7   7    0.23    0.06
   0  -7   7    0.22    0.05
  -1   7  -7   77.87    2.84
   1  -7   7   78.38    2.83
  -2   7  -7    0.16    0.06
   2  -7   7   -0.02    0.07
  -3   7  -7    2.58    0.15
  -3   7  -7    2.35    0.17
  -4   7  -7   90.93    3.33
  -4   7  -7   92.24    3.34
  -5   7  -7    5.43    0.26
  -5   7  -7    5.45    0.29
  -6   7  -7    0.12    0.11
  -6   7  -7   -0.19    0.07
  -7   7  -7    1.88    0.19
  -7   7  -7    1.96    0.17
   7  -7   7    2.49    0.20
  -8   7  -7   11.05    0.47
   8  -7   7   10.78    0.46
  -9   7  -7    0.24    0.10
   9  -7   7    0.28    0.09
  10  -7   7    0.26    0.10
  11  -7   7    4.22    0.20
  11   6  -7    0.19    0.06
  10   6  -7    0.00    0.06
  10   6  -7    0.14    0.12
  10   6  -7   -0.06    0.06
   9   6  -7    0.63    0.13
   9   6  -7    0.38    0.09
   9   6  -7    0.70    0.18
   8   6  -7    0.52    0.10
   8   6  -7    0.47    0.12
   8   6  -7    0.58    0.11
   7   6  -7    0.16    0.09
   7   6  -7   -0.01    0.08
   7   6  -7   -0.05    0.10
   6   6  -7    1.02    0.18
   6   6  -7    0.94    0.16
   6   6  -7    0.68    0.14
   5   6  -7    1.81    0.17
   5   6  -7    1.87    0.20
   5   6  -7    1.97    0.20
  -4  -6   7    5.37    0.26
  -3  -6   7    6.00    0.26
  -2  -6   7    5.97    0.24
  -2  -6   7    5.12    0.24
  -1  -6   7    0.08    0.04
  -1  -6   7    0.12    0.03
   0   6  -7    0.01    0.06
   0  -6   7    0.06    0.03
   0  -6   7    0.02    0.03
  -1   6  -7   37.52    1.38
   1  -6   7   37.33    1.37
  -2   6  -7    0.04    0.06
   2  -6   7    0.00    0.05
  -3   6  -7    0.47    0.09
  -3   6  -7    0.41    0.07
  -4   6  -7   17.45    0.67
  -4   6  -7   17.14    0.68
  -4   6  -7   17.56    0.70
  -5   6  -7    3.89    0.20
  -5   6  -7    3.13    0.24
  -6   6  -7    0.08    0.08
  -6   6  -7    0.18    0.10
  -7   6  -7    0.19    0.08
  -7   6  -7    0.26    0.09
   7  -6   7    0.30    0.11
  -8   6  -7    0.62    0.15
   8  -6   7    0.80    0.18
  -9   6  -7    0.14    0.11
  10  -6   7    0.53    0.10
  10  -6   7    0.75    0.11
  11  -6   7    2.76    0.15
  12   5  -7   18.92    0.71
  11   5  -7   12.69    0.51
  10   5  -7    0.52    0.12
  10   5  -7    0.66    0.12
  10   5  -7    0.49    0.14
   9   5  -7    4.53    0.24
   9   5  -7    4.40    0.28
   9   5  -7    4.39    0.24
   8   5  -7   32.52    1.25
   8   5  -7   33.91    1.26
   8   5  -7   32.48    1.24
   7   5  -7    3.62    0.26
   7   5  -7    3.33    0.29
   6   5  -7    0.06    0.09
   6   5  -7    0.21    0.10
   6   5  -7   -0.03    0.11
   5   5  -7   -0.13    0.16
   5   5  -7    0.00    0.08
   5   5  -7    0.35    0.12
  -4  -5   7    0.58    0.10
  -3  -5   7    0.14    0.04
  -2  -5   7   22.03    0.82
  -1  -5   7    5.70    0.24
  -1  -5   7    5.73    0.24
   0   5  -7    0.25    0.07
   0  -5   7    0.13    0.03
  -1   5  -7  188.06    6.67
   1  -5   7  182.42    6.67
  -2   5  -7    0.32    0.07
  -2   5  -7    0.27    0.07
   2  -5   7    0.31    0.05
  -3   5  -7    1.31    0.11
  -3   5  -7    1.45    0.11
  -4   5  -7   16.36    0.66
  -4   5  -7   17.38    0.66
  -5   5  -7    7.45    0.32
  -5   5  -7    6.98    0.36
  -6   5  -7    1.38    0.14
  -6   5  -7    1.49    0.18
   6  -5   7    1.10    0.22
  -7   5  -7    1.51    0.16
   7  -5   7    1.25    0.21
  -8   5  -7    0.29    0.11
   8  -5   7    0.23    0.11
  -9   5  -7    0.02    0.14
   9  -5   7    0.05    0.12
  10  -5   7    0.48    0.11
  10  -5   7    0.60    0.12
  11  -5   7    0.10    0.06
  12   4  -7    0.14    0.05
  11   4  -7    0.13    0.06
  10   4  -7    0.54    0.13
  10   4  -7    0.83    0.17
   9   4  -7    1.30    0.22
   9   4  -7    1.38    0.16
   9   4  -7    1.09    0.16
   8   4  -7    0.66    0.14
   8   4  -7    0.19    0.13
   8   4  -7    0.24    0.09
   7   4  -7    0.12    0.11
   7   4  -7    0.04    0.09
   7   4  -7    0.03    0.09
   6   4  -7    0.47    0.12
   6   4  -7    0.45    0.11
   6   4  -7    0.48    0.10
  -5  -4   7   67.00    2.45
  -4  -4   7    4.44    0.20
  -3  -4   7    0.06    0.03
  -1  -4   7    5.41    0.22
  -1  -4   7    5.09    0.21
   0  -4   7    4.66    0.19
  -1   4  -7    2.87    0.13
  -1   4  -7    2.69    0.15
   1  -4   7    2.74    0.13
  -2   4  -7    3.54    0.18
  -2   4  -7    3.55    0.16
   2  -4   7    3.38    0.16
  -3   4  -7    1.31    0.10
  -3   4  -7    1.23    0.11
  -4   4  -7    0.52    0.10
  -4   4  -7    0.53    0.08
  -5   4  -7    0.48    0.13
  -5   4  -7    0.36    0.08
  -6   4  -7    0.11    0.07
  -6   4  -7    0.12    0.10
   6  -4   7    0.30    0.14
  -7   4  -7   15.75    0.63
  -8   4  -7   12.30    0.53
   8  -4   7   12.36    0.51
   9  -4   7    1.21    0.18
  10  -4   7    0.04    0.10
  10  -4   7    0.02    0.06
  11  -4   7    3.69    0.19
  12   3  -7    0.23    0.06
  11   3  -7    1.06    0.12
  10   3  -7   -0.14    0.08
  10   3  -7    0.04    0.07
   9   3  -7   11.57    0.49
   9   3  -7   11.61    0.49
   9   3  -7   11.63    0.52
   8   3  -7    0.33    0.10
   8   3  -7    0.09    0.08
   7   3  -7    0.50    0.10
   7   3  -7    0.34    0.10
   7   3  -7    0.33    0.13
   6   3  -7   20.89    0.81
   6   3  -7   20.59    0.82
   6   3  -7   20.87    0.80
  -5  -3   7   15.25    0.59
  -4  -3   7    1.51    0.10
  -3  -3   7    3.62    0.16
  -2  -3   7  144.75    5.21
  -1  -3   7    5.50    0.22
  -1  -3   7    5.69    0.23
   0  -3   7    4.91    0.20
  -1   3  -7   25.38    1.00
  -1   3  -7   30.01    1.07
   1  -3   7   26.97    1.01
  -2   3  -7   -0.02    0.03
  -2   3  -7   -0.08    0.05
   2  -3   7    0.04    0.03
  -3   3  -7    5.88    0.26
  -3   3  -7    5.85    0.27
   3  -3   7    6.76    0.30
  -4   3  -7    0.10    0.06
  -4   3  -7    0.09    0.07
  -5   3  -7    8.66    0.36
  -5   3  -7    8.20    0.39
  -6   3  -7    2.05    0.17
   6  -3   7    1.96    0.25
  -7   3  -7   15.37    0.60
   7  -3   7   14.07    0.63
   8  -3   7    0.27    0.11
   9  -3   7   -0.01    0.08
   9  -3   7   -0.18    0.10
  10  -3   7    3.34    0.20
  11  -3   7    1.33    0.11
  12   2  -7   14.34    0.56
  11   2  -7    0.48    0.11
  10   2  -7    0.89    0.18
  10   2  -7    1.24    0.14
   9   2  -7    1.99    0.28
   9   2  -7    2.56    0.18
   9   2  -7    2.35    0.20
   8   2  -7   63.03    2.37
   8   2  -7   66.08    2.37
   8   2  -7   63.50    2.36
   7   2  -7    0.39    0.11
   7   2  -7    0.63    0.14
   7   2  -7    0.63    0.10
  -5  -2   7   40.52    1.49
   4   2  -7    3.21    0.16
  -4  -2   7    3.51    0.16
  -3  -2   7    4.96    0.22
  -2  -2   7  130.08    4.68
  -1  -2   7   14.06    0.52
  -1  -2   7   13.61    0.52
   0  -2   7    3.04    0.13
  -1   2  -7   57.07    2.16
   1  -2   7   62.22    2.16
  -2   2  -7    0.50    0.10
  -2   2  -7    0.47    0.05
   2  -2   7    0.35    0.06
  -3   2  -7    7.98    0.32
  -3   2  -7    7.71    0.31
   3  -2   7    7.00    0.31
  -4   2  -7   24.41    0.92
  -4   2  -7   24.22    0.92
  -6   2  -7    0.64    0.14
  -7   2  -7    6.53    0.33
   7  -2   7    6.21    0.36
   8  -2   7   36.45    1.37
   9  -2   7    0.10    0.15
   9  -2   7    0.48    0.13
  10  -2   7    0.07    0.06
  11  -2   7    4.07    0.20
  13   1  -7    0.25    0.05
  12   1  -7    4.67    0.22
  11   1  -7    3.05    0.18
  10   1  -7    1.10    0.14
   9   1  -7    0.70    0.14
   9   1  -7    0.57    0.13
   8   1  -7   -0.03    0.09
   8   1  -7   -0.12    0.11
   8   1  -7   -0.16    0.15
   7   1  -7   -0.22    0.12
   7   1  -7   -0.05    0.10
  -6  -1   7    2.29    0.18
  -5  -1   7    9.35    0.35
  -5  -1   7    7.59    0.35
   4   1  -7    0.56    0.07
  -4  -1   7    0.88    0.07
  -3  -1   7    0.03    0.02
  -2  -1   7    1.02    0.06
  -1  -1   7    2.14    0.10
   0  -1   7    1.96    0.09
  -1   1  -7   12.95    0.49
   1  -1   7   12.88    0.49
  -2   1  -7    3.54    0.19
  -2   1  -7    3.74    0.16
   2  -1   7    3.83    0.16
  -3   1  -7    0.88    0.08
  -3   1  -7    0.95    0.11
   3  -1   7    0.84    0.09
  -4   1  -7   32.98    1.24
  -4   1  -7   33.91    1.24
  -5   1  -7    2.21    0.33
  -5   1  -7    1.82    0.16
  -6   1  -7    1.29    0.20
  -6   1  -7    1.23    0.18
  -7   1  -7   20.52    0.80
   8  -1   7    4.95    0.28
   8  -1   7    4.28    0.26
   9  -1   7    0.18    0.08
  10  -1   7    0.61    0.11
  11  -1   7    0.27    0.06
  13   0  -7    0.01    0.05
  12   0  -7    7.26    0.31
  11   0  -7    8.88    0.38
  10   0  -7    0.32    0.08
   9   0  -7   10.80    0.46
   8   0  -7    9.82    0.47
   8   0  -7   10.97    0.45
   7   0  -7    0.42    0.15
   7   0  -7    0.49    0.11
   7   0  -7    0.41    0.16
  -7   0   7    0.40    0.10
  -6   0   7    4.40    0.23
  -6   0   7    4.60    0.22
  -5   0   7    0.04    0.04
  -5   0   7    0.02    0.07
   4   0  -7    5.01    0.21
  -4   0   7    4.72    0.22
  -4   0   7    5.18    0.21
  -3   0   7    0.50    0.05
  -2   0   7  290.39   10.64
  -2   0   7  300.36   10.63
  -1   0   7    2.64    0.12
   0   0  -7    0.90    0.06
   0   0   7    0.84    0.06
  -1   0  -7   13.09    0.50
   1   0   7   13.77    0.50
  -2   0  -7   13.45    0.51
   2   0   7   13.21    0.51
  -3   0  -7    0.04    0.08
  -3   0  -7    0.05    0.03
   3   0   7    0.08    0.06
  -4   0  -7   26.55    0.99
  -4   0  -7   25.87    0.98
  -5   0  -7    8.83    0.39
  -5   0  -7    9.00    0.40
  -6   0  -7    1.73    0.19
  -7   0  -7   66.13    2.39
   7   0   7   61.51    2.39
   7   0   7   68.07    2.42
  -8   0  -7    0.37    0.11
   8   0   7    0.06    0.12
   8   0   7    0.11    0.08
   9   0   7    0.36    0.12
   9   0   7    0.26    0.09
  10   0   7    0.28    0.07
  11   0   7    2.02    0.17
  13  -1  -7    0.37    0.06
  12  -1  -7    4.07    0.20
  11  -1  -7    1.06    0.14
  10  -1  -7    0.72    0.13
   9  -1  -7   13.13    0.54
   8  -1  -7   23.76    0.93
  -8   1   7   24.77    0.93
   7  -1  -7    0.11    0.09
  -7   1   7    0.11    0.08
  -6   1   7    0.63    0.12
  -6   1   7    0.70    0.12
   5  -1  -7   43.75    1.62
  -5   1   7   43.01    1.62
  -5   1   7   45.96    1.62
   4  -1  -7    2.11    0.11
  -4   1   7    2.10    0.11
  -4   1   7    2.11    0.13
  -3   1   7    4.99    0.20
  -2   1   7  100.08    3.79
  -2   1   7  110.57    3.79
  -1   1   7   -0.02    0.02
   0  -1  -7    0.92    0.06
   0   1   7    0.99    0.06
  -1  -1  -7   -0.01    0.02
   1   1   7   -0.01    0.02
  -2  -1  -7    5.07    0.22
   2   1   7    5.30    0.22
  -3  -1  -7    6.15    0.28
  -3  -1  -7    5.97    0.26
  -4  -1  -7   58.31    2.05
  -4  -1  -7   53.66    2.05
  -5  -1  -7    0.20    0.10
   5   1   7    0.04    0.09
  -6  -1  -7    3.97    0.24
   6   1   7    3.71    0.24
   6   1   7    3.20    0.39
  -7  -1  -7   16.34    0.65
   7   1   7   16.81    0.67
   7   1   7   15.30    0.66
  -8  -1  -7    0.31    0.10
   8   1   7    0.74    0.14
   8   1   7    0.17    0.12
   9   1   7    0.79    0.20
  10   1   7    0.17    0.07
  11   1   7    5.09    0.23
  13  -2  -7    0.18    0.05
  12  -2  -7    0.02    0.05
  11  -2  -7    0.13    0.11
  10  -2  -7    1.94    0.17
   9  -2  -7    7.57    0.35
   8  -2  -7   10.26    0.44
  -8   2   7   10.51    0.44
   7  -2  -7    0.08    0.09
  -7   2   7   -0.01    0.06
  -6   2   7    4.15    0.22
  -6   2   7    4.38    0.21
   5  -2  -7    9.20    0.38
  -5   2   7    9.51    0.38
  -5   2   7    9.85    0.38
  -4   2   7    1.13    0.08
  -4   2   7    1.14    0.10
  -3   2   7    4.99    0.22
  -3   2   7    5.05    0.20
  -2   2   7    8.20    0.31
  -1   2   7    0.95    0.06
   0  -2  -7    0.01    0.02
   0   2   7    0.02    0.02
  -1  -2  -7    0.34    0.05
   1   2   7    0.54    0.06
  -2  -2  -7   -0.01    0.03
   2   2   7    0.04    0.04
  -3  -2  -7    1.62    0.12
  -3  -2  -7    1.72    0.18
  -4  -2  -7    2.63    0.18
  -4  -2  -7    2.13    0.19
   4   2   7    2.60    0.22
  -5  -2  -7    0.25    0.10
   5   2   7    0.02    0.08
  -6  -2  -7    1.26    0.17
   6   2   7    1.28    0.25
  -7  -2  -7   30.41    1.14
   7   2   7   27.95    1.15
   7   2   7   32.15    1.17
  -8  -2  -7    0.75    0.14
   8   2   7    0.79    0.14
   8   2   7    0.75    0.13
  -9  -2  -7    0.13    0.08
   9   2   7    0.19    0.16
   9   2   7    0.09    0.07
  10   2   7    0.16    0.07
  11   2   7    0.01    0.05
  13  -3  -7    0.40    0.08
  12  -3  -7    5.16    0.24
  11  -3  -7    0.00    0.07
  10  -3  -7    0.38    0.08
   9  -3  -7   21.24    0.84
  -9   3   7   22.28    0.84
   8  -3  -7   36.78    1.40
  -8   3   7   38.39    1.40
   7  -3  -7   -0.06    0.09
  -7   3   7   -0.01    0.06
  -6   3   7    2.32    0.18
   5  -3  -7  160.49    5.94
  -5   3   7  163.81    5.94
  -5   3   7  170.10    5.94
  -4   3   7    1.60    0.09
  -4   3   7    1.64    0.11
  -3   3   7    0.16    0.03
  -3   3   7    0.31    0.08
  -3   3   7    0.13    0.03
  -2   3   7    7.49    0.33
  -2   3   7    8.20    0.31
  -2   3   7    8.79    0.31
  -1   3   7    1.27    0.07
   0  -3  -7    2.45    0.11
   0   3   7    2.59    0.11
  -1  -3  -7   41.12    1.49
   1   3   7   40.60    1.49
  -2  -3  -7    0.13    0.04
   2   3   7    0.17    0.05
  -3  -3  -7   23.35    0.88
  -4  -3  -7    7.40    0.33
   4   3   7    6.89    0.35
  -5  -3  -7    9.07    0.39
   5   3   7    8.56    0.40
  -6  -3  -7    1.73    0.17
   6   3   7    1.59    0.24
   6   3   7    1.67    0.19
  -7  -3  -7   10.83    0.46
   7   3   7   11.22    0.48
   7   3   7   10.55    0.49
  -8  -3  -7    7.33    0.33
   8   3   7    7.61    0.35
   8   3   7    7.49    0.37
  -9  -3  -7    2.60    0.17
   9   3   7    2.60    0.18
 -10  -3  -7    0.92    0.14
  10   3   7    1.15    0.11
  13  -4  -7    0.77    0.09
  12  -4  -7    0.50    0.10
  11  -4  -7    5.88    0.28
  10  -4  -7    0.26    0.08
 -10   4   7    0.15    0.12
   9  -4  -7   -0.03    0.08
  -9   4   7    0.03    0.09
  -8   4   7   19.25    0.75
  -7   4   7    4.72    0.23
  -6   4   7    0.33    0.07
  -6   4   7    0.67    0.15
  -5   4   7   35.68    1.28
  -5   4   7   33.92    1.29
  -4   4   7    3.25    0.17
  -4   4   7    3.18    0.15
  -3   4   7    0.02    0.03
  -3   4   7    0.03    0.02
  -3   4   7    0.02    0.05
  -2   4   7   28.56    1.07
  -2   4   7   28.84    1.09
  -2   4   7   31.19    1.07
  -1   4   7    0.11    0.03
  -1   4   7    0.13    0.06
  -1   4   7    0.18    0.04
   0   4   7    1.39    0.09
  -1  -4  -7   16.81    0.62
   1   4   7   16.53    0.62
  -2  -4  -7    3.94    0.18
   2   4   7    3.57    0.19
  -3  -4  -7    0.13    0.07
  -3  -4  -7    0.06    0.09
  -4  -4  -7   21.16    0.82
   4   4   7   21.80    0.85
  -5  -4  -7   11.06    0.47
   5   4   7   11.59    0.49
  -6  -4  -7    0.16    0.08
   6   4   7    0.03    0.09
   6   4   7    0.12    0.14
  -7  -4  -7    0.98    0.14
   7   4   7    0.66    0.14
   7   4   7    0.89    0.15
  -8  -4  -7   -0.02    0.06
   8   4   7   -0.08    0.07
   8   4   7    0.10    0.14
  -9  -4  -7    0.82    0.12
   9   4   7    0.59    0.12
 -10  -4  -7    0.00    0.07
  10   4   7    0.00    0.05
  13  -5  -7    0.04    0.05
  12  -5  -7    3.16    0.17
  11  -5  -7    8.71    0.37
  10  -5  -7    3.30    0.20
 -10   5   7    3.01    0.21
   9  -5  -7    1.30    0.15
  -9   5   7    1.33    0.15
  -8   5   7   23.55    0.90
  -7   5   7    0.82    0.11
  -6   5   7    0.08    0.06
  -5   5   7   21.31    0.81
  -5   5   7   20.75    0.80
  -4   5   7    0.02    0.05
  -4   5   7    0.05    0.04
  -4   5   7    0.04    0.06
  -3   5   7    6.68    0.26
  -3   5   7    6.88    0.26
  -3   5   7    7.10    0.29
  -2   5   7   51.41    1.89
  -2   5   7   54.30    1.86
  -2   5   7   49.37    1.86
  -1   5   7    0.50    0.10
  -1   5   7    0.54    0.05
  -1   5   7    0.56    0.04
   0   5   7    0.21    0.08
   0   5   7    0.00    0.03
  -1  -5  -7    0.38    0.08
   1   5   7    0.33    0.10
   1   5   7    0.24    0.05
  -2  -5  -7    3.19    0.18
  -3  -5  -7    0.97    0.17
  -3  -5  -7    1.00    0.15
   3   5   7    0.94    0.21
   3   5   7    0.94    0.18
  -4  -5  -7    3.05    0.19
   4   5   7    2.63    0.25
   4   5   7    2.72    0.22
  -5  -5  -7   16.52    0.62
   5   5   7   15.28    0.64
   5   5   7   14.78    0.65
  -6  -5  -7    0.09    0.08
   6   5   7    0.19    0.14
   6   5   7    0.19    0.10
  -7  -5  -7    0.78    0.13
   7   5   7    1.15    0.16
   7   5   7    1.21    0.22
  -8  -5  -7    3.56    0.20
   8   5   7    3.82    0.27
  -9  -5  -7    0.11    0.06
   9   5   7    0.11    0.07
 -10  -5  -7    0.35    0.07
  10   5   7    0.44    0.09
  13  -6  -7    1.43    0.10
  12  -6  -7    1.21    0.11
  11  -6  -7    0.02    0.06
  10  -6  -7    2.28    0.17
 -10   6   7    1.87    0.18
   9  -6  -7    2.22    0.18
  -9   6   7    2.18    0.17
  -8   6   7   28.96    1.10
  -7   6   7    0.67    0.11
  -6   6   7    0.31    0.07
  -5   6   7  188.21    6.79
  -4   6   7    0.54    0.09
  -3   6   7    0.87    0.10
  -2   6   7  373.20   13.41
  -1   6   7    0.14    0.07
   0   6   7    0.14    0.09
  -1  -6  -7   28.16    1.04
  -2  -6  -7   29.58    1.09
   2   6   7   28.81    1.11
   2   6   7   28.69    1.11
  -3  -6  -7    5.75    0.27
   3   6   7    5.37    0.30
   3   6   7    5.25    0.30
  -4  -6  -7    0.54    0.13
   4   6   7    0.70    0.13
   4   6   7    0.48    0.12
   4   6   7    0.35    0.16
  -5  -6  -7    9.25    0.40
   5   6   7    9.11    0.42
   5   6   7    8.78    0.48
  -6  -6  -7    2.50    0.17
   6   6   7    2.24    0.20
   6   6   7    2.11    0.25
  -7  -6  -7    3.63    0.20
   7   6   7    3.45    0.23
   7   6   7    3.81    0.26
  -8  -6  -7    9.66    0.39
   8   6   7    9.03    0.41
  -9  -6  -7    0.28    0.06
   9   6   7    0.37    0.10
  12  -7  -7    0.61    0.09
  11  -7  -7    0.70    0.11
 -11   7   7    0.43    0.13
  10  -7  -7    0.04    0.07
 -10   7   7   -0.04    0.08
   9  -7  -7   14.12    0.56
  -9   7   7   13.22    0.56
  -8   7   7   39.16    1.47
  -7   7   7    0.03    0.06
  -6   7   7    0.26    0.11
  -6   7   7    0.21    0.06
  -5   7   7    1.16    0.21
  -5   7   7    1.23    0.12
  -4   7   7    0.03    0.06
  -3   7   7    0.88    0.10
  -2   7   7    0.27    0.07
  -1   7   7    0.12    0.07
   0   7   7    0.17    0.09
  -1  -7  -7    1.53    0.31
   1   7   7    1.06    0.21
   1   7   7    1.26    0.19
  -2  -7  -7    2.60    0.19
   2   7   7    2.45    0.21
   2   7   7    2.29    0.21
  -3  -7  -7    0.58    0.10
   3   7   7    0.59    0.12
   3   7   7    1.08    0.25
   3   7   7    0.69    0.13
  -4  -7  -7    3.80    0.22
   4   7   7    3.94    0.28
   4   7   7    3.56    0.25
  -5  -7  -7    0.99    0.14
   5   7   7    0.99    0.17
   5   7   7    0.83    0.14
  -6  -7  -7    0.32    0.08
   6   7   7    0.52    0.12
   6   7   7    0.61    0.14
  -7  -7  -7    1.00    0.13
   7   7   7    1.21    0.21
   7   7   7    1.52    0.15
  -8  -7  -7    0.05    0.05
   8   7   7    0.09    0.07
  -9  -7  -7   -0.02    0.04
   9   7   7    0.10    0.06
  12  -8  -7    5.70    0.25
  11  -8  -7    0.75    0.11
 -11   8   7    0.42    0.11
 -10   8   7   -0.05    0.08
  -9   8   7    8.97    0.40
  -8   8   7    0.19    0.07
  -7   8   7    0.06    0.07
  -6   8   7    1.11    0.12
  -6   8   7    1.21    0.19
   5  -8  -7   57.13    2.19
  -5   8   7   60.85    2.18
  -5   8   7   60.02    2.19
   4  -8  -7    0.28    0.14
  -4   8   7    0.22    0.06
  -4   8   7    0.51    0.13
   3  -8  -7   -0.14    0.12
  -3   8   7    0.16    0.07
  -1   8   7    0.53    0.10
   0   8   7    0.11    0.13
  -1  -8  -7    0.66    0.12
   1   8   7    0.77    0.20
   1   8   7    0.66    0.17
  -2  -8  -7    2.34    0.19
   2   8   7    1.97    0.27
   2   8   7    2.79    0.22
   2   8   7    2.41    0.21
  -3  -8  -7    0.90    0.20
   3   8   7    0.84    0.15
  -4  -8  -7    2.65    0.18
   4   8   7    2.49    0.21
   4   8   7    2.31    0.24
  -5  -8  -7    0.70    0.13
   5   8   7    0.64    0.14
   5   8   7    1.03    0.16
  -6  -8  -7    0.09    0.07
   6   8   7   -0.03    0.11
   6   8   7   -0.03    0.07
  -7  -8  -7    2.02    0.15
   7   8   7    2.14    0.17
  -8  -8  -7    3.99    0.19
   8   8   7    3.83    0.20
  -9  -8  -7   -0.02    0.04
   9   8   7    0.08    0.05
  12  -9  -7    0.06    0.05
  11  -9  -7   12.32    0.50
 -11   9   7   12.86    0.51
  10  -9  -7    0.07    0.06
 -10   9   7    0.01    0.08
  -9   9   7    0.05    0.07
  -8   9   7    0.48    0.11
  -7   9   7    0.54    0.12
  -6   9   7    2.25    0.16
   5  -9  -7    2.82    0.29
  -5   9   7    3.98    0.20
  -5   9   7    3.63    0.24
   4  -9  -7   -0.11    0.12
  -4   9   7   -0.15    0.11
  -4   9   7    0.00    0.06
  -4   9   7    0.05    0.17
   3  -9  -7    0.41    0.12
  -3   9   7    0.34    0.13
  -3   9   7    0.42    0.16
  -3   9   7    0.43    0.11
  -2   9   7    0.36    0.14
  -2   9   7    0.18    0.08
  -2   9   7    0.39    0.15
  -1   9   7    0.21    0.14
  -1   9   7    0.11    0.09
  -1   9   7    0.09    0.12
   0  -9  -7    0.09    0.13
   0   9   7   -0.05    0.14
   0   9   7   -0.12    0.11
  -1  -9  -7   13.83    0.57
   1   9   7   13.32    0.59
   1   9   7   14.21    0.59
  -2  -9  -7   18.34    0.72
   2   9   7   18.41    0.74
  -3  -9  -7    0.05    0.08
   3   9   7    0.12    0.10
   3   9   7    0.26    0.13
  -4  -9  -7    1.80    0.16
   4   9   7    1.43    0.19
   4   9   7    1.66    0.23
  -5  -9  -7   10.08    0.43
   5   9   7   10.00    0.45
   5   9   7    9.80    0.45
  -6  -9  -7    1.23    0.18
   6   9   7    1.33    0.21
   6   9   7    1.75    0.25
  -7  -9  -7    5.84    0.26
   7   9   7    5.89    0.28
  -8  -9  -7    1.06    0.09
   8   9   7    0.94    0.10
  12 -10  -7    1.26    0.10
  11 -10  -7   -0.01    0.06
 -11  10   7    0.20    0.09
  10 -10  -7    0.13    0.07
 -10  10   7    0.30    0.08
  -9  10   7    0.67    0.12
  -8  10   7    1.87    0.15
  -7  10   7    0.23    0.08
  -6  10   7    0.02    0.07
  -6  10   7    0.10    0.25
  -6  10   7   -0.05    0.09
   5 -10  -7   43.64    1.69
  -5  10   7   45.20    1.70
  -5  10   7   46.70    1.68
   4 -10  -7    0.62    0.13
  -4  10   7    0.61    0.12
  -4  10   7    0.40    0.16
  -4  10   7    0.38    0.11
   3 -10  -7   -0.11    0.11
  -3  10   7    0.06    0.07
  -3  10   7    0.07    0.11
  -3  10   7    0.06    0.14
  -2  10   7    0.32    0.13
  -2  10   7    0.41    0.09
  -2  10   7    0.65    0.15
  -1  10   7    0.78    0.14
  -1  10   7    0.62    0.14
   0  10   7    0.02    0.11
   0  10   7   -0.03    0.09
  -1 -10  -7    7.82    0.38
   1  10   7    8.93    0.40
   1  10   7    8.02    0.40
  -2 -10  -7    0.65    0.16
   2  10   7    0.46    0.12
   2  10   7    0.83    0.21
  -3 -10  -7    2.89    0.20
   3  10   7    2.79    0.25
   3  10   7    2.66    0.23
  -4 -10  -7    0.20    0.08
   4  10   7    0.32    0.13
   4  10   7    0.27    0.11
  -5 -10  -7    1.17    0.13
   5  10   7    0.75    0.15
   5  10   7    0.68    0.20
  -6 -10  -7    0.17    0.06
   6  10   7    0.12    0.13
   6  10   7   -0.01    0.08
  -7 -10  -7    0.12    0.05
   7  10   7    0.06    0.06
  -8 -10  -7    0.36    0.07
   8  10   7    0.31    0.06
  11 -11  -7    1.99    0.12
 -11  11   7    1.88    0.17
  10 -11  -7    2.25    0.15
 -10  11   7    2.24    0.19
  -9  11   7    8.74    0.38
  -8  11   7    1.30    0.14
  -7  11   7    2.79    0.18
  -6  11   7   14.75    0.64
  -6  11   7   15.84    0.62
   5 -11  -7   69.75    2.68
  -5  11   7   71.29    2.68
  -5  11   7   76.83    2.69
  -5  11   7   74.20    2.69
   4 -11  -7    0.09    0.12
  -4  11   7    0.13    0.07
  -4  11   7    0.04    0.10
  -4  11   7    0.20    0.13
   3 -11  -7    0.17    0.12
  -3  11   7    0.20    0.09
  -2  11   7  100.23    3.63
  -2  11   7   98.59    3.62
  -1  11   7    1.44    0.20
   0  11   7    2.30    0.21
   0  11   7    2.08    0.22
  -1 -11  -7    7.19    0.35
   1  11   7    6.99    0.36
   1  11   7    7.14    0.36
  -2 -11  -7   10.02    0.44
   2  11   7    9.96    0.46
   2  11   7   10.30    0.46
  -3 -11  -7    0.11    0.08
   3  11   7   -0.04    0.09
   3  11   7    0.12    0.12
  -4 -11  -7    1.05    0.14
   4  11   7    1.02    0.20
   4  11   7    0.94    0.15
  -5 -11  -7    3.69    0.19
   5  11   7    3.48    0.25
   5  11   7    3.28    0.21
  -6 -11  -7    2.92    0.16
   6  11   7    2.77    0.17
  -7 -11  -7    3.07    0.15
   7  11   7    3.03    0.16
  11 -12  -7    0.02    0.05
  10 -12  -7    0.55    0.10
 -10  12   7    0.54    0.12
  -9  12   7    1.89    0.15
  -8  12   7    3.24    0.19
  -7  12   7    0.11    0.08
  -6  12   7    6.30    0.35
  -6  12   7    6.84    0.32
  -6  12   7    6.38    0.31
  -5  12   7    1.62    0.15
  -5  12   7    1.39    0.17
  -5  12   7    1.57    0.23
   4 -12  -7    0.28    0.12
  -4  12   7    0.39    0.10
  -4  12   7    0.28    0.10
  -4  12   7    0.84    0.21
   3 -12  -7    1.33    0.18
  -3  12   7    1.45    0.20
  -3  12   7    1.70    0.17
  -3  12   7    1.59    0.20
  -2  12   7    3.85    0.26
  -2  12   7    3.66    0.24
  -1  12   7    3.80    0.25
  -1  12   7    3.62    0.25
   0  12   7    3.21    0.23
   0  12   7    3.09    0.24
  -1 -12  -7   73.33    2.75
   1  12   7   77.76    2.78
   1  12   7   74.57    2.76
  -2 -12  -7    2.70    0.20
   2  12   7    2.92    0.22
   2  12   7    2.65    0.23
  -3 -12  -7    0.60    0.14
   3  12   7    0.66    0.15
   3  12   7    0.28    0.11
  -4 -12  -7    0.72    0.12
   4  12   7    0.92    0.14
   4  12   7    0.87    0.19
  -5 -12  -7    4.25    0.21
   5  12   7    3.98    0.22
  -6 -12  -7    0.00    0.07
  -6 -12  -7    0.01    0.05
   6  12   7    0.10    0.06
  10 -13  -7    0.15    0.06
 -10  13   7    0.14    0.08
  -9  13   7    1.02    0.13
  -8  13   7    0.62    0.13
  -7  13   7    0.40    0.09
  -6  13   7   -0.06    0.08
  -6  13   7   -0.10    0.08
  -6  13   7    0.08    0.13
  -5  13   7    1.83    0.18
  -5  13   7    1.81    0.17
  -5  13   7    2.11    0.21
   4 -13  -7    1.30    0.20
  -4  13   7    1.28    0.20
  -4  13   7    1.66    0.19
  -4  13   7    1.20    0.17
   3 -13  -7    2.42    0.20
  -3  13   7    2.46    0.21
  -3  13   7    1.76    0.20
  -3  13   7    1.99    0.21
  -2  13   7    1.04    0.18
  -2  13   7    0.69    0.18
  -1  13   7    1.41    0.19
  -1  13   7    1.40    0.19
   0  13   7    1.38    0.19
   0  13   7    1.43    0.18
   1  13   7    3.25    0.22
   1  13   7    2.60    0.23
  -2 -13  -7    3.36    0.26
   2  13   7    3.68    0.23
  -3 -13  -7    0.07    0.08
   3  13   7    0.09    0.10
   3  13   7   -0.04    0.07
  -4 -13  -7    4.20    0.21
   4  13   7    4.11    0.25
   4  13   7    4.38    0.23
  -5 -13  -7    1.30    0.11
   5  13   7    1.18    0.11
  -6 -13  -7    0.67    0.17
   6  13   7    0.62    0.09
  10 -14  -7    0.30    0.06
   9 -14  -7    1.79    0.12
  -9  14   7    1.64    0.14
  -8  14   7    4.23    0.22
  -7  14   7    0.34    0.09
  -6  14   7    1.36    0.21
  -6  14   7    1.14    0.15
  -6  14   7    0.98    0.15
  -5  14   7    0.35    0.10
  -5  14   7    0.20    0.10
   4 -14  -7    1.53    0.20
  -4  14   7    1.21    0.18
  -4  14   7    1.42    0.17
  -4  14   7    1.26    0.20
   3 -14  -7    0.01    0.10
  -3  14   7    0.21    0.11
   2 -14  -7    1.09    0.16
  -2  14   7    0.61    0.16
  -2  14   7    1.13    0.18
  -1  14   7    0.05    0.09
  -1  14   7    0.12    0.10
   0  14   7    2.26    0.20
   0  14   7    2.53    0.20
   1  14   7   12.03    0.50
   2  14   7    2.09    0.19
   2  14   7    2.25    0.18
  -3 -14  -7    0.22    0.10
   3  14   7    0.28    0.10
   3  14   7    0.22    0.08
  -4 -14  -7    6.65    0.29
   4  14   7    6.61    0.29
  -5 -14  -7    9.95    0.39
  -5 -14  -7    9.49    0.39
   5  14   7    9.89    0.39
   9 -15  -7    1.13    0.10
  -8  15   7    4.79    0.25
  -7  15   7    0.31    0.10
  -6  15   7    1.91    0.20
  -6  15   7    2.16    0.16
  -6  15   7    2.13    0.20
  -5  15   7    0.63    0.14
  -5  15   7    0.45    0.11
   4 -15  -7    0.49    0.12
  -4  15   7    0.59    0.14
  -4  15   7    0.60    0.16
   3 -15  -7    0.42    0.10
  -3  15   7    0.25    0.09
  -3  15   7    0.38    0.10
   2 -15  -7    4.14    0.23
  -2  15   7    3.97    0.24
  -2  15   7    4.12    0.24
   1 -15  -7    0.05    0.07
  -1  15   7   -0.03    0.09
  -1  15   7   -0.07    0.08
   0  15   7    0.34    0.09
   0  15   7    0.52    0.10
   1  15   7    0.36    0.08
   1  15   7    0.19    0.10
   2  15   7    1.56    0.18
   2  15   7    1.51    0.14
  -3 -15  -7    0.38    0.09
   3  15   7    0.27    0.07
  -4 -15  -7    3.23    0.16
   4  15   7    2.99    0.16
  -5  16   7    0.56    0.13
  -5  16   7    0.84    0.15
  -4  16   7   -0.19    0.08
  -4  16   7    0.15    0.08
   3 -16  -7   -0.04    0.09
  -3  16   7   -0.04    0.08
  -3  16   7   -0.01    0.08
   2 -16  -7    2.73    0.18
  -2  16   7    3.08    0.19
  -2  16   7    2.86    0.19
   1 -16  -7   -0.04    0.07
  -1  16   7   -0.03    0.09
  -1  16   7    0.06    0.08
   0 -16  -7   -0.02    0.06
   0  16   7    0.07    0.07
   0  16   7   -0.04    0.09
  -1 -16  -7   19.72    0.73
   1  16   7   18.93    0.73
   1  16   7   18.51    0.73
  -2 -16  -7    1.68    0.12
   2  16   7    1.65    0.12
  -3 -16  -7    0.35    0.07
   3  16   7    0.17    0.06
  -5  17   7    1.72    0.18
  -4  17   7   -0.15    0.08
  -3  17   7    0.03    0.07
  -3  17   7    0.09    0.08
   2 -17  -7    1.33    0.15
  -2  17   7    1.26    0.13
   1 -17  -7   -0.01    0.06
  -1  17   7    0.02    0.07
  -1  17   7    0.03    0.09
   0 -17  -7    1.42    0.12
   0  17   7    1.39    0.12
  -1 -17  -7    2.39    0.13
   1  17   7    2.29    0.14
  -3  18   7    0.49    0.13
  -2  18   7    0.54    0.12
  -1  18   7    0.57    0.11
   1  19  -8    4.46    0.22
   0  19  -8    0.21    0.08
  -1  19  -8    1.65    0.15
  -2  19  -8    0.20    0.07
  -2  19  -8    0.23    0.08
  -3  19  -8    0.24    0.07
   3  18  -8    0.01    0.07
   2  18  -8    0.87    0.12
   1  18  -8    0.48    0.11
   1  18  -8    0.46    0.10
   0  18  -8    1.23    0.12
   0  18  -8    1.08    0.16
  -1  18  -8    0.33    0.08
  -1  18  -8    0.12    0.07
  -2  18  -8    2.74    0.17
  -3  18  -8    0.54    0.12
  -3  18  -8    0.57    0.10
  -4  18  -8    0.14    0.06
  -5  18  -8    2.02    0.13
   5  17  -8    0.61    0.10
   5  17  -8    0.65    0.10
   4  17  -8    0.13    0.06
   4  17  -8    0.03    0.06
   3  17  -8    0.08    0.07
   3  17  -8    0.26    0.08
   2  17  -8    2.66    0.20
   2  17  -8    3.22    0.20
   2  17  -8    3.08    0.18
   1  17  -8    1.08    0.15
   1  17  -8    0.84    0.13
   0  17  -8    0.37    0.08
   0  17  -8    0.32    0.09
  -1  17  -8    0.10    0.08
  -1  17  -8   -0.01    0.07
  -2  17  -8    7.07    0.32
  -2  17  -8    6.95    0.32
  -3  17  -8    0.21    0.08
  -3  17  -8    0.22    0.07
  -4  17  -8    0.09    0.08
  -4  17  -8    0.08    0.07
  -5  17  -8    1.45    0.12
  -6  17  -8    1.70    0.13
   6  16  -8    0.03    0.05
   6  16  -8    0.15    0.06
   5  16  -8    1.30    0.12
   5  16  -8    1.16    0.11
   4  16  -8    1.30    0.14
   4  16  -8    1.07    0.12
   3  16  -8    0.11    0.08
   3  16  -8   -0.05    0.18
   3  16  -8    0.06    0.07
   2  16  -8    0.16    0.11
   2  16  -8    0.10    0.10
   2  16  -8    0.16    0.08
   1  16  -8   18.94    0.73
   1  16  -8   18.40    0.74
   1  16  -8   18.66    0.74
   0  16  -8    0.11    0.09
   0  16  -8    0.09    0.08
  -1  16  -8    0.15    0.08
  -1  16  -8    0.21    0.09
  -2  16  -8   11.05    0.46
  -2  16  -8   10.64    0.45
  -3  16  -8    1.37    0.15
  -3  16  -8    1.29    0.15
  -4  16  -8    0.09    0.12
  -4  16  -8   -0.03    0.07
  -4  16  -8    0.04    0.08
  -5  16  -8    6.06    0.30
  -5  16  -8    5.77    0.27
  -6  16  -8    4.00    0.22
  -6  16  -8    3.33    0.19
  -7  16  -8    0.02    0.05
   7  15  -8    3.14    0.16
   7  15  -8    3.31    0.16
   6  15  -8    0.04    0.06
   6  15  -8    0.06    0.06
   5  15  -8    0.05    0.07
   5  15  -8    0.06    0.07
   4  15  -8    1.77    0.16
   4  15  -8    1.82    0.15
   3  15  -8    0.16    0.07
   3  15  -8    0.37    0.13
   3  15  -8    0.22    0.09
   2  15  -8    2.41    0.18
   2  15  -8    1.78    0.21
   1  15  -8    1.60    0.23
   1  15  -8    1.69    0.17
   1  15  -8    1.60    0.20
   0  15  -8    0.67    0.17
   0  15  -8    0.49    0.10
  -1  15  -8    0.46    0.10
  -1  15  -8    0.40    0.10
  -2  15  -8    1.89    0.17
  -2  15  -8    1.91    0.18
  -3  15  -8    0.74    0.14
  -3  15  -8    1.06    0.16
  -3  15  -8    0.73    0.19
  -4  15  -8    0.50    0.11
  -4  15  -8    0.66    0.16
  -5  15  -8    2.10    0.18
  -5  15  -8    1.83    0.18
  -5  15  -8    2.18    0.16
  -6  15  -8    0.01    0.08
  -6  15  -8    0.01    0.06
  -7  15  -8    0.06    0.06
  -7  15  -8    0.05    0.08
  -8  15  -8    2.97    0.19
   7  14  -8    1.31    0.11
   7  14  -8    1.23    0.11
   6  14  -8    0.09    0.07
   6  14  -8    0.15    0.07
   5  14  -8    0.23    0.08
   5  14  -8    0.11    0.07
   5  14  -8    0.28    0.08
   4  14  -8    4.02    0.24
   4  14  -8    4.65    0.28
   3  14  -8    0.30    0.11
   3  14  -8    0.36    0.14
   3  14  -8    0.68    0.15
   3  14  -8    0.48    0.12
   2  14  -8    0.24    0.13
   2  14  -8    0.42    0.10
   2  14  -8   -0.01    0.11
   1  14  -8   13.62    0.58
   1  14  -8   13.23    0.59
   1  14  -8   13.96    0.56
   0  14  -8    2.44    0.22
   0  14  -8    2.37    0.19
  -1  14  -8    0.51    0.12
  -1  14  -8    0.58    0.11
  -2  14  -8    6.99    0.32
  -2  14  -8    5.90    0.31
  -2  14  -8    5.37    0.32
  -3  14  -8    0.19    0.10
  -3  14  -8    0.13    0.11
  -3  14  -8    0.14    0.10
  -4  14  -8    0.00    0.09
  -4  14  -8    0.10    0.09
  -4  14  -8    0.11    0.10
  -5  14  -8    0.04    0.08
  -5  14  -8   -0.01    0.10
  -5  14  -8   -0.11    0.07
  -6  14  -8    0.06    0.09
  -6  14  -8    0.12    0.07
  -7  14  -8    0.10    0.07
  -7  14  -8    0.11    0.10
  -8  14  -8    0.19    0.06
  -8  14  -8    0.05    0.07
   8  13  -8    0.83    0.10
   7  13  -8    7.90    0.34
   7  13  -8    7.95    0.35
   6  13  -8    1.40    0.14
   6  13  -8    1.29    0.15
   6  13  -8    1.36    0.13
   5  13  -8    0.27    0.09
   5  13  -8    0.56    0.13
   5  13  -8    0.11    0.10
   4  13  -8    1.87    0.18
   4  13  -8    1.69    0.19
   4  13  -8    1.65    0.18
   3  13  -8    4.17    0.24
   3  13  -8    4.21    0.26
   3  13  -8    4.04    0.29
   3  13  -8    4.05    0.26
   2  13  -8    0.14    0.10
   2  13  -8    0.30    0.14
   2  13  -8    0.16    0.12
   1  13  -8    2.35    0.23
   1  13  -8    1.76    0.25
   1  13  -8    1.72    0.18
   0  13  -8    0.11    0.12
   0  13  -8    0.11    0.10
  -1  13  -8    0.52    0.12
  -1  13  -8    0.50    0.11
  -2  13  -8    3.26    0.23
  -2  13  -8    3.20    0.22
  -2  13  -8    3.04    0.23
  -3  13  -8    1.37    0.18
  -3  13  -8    1.35    0.19
  -3  13  -8    1.46    0.16
  -4  13  -8   -0.06    0.10
  -4  13  -8    0.07    0.09
  -4  13  -8    0.09    0.09
  -5  13  -8   86.84    3.34
  -5  13  -8   95.43    3.34
  -5  13  -8   91.38    3.32
  -6  13  -8    2.36    0.18
  -6  13  -8    2.62    0.19
  -7  13  -8    0.00    0.08
  -7  13  -8   -0.08    0.07
  -8  13  -8    1.73    0.14
  -8  13  -8    1.55    0.13
   8 -13   8    1.49    0.16
   9  12  -8    0.14    0.06
   9  12  -8    0.12    0.06
   8  12  -8    0.02    0.06
   8  12  -8    0.00    0.06
   7  12  -8    1.77    0.14
   7  12  -8    2.18    0.16
   7  12  -8    1.80    0.15
   6  12  -8    0.18    0.08
   6  12  -8    0.06    0.08
   6  12  -8    0.06    0.08
   5  12  -8    0.18    0.09
   5  12  -8   -0.02    0.08
   5  12  -8    0.23    0.10
   4  12  -8    4.46    0.25
   4  12  -8    4.16    0.27
   4  12  -8    4.23    0.25
   3  12  -8    1.61    0.20
   3  12  -8    1.55    0.18
   3  12  -8    1.44    0.20
   3  12  -8    1.42    0.25
   2  12  -8    2.50    0.26
   2  12  -8    2.62    0.22
   2  12  -8    2.63    0.24
   2  12  -8    2.95    0.24
   1  12  -8    6.80    0.38
   1  12  -8    6.98    0.34
   1  12  -8    7.04    0.37
   0  12  -8    0.39    0.11
   0  12  -8    0.31    0.13
  -1  12  -8    0.24    0.11
  -1  12  -8    0.25    0.11
  -1  12  -8    0.23    0.11
  -2  12  -8    7.31    0.35
  -2  12  -8    7.24    0.36
  -2  12  -8    7.21    0.34
  -3  12  -8    3.10    0.24
  -3  12  -8    3.09    0.20
  -3  12  -8    2.86    0.22
  -4  12  -8    0.96    0.16
  -4  12  -8    0.62    0.12
  -4  12  -8    0.99    0.18
  -5  12  -8    1.12    0.14
  -5  12  -8    1.63    0.19
  -5  12  -8    0.82    0.15
  -6  12  -8    5.33    0.28
  -6  12  -8    5.70    0.29
  -7  12  -8   -0.03    0.07
  -8  12  -8   24.17    0.92
  -8  12  -8   23.65    0.91
   8 -12   8   23.65    0.90
  -9  12  -8    0.15    0.08
   9  11  -8    0.05    0.06
   9  11  -8    0.16    0.06
   8  11  -8    5.78    0.26
   8  11  -8    5.37    0.27
   8  11  -8    5.63    0.26
   7  11  -8    0.96    0.20
   7  11  -8    0.38    0.12
   6  11  -8    0.44    0.10
   6  11  -8    0.69    0.13
   6  11  -8    0.55    0.12
   5  11  -8    1.00    0.16
   5  11  -8    1.22    0.18
   5  11  -8    1.24    0.15
   4  11  -8   25.42    0.99
   4  11  -8   25.49    0.99
   4  11  -8   26.46    1.01
   3  11  -8    0.14    0.10
   3  11  -8    0.11    0.10
   3  11  -8    0.10    0.11
   2  11  -8    1.03    0.19
   2  11  -8    0.98    0.18
   2  11  -8    0.85    0.20
   2  11  -8    1.08    0.24
   1  11  -8   17.68    0.72
   1  11  -8   18.11    0.74
   1  11  -8   18.24    0.74
   0  11  -8    1.04    0.22
   0  11  -8    0.87    0.12
   0  11  -8    0.96    0.19
  -1  11  -8   -0.03    0.09
  -1  11  -8    0.01    0.11
  -1  11  -8   -0.07    0.12
  -2  11  -8    3.75    0.27
  -2  11  -8    3.90    0.21
  -2  11  -8    3.61    0.24
  -3  11  -8    0.20    0.11
  -3  11  -8    0.18    0.12
  -3  11  -8    0.05    0.08
  -4  11  -8    0.11    0.10
  -4  11  -8   -0.07    0.12
  -4  11  -8    0.03    0.08
  -5  11  -8    8.28    0.40
  -5  11  -8    9.26    0.41
  -6  11  -8   -0.04    0.06
  -6  11  -8    0.12    0.08
  -7  11  -8    0.61    0.14
  -7  11  -8    0.72    0.13
  -8  11  -8    8.92    0.39
  -8  11  -8    8.60    0.39
   8 -11   8    9.22    0.39
  -9  11  -8    0.62    0.13
  10  10  -8    0.32    0.06
  10  10  -8    0.41    0.09
   9  10  -8    1.48    0.14
   9  10  -8    1.49    0.13
   9  10  -8    1.38    0.11
   8  10  -8    0.01    0.06
   8  10  -8    0.04    0.08
   8  10  -8    0.07    0.07
   7  10  -8   32.96    1.26
   7  10  -8   33.14    1.25
   7  10  -8   32.69    1.24
   6  10  -8    0.43    0.10
   6  10  -8    0.36    0.10
   6  10  -8    0.71    0.16
   5  10  -8    5.14    0.27
   5  10  -8    5.33    0.28
   5  10  -8    4.93    0.29
   4  10  -8    5.99    0.31
   4  10  -8    5.73    0.30
   4  10  -8    6.72    0.33
   3  10  -8    2.27    0.20
   3  10  -8    1.86    0.19
   3  10  -8    2.01    0.20
   2  10  -8    0.64    0.12
   2  10  -8    0.65    0.14
   2  10  -8    0.62    0.13
   1  10  -8    0.31    0.13
   1  10  -8    0.31    0.16
   1  10  -8    0.73    0.16
   1  10  -8    0.54    0.17
   0  10  -8    0.90    0.22
   0  10  -8    0.87    0.16
   0  10  -8    0.83    0.16
  -1  10  -8    0.48    0.13
  -1  10  -8    0.44    0.14
  -1  10  -8    0.47    0.09
  -2  10  -8    2.14    0.21
  -2  10  -8    2.36    0.16
  -2  10  -8    1.74    0.26
  -3  10  -8    0.80    0.18
  -3  10  -8    0.73    0.15
  -3  10  -8    0.74    0.12
  -4  10  -8    1.98    0.16
  -4  10  -8    1.80    0.18
  -4  10  -8    1.73    0.23
  -5  10  -8   47.38    1.69
  -5  10  -8   45.95    1.70
  -5  10  -8   42.56    1.68
  -6  10  -8    3.98    0.24
  -6  10  -8    4.37    0.25
  -7  10  -8    0.08    0.08
  -7  10  -8    0.07    0.09
  -8  10  -8    1.30    0.15
   8 -10   8    1.37    0.17
  -9  10  -8   14.08    0.57
  10   9  -8    1.77    0.17
  10   9  -8    1.80    0.12
   9   9  -8    0.27    0.07
   9   9  -8    0.33    0.07
   9   9  -8    0.30    0.09
   8   9  -8    6.39    0.32
   8   9  -8    6.89    0.32
   8   9  -8    6.47    0.30
   7   9  -8   25.55    0.97
   7   9  -8   25.26    0.99
   7   9  -8   25.04    0.98
   6   9  -8    1.43    0.18
   6   9  -8    1.66    0.16
   6   9  -8    1.71    0.18
   5   9  -8   10.12    0.45
   5   9  -8   11.23    0.46
   5   9  -8   10.08    0.47
   4   9  -8   18.35    0.73
   4   9  -8   17.90    0.72
   4   9  -8   18.05    0.71
   3   9  -8    0.65    0.12
   3   9  -8    0.45    0.12
   3   9  -8    0.71    0.16
   2   9  -8    5.36    0.29
   2   9  -8    5.29    0.32
   2   9  -8    5.03    0.30
  -2  -9   8    4.78    0.29
   1   9  -8    0.08    0.16
  -1  -9   8    0.20    0.10
   0   9  -8    0.62    0.14
   0  -9   8    0.63    0.15
  -1   9  -8    4.36    0.31
  -1   9  -8    5.19    0.24
   1  -9   8    4.94    0.26
  -2   9  -8    2.96    0.17
  -2   9  -8    2.79    0.23
  -3   9  -8    0.89    0.19
  -3   9  -8    1.05    0.26
  -3   9  -8    0.76    0.12
  -4   9  -8    1.77    0.26
  -4   9  -8    2.15    0.16
  -4   9  -8    1.81    0.19
  -5   9  -8    0.29    0.10
  -5   9  -8    0.44    0.09
  -6   9  -8    0.12    0.09
  -6   9  -8    0.20    0.08
  -7   9  -8    1.22    0.15
  -7   9  -8    1.14    0.17
  -8   9  -8    0.80    0.14
  -8   9  -8    0.47    0.10
   8  -9   8    1.18    0.25
  -9   9  -8    0.75    0.14
  11   8  -8   15.10    0.57
  10   8  -8    0.06    0.06
  10   8  -8    0.03    0.09
   9   8  -8   -0.02    0.06
   9   8  -8    0.09    0.09
   9   8  -8    0.00    0.06
   8   8  -8   15.31    0.62
   8   8  -8   15.15    0.63
   8   8  -8   15.51    0.61
   7   8  -8   44.21    1.65
   7   8  -8   43.72    1.64
   7   8  -8   44.33    1.66
   6   8  -8    1.85    0.19
   6   8  -8    1.59    0.19
   6   8  -8    1.76    0.16
   5   8  -8    3.77    0.25
   5   8  -8    4.04    0.23
   5   8  -8    3.83    0.25
   4   8  -8   21.42    0.82
   4   8  -8   20.96    0.83
   4   8  -8   20.68    0.82
   3   8  -8    1.39    0.18
   3   8  -8    1.29    0.20
   3   8  -8    1.23    0.16
   2   8  -8    0.20    0.17
  -2  -8   8    0.23    0.08
   1   8  -8    3.98    0.23
  -1  -8   8    4.49    0.22
   0   8  -8    0.47    0.12
   0  -8   8    0.46    0.11
  -1   8  -8    2.55    0.16
   1  -8   8    2.61    0.17
  -2   8  -8    0.33    0.08
  -3   8  -8    0.15    0.07
  -3   8  -8    0.24    0.12
  -4   8  -8    1.10    0.18
  -4   8  -8    1.14    0.13
  -5   8  -8    2.71    0.18
  -5   8  -8    2.99    0.21
  -6   8  -8    0.58    0.12
  -6   8  -8    0.54    0.10
  -7   8  -8   -0.07    0.09
  -7   8  -8    0.01    0.08
   7  -8   8    0.18    0.12
  -8   8  -8    2.88    0.20
   8  -8   8    2.93    0.22
  -9   8  -8    1.74    0.17
  11  -8   8    0.11    0.05
  11   7  -8    0.84    0.10
  10   7  -8    1.59    0.13
  10   7  -8    1.78    0.18
  10   7  -8    1.53    0.14
   9   7  -8    0.22    0.08
   9   7  -8    0.15    0.07
   9   7  -8    0.24    0.15
   8   7  -8    6.80    0.35
   8   7  -8    7.38    0.34
   8   7  -8    7.31    0.33
   7   7  -8    2.18    0.20
   7   7  -8    2.45    0.18
   7   7  -8    2.11    0.21
   6   7  -8    2.69    0.27
   6   7  -8    2.97    0.19
   5   7  -8    0.07    0.11
   5   7  -8    0.25    0.11
   5   7  -8    0.29    0.08
   4   7  -8   33.82    1.32
   4   7  -8   35.97    1.33
   4   7  -8   35.80    1.32
   3   7  -8    0.23    0.13
   3   7  -8    0.51    0.12
  -3  -7   8    0.28    0.08
  -2  -7   8    0.53    0.11
  -1  -7   8    0.58    0.09
   0   7  -8    0.44    0.11
   0  -7   8    0.77    0.12
   0  -7   8    0.36    0.06
  -1   7  -8    4.10    0.20
  -2   7  -8    0.46    0.10
  -3   7  -8    3.44    0.19
  -3   7  -8    3.68    0.25
  -4   7  -8    0.91    0.19
  -4   7  -8    1.08    0.12
  -5   7  -8    2.07    0.19
  -5   7  -8    1.44    0.14
  -6   7  -8    5.95    0.29
  -6   7  -8    5.78    0.31
  -7   7  -8    0.70    0.16
   7  -7   8    0.58    0.13
  -8   7  -8    6.08    0.31
   8  -7   8    6.28    0.32
  -9   7  -8   -0.01    0.10
  10  -7   8    0.13    0.06
  11  -7   8    0.84    0.09
  11   6  -8    1.75    0.13
  10   6  -8    2.74    0.18
  10   6  -8    2.85    0.22
  10   6  -8    2.86    0.17
   9   6  -8    0.26    0.11
   9   6  -8    0.30    0.08
   9   6  -8    0.21    0.08
   8   6  -8    0.05    0.08
   8   6  -8    0.19    0.10
   8   6  -8    0.03    0.09
   7   6  -8   44.73    1.69
   7   6  -8   45.30    1.69
   7   6  -8   46.29    1.71
   6   6  -8    0.02    0.10
   6   6  -8    0.11    0.08
   6   6  -8    0.18    0.11
   5   6  -8    2.06    0.22
   5   6  -8    2.04    0.20
   5   6  -8    1.78    0.17
   4   6  -8   16.94    0.72
  -4  -6   8   20.46    0.78
  -3  -6   8    0.01    0.05
   2   6  -8    0.67    0.15
  -2  -6   8    0.62    0.09
   1   6  -8   10.95    0.46
  -1  -6   8   12.02    0.45
  -1  -6   8   11.47    0.45
   0   6  -8    0.60    0.11
   0  -6   8    0.58    0.09
   0  -6   8    0.46    0.07
  -1   6  -8    0.19    0.06
   1  -6   8    0.10    0.06
  -2   6  -8    0.80    0.10
  -3   6  -8    5.21    0.26
  -3   6  -8    5.43    0.25
  -4   6  -8    0.73    0.13
  -4   6  -8    0.75    0.11
  -5   6  -8    3.48    0.24
  -5   6  -8    3.83    0.21
  -6   6  -8    6.50    0.33
  -6   6  -8    6.60    0.31
  -7   6  -8   -0.05    0.09
   7  -6   8    0.09    0.13
  -8   6  -8    4.01    0.23
   8  -6   8    3.90    0.26
  -9   6  -8    0.88    0.19
  10  -6   8    0.17    0.06
  11  -6   8    0.18    0.06
  12   5  -8    2.40    0.14
  11   5  -8   15.23    0.59
  10   5  -8    1.24    0.14
  10   5  -8    1.62    0.21
  10   5  -8    1.27    0.14
   9   5  -8    1.39    0.20
   9   5  -8    0.97    0.14
   9   5  -8    1.44    0.15
   8   5  -8   28.30    1.07
   8   5  -8   28.32    1.08
   8   5  -8   27.98    1.09
   6   5  -8    0.88    0.15
   6   5  -8    0.88    0.18
   6   5  -8    0.78    0.19
   5   5  -8    1.47    0.16
   5   5  -8    1.41    0.19
   5   5  -8    1.33    0.22
  -4  -5   8  116.74    4.23
  -3  -5   8    0.06    0.05
  -2  -5   8    4.72    0.23
  -2  -5   8    5.27    0.22
   1   5  -8   35.44    1.39
  -1  -5   8   39.13    1.38
  -1  -5   8   38.68    1.39
   0   5  -8    0.82    0.11
   0  -5   8    0.84    0.08
  -1   5  -8    1.36    0.12
   1  -5   8    1.54    0.11
  -2   5  -8    8.01    0.35
  -2   5  -8    8.97    0.35
  -3   5  -8   10.70    0.42
  -3   5  -8   10.16    0.42
  -4   5  -8    5.55    0.31
  -4   5  -8    5.83    0.26
  -5   5  -8    6.42    0.29
  -5   5  -8    6.49    0.33
  -6   5  -8    0.91    0.13
  -7   5  -8    1.12    0.15
   7  -5   8    1.06    0.17
  -8   5  -8    9.55    0.42
   8  -5   8    9.24    0.42
  10  -5   8    0.15    0.06
  11  -5   8    0.46    0.12
  11   4  -8    2.45    0.16
  10   4  -8    0.89    0.21
  10   4  -8    0.92    0.13
   9   4  -8    0.15    0.09
   9   4  -8    0.32    0.12
   9   4  -8    0.27    0.09
   8   4  -8    2.48    0.20
   8   4  -8    2.69    0.19
   8   4  -8    2.50    0.24
   7   4  -8    0.76    0.14
   7   4  -8    0.86    0.17
   7   4  -8    0.74    0.19
   6   4  -8    0.87    0.19
   6   4  -8    1.12    0.16
   6   4  -8    0.89    0.19
   5   4  -8   30.87    1.15
   5   4  -8   30.19    1.16
  -4  -4   8   11.81    0.47
  -3  -4   8    0.77    0.08
  -2  -4   8    0.31    0.06
  -2  -4   8    0.34    0.07
   1   4  -8    0.65    0.11
  -1  -4   8    0.77    0.06
  -1  -4   8    1.02    0.08
   0   4  -8    0.07    0.06
   0  -4   8    0.10    0.03
  -1   4  -8    0.07    0.06
   1  -4   8    0.04    0.04
  -2   4  -8   41.92    1.52
  -2   4  -8   41.56    1.52
   2  -4   8   40.61    1.52
  -3   4  -8    3.15    0.17
  -3   4  -8    3.44    0.18
  -4   4  -8    3.39    0.29
  -4   4  -8    3.97    0.20
  -5   4  -8   78.01    2.84
  -5   4  -8   76.75    2.83
  -6   4  -8    1.53    0.15
  -7   4  -8    0.91    0.15
  -8   4  -8    7.54    0.37
   9  -4   8    0.16    0.08
  10  -4   8    0.56    0.11
  11  -4   8    1.29    0.10
  12   3  -8    0.34    0.09
  11   3  -8    1.35    0.13
  10   3  -8    0.20    0.09
  10   3  -8    0.16    0.08
   9   3  -8    0.28    0.10
   9   3  -8    0.32    0.10
   9   3  -8    0.20    0.14
   8   3  -8   10.83    0.50
   8   3  -8   11.29    0.47
   8   3  -8   11.31    0.47
   7   3  -8    0.53    0.11
   7   3  -8    0.82    0.16
   7   3  -8    0.61    0.13
   6   3  -8    0.90    0.19
   6   3  -8    0.95    0.18
   6   3  -8    0.86    0.16
  -5  -3   8    5.64    0.26
  -4  -3   8   41.09    1.51
  -3  -3   8    0.11    0.04
  -2  -3   8    1.31    0.08
  -2  -3   8    1.36    0.09
  -1  -3   8    8.36    0.32
  -1  -3   8    8.14    0.33
   0   3  -8   -0.01    0.06
   0  -3   8    0.01    0.03
  -1   3  -8    0.02    0.02
  -1   3  -8    0.04    0.05
   1  -3   8   -0.03    0.04
  -2   3  -8   24.73    0.95
  -2   3  -8   25.94    0.95
   2  -3   8   25.69    0.95
  -3   3  -8    1.58    0.12
  -3   3  -8    1.60    0.11
  -4   3  -8    1.01    0.11
  -5   3  -8   -0.05    0.10
  -5   3  -8    0.16    0.08
  -6   3  -8   23.25    0.89
  -7   3  -8    0.00    0.10
   9  -3   8    0.01    0.07
  10  -3   8    0.10    0.07
  11  -3   8    0.05    0.06
  12   2  -8    0.14    0.06
  11   2  -8    1.07    0.13
  10   2  -8    2.19    0.19
  10   2  -8    2.23    0.18
   9   2  -8    1.55    0.19
   9   2  -8    1.57    0.16
   9   2  -8    1.37    0.25
   8   2  -8   13.41    0.54
   8   2  -8   12.74    0.58
   7   2  -8    0.53    0.14
   7   2  -8    0.56    0.11
   7   2  -8    0.73    0.17
   6   2  -8   10.30    0.49
   6   2  -8   12.98    0.55
   6   2  -8   10.80    0.47
  -5  -2   8   14.67    0.57
  -5  -2   8   14.53    0.57
  -4  -2   8    8.88    0.34
  -4  -2   8    7.84    0.34
  -3  -2   8    0.22    0.04
  -2  -2   8    0.94    0.07
  -1  -2   8   22.77    0.85
  -1  -2   8   23.50    0.85
   0   2  -8    2.39    0.14
   0  -2   8    2.01    0.11
  -1   2  -8    0.06    0.02
  -1   2  -8    0.03    0.06
   1  -2   8    0.08    0.04
  -2   2  -8  167.69    6.02
  -2   2  -8  162.57    6.02
   2  -2   8  170.72    6.02
  -3   2  -8   14.76    0.57
  -3   2  -8   14.66    0.57
  -4   2  -8    0.41    0.08
  -5   2  -8   13.68    0.57
  -5   2  -8   13.36    0.54
  -6   2  -8   17.57    0.69
  -6   2  -8   17.42    0.70
  -7   2  -8    6.32    0.34
   8  -2   8    7.86    0.37
   9  -2   8    0.06    0.07
  10  -2   8   -0.04    0.06
  12   1  -8    0.06    0.05
  11   1  -8    0.52    0.11
  10   1  -8    6.30    0.30
   9   1  -8    2.78    0.19
   9   1  -8    2.72    0.29
   9   1  -8    2.71    0.24
   8   1  -8    3.38    0.24
   8   1  -8    2.78    0.27
   7   1  -8    0.94    0.18
   7   1  -8    1.28    0.15
   7   1  -8    1.42    0.22
  -6  -1   8    0.16    0.09
  -5  -1   8   13.80    0.54
  -5  -1   8   13.92    0.54
  -4  -1   8    0.13    0.04
  -4  -1   8    0.07    0.06
  -3  -1   8    0.02    0.03
  -2  -1   8    0.79    0.07
  -2  -1   8    0.82    0.06
  -1  -1   8  128.18    4.62
   0  -1   8    0.48    0.05
  -1   1  -8    0.59    0.10
  -1   1  -8    0.66    0.06
   1  -1   8    0.69    0.06
  -2   1  -8    8.51    0.34
  -2   1  -8    7.81    0.32
   2  -1   8    7.83    0.32
  -3   1  -8    0.96    0.10
  -3   1  -8    1.10    0.12
  -4   1  -8    0.63    0.12
  -5   1  -8    0.02    0.09
  -5   1  -8    0.04    0.10
  -6   1  -8    2.85    0.23
  -6   1  -8    2.66    0.22
  -7   1  -8    1.03    0.20
   7  -1   8    1.30    0.16
  -8   1  -8    6.29    0.33
   8  -1   8    6.74    0.33
  10  -1   8    0.13    0.06
  11  -1   8    0.92    0.09
  13   0  -8    0.43    0.09
  12   0  -8    1.17    0.12
  11   0  -8    1.06    0.13
  10   0  -8    0.81    0.14
   9   0  -8   10.20    0.44
   8   0  -8   20.22    0.81
   8   0  -8   19.87    0.82
   8   0  -8   21.51    0.80
   7   0  -8    0.03    0.13
   7   0  -8   -0.06    0.10
   7   0  -8    0.05    0.14
  -7   0   8    0.37    0.12
  -6   0   8    2.70    0.17
  -5   0   8    2.86    0.16
  -5   0   8    2.96    0.17
  -4   0   8  175.82    6.29
  -4   0   8  173.39    6.29
  -3   0   8    2.92    0.16
  -2   0   8    5.66    0.22
  -2   0   8    5.20    0.22
  -1   0   8  102.65    3.70
   0   0   8    3.93    0.17
  -1   0  -8    1.14    0.11
   1   0   8    1.19    0.08
  -2   0  -8   11.11    0.46
  -2   0  -8   11.86    0.45
   2   0   8   11.92    0.45
  -3   0  -8    7.17    0.30
  -3   0  -8    7.02    0.31
  -4   0  -8    5.15    0.25
  -5   0  -8    0.65    0.13
  -5   0  -8    1.05    0.16
  -6   0  -8    0.97    0.16
   6   0   8    0.76    0.18
  -7   0  -8    9.70    0.43
   7   0   8   10.14    0.45
  -8   0  -8    4.31    0.25
   8   0   8    4.06    0.25
   9   0   8    1.15    0.14
  10   0   8    0.74    0.11
  11   0   8    2.46    0.14
  13  -1  -8   -0.07    0.05
  12  -1  -8    0.32    0.07
  11  -1  -8    0.53    0.11
  10  -1  -8    5.68    0.28
   9  -1  -8    0.30    0.09
   8  -1  -8    0.20    0.09
   8  -1  -8    0.17    0.19
  -8   1   8    0.49    0.11
   7  -1  -8    2.90    0.28
   7  -1  -8    3.15    0.23
  -7   1   8    3.42    0.19
  -6   1   8    0.03    0.07
  -6   1   8    0.02    0.09
  -5   1   8    2.66    0.15
  -5   1   8    2.86    0.16
  -4   1   8   10.18    0.40
  -4   1   8   10.22    0.40
  -3   1   8    0.43    0.06
  -2   1   8    0.72    0.06
  -2   1   8    0.63    0.05
  -1   1   8    1.16    0.07
   0  -1  -8    1.34    0.13
   0   1   8    1.23    0.08
  -1  -1  -8    2.55    0.16
   1   1   8    2.93    0.13
  -2  -1  -8   60.39    2.05
  -2  -1  -8   53.17    2.05
   2   1   8   55.38    2.05
  -3  -1  -8    1.08    0.11
  -3  -1  -8    0.86    0.13
  -4  -1  -8    0.00    0.09
  -4  -1  -8    0.17    0.09
   4   1   8    0.02    0.11
  -5  -1  -8    0.16    0.10
   5   1   8    0.40    0.11
   6   1   8   29.10    1.12
  -7  -1  -8    0.11    0.08
   7   1   8    0.11    0.08
  -8  -1  -8    5.20    0.27
   8   1   8    5.64    0.29
  -9  -1  -8    0.09    0.09
   9   1   8    0.09    0.07
  10   1   8    0.28    0.07
  13  -2  -8    1.24    0.10
  12  -2  -8   -0.02    0.06
  11  -2  -8    7.52    0.33
  10  -2  -8    1.24    0.15
   9  -2  -8    0.45    0.10
  -9   2   8    0.22    0.12
   8  -2  -8    0.62    0.11
  -8   2   8    0.60    0.14
   7  -2  -8    4.45    0.26
   7  -2  -8    4.46    0.32
  -7   2   8    4.63    0.22
  -6   2   8    0.16    0.08
  -6   2   8    0.10    0.07
  -5   2   8    4.82    0.22
  -5   2   8    4.91    0.22
  -4   2   8   20.68    0.79
  -4   2   8   21.24    0.78
  -3   2   8    0.09    0.03
  -3   2   8    0.10    0.04
  -3   2   8    0.23    0.06
  -2   2   8    0.06    0.02
  -2   2   8    0.06    0.03
  -1   2   8   27.23    1.00
   0  -2  -8    1.83    0.14
   0   2   8    1.96    0.10
  -1  -2  -8    0.00    0.03
  -1  -2  -8    0.00    0.07
   1   2   8    0.04    0.04
  -2  -2  -8    3.96    0.18
  -2  -2  -8    3.49    0.21
   2   2   8    4.02    0.20
  -3  -2  -8    2.01    0.15
  -3  -2  -8    1.79    0.18
  -4  -2  -8    0.16    0.09
   4   2   8    0.08    0.10
  -5  -2  -8    2.72    0.20
   5   2   8    3.65    0.23
  -6  -2  -8   10.49    0.44
   6   2   8    9.97    0.45
  -7  -2  -8    0.54    0.13
  -8  -2  -8    0.59    0.14
   8   2   8    0.24    0.09
  -9  -2  -8    1.43    0.15
   9   2   8    1.43    0.14
  10   2   8    0.06    0.06
  13  -3  -8    3.18    0.16
  12  -3  -8   -0.02    0.05
  11  -3  -8    9.04    0.38
  10  -3  -8    2.60    0.18
   9  -3  -8    1.11    0.16
  -9   3   8    1.12    0.16
   8  -3  -8    0.43    0.13
  -8   3   8    0.33    0.09
   7  -3  -8   13.17    0.55
  -7   3   8   13.54    0.53
  -6   3   8    0.11    0.09
  -6   3   8    0.06    0.06
  -5   3   8    6.36    0.27
  -5   3   8    6.34    0.28
  -4   3   8    0.76    0.09
  -3   3   8    1.13    0.09
  -3   3   8    1.12    0.10
  -3   3   8    1.07    0.08
  -2   3   8    4.22    0.17
  -2   3   8    3.93    0.17
  -2   3   8    4.08    0.19
  -1   3   8  214.25    7.70
   0   3   8    0.84    0.07
  -1  -3  -8    0.14    0.07
  -1  -3  -8    0.13    0.06
   1   3   8    0.08    0.05
  -2  -3  -8  185.24    6.94
  -2  -3  -8  196.73    6.93
   2   3   8  195.64    6.94
  -3  -3  -8   20.93    0.80
  -3  -3  -8   20.78    0.80
  -4  -3  -8    0.77    0.14
   4   3   8    0.38    0.11
  -5  -3  -8    2.41    0.18
   5   3   8    2.18    0.20
  -6  -3  -8   33.35    1.23
   6   3   8   31.79    1.25
  -7  -3  -8    0.61    0.13
   7   3   8    0.41    0.10
  -8  -3  -8    6.84    0.31
   8   3   8    6.94    0.33
  -9  -3  -8    0.87    0.13
   9   3   8    1.01    0.12
  10   3   8    0.36    0.09
  13  -4  -8    0.14    0.05
  12  -4  -8    0.50    0.09
  11  -4  -8    0.02    0.07
  10  -4  -8    2.38    0.18
 -10   4   8    2.37    0.22
   9  -4  -8   -0.06    0.08
  -9   4   8    0.07    0.09
   8  -4  -8    4.06    0.24
  -8   4   8    4.70    0.23
  -7   4   8    0.22    0.07
  -6   4   8    1.63    0.13
  -5   4   8    1.09    0.12
  -4   4   8   38.17    1.41
  -4   4   8   38.12    1.43
  -4   4   8   40.07    1.42
  -3   4   8    0.74    0.06
  -3   4   8    0.58    0.08
  -3   4   8    0.83    0.09
  -2   4   8    1.03    0.10
  -2   4   8    0.61    0.09
  -2   4   8    0.75    0.06
  -1   4   8  171.78    6.00
  -1   4   8  169.99    6.02
  -1   4   8  158.91    6.00
   0   4   8    0.53    0.07
  -1  -4  -8    1.65    0.14
   1   4   8    1.83    0.13
  -2  -4  -8   18.08    0.68
   2   4   8   17.74    0.70
  -3  -4  -8    0.14    0.09
  -3  -4  -8    0.16    0.08
   3   4   8    0.02    0.11
  -4  -4  -8    0.07    0.07
   4   4   8   -0.04    0.10
  -5  -4  -8    0.19    0.08
   5   4   8    0.11    0.10
  -6  -4  -8    0.12    0.07
   6   4   8   -0.11    0.09
  -7  -4  -8   -0.06    0.06
   7   4   8   -0.01    0.08
  -8  -4  -8   -0.04    0.06
  -9  -4  -8    3.49    0.19
   9   4   8    3.68    0.20
  10   4   8    0.11    0.06
  13  -5  -8    0.57    0.09
  12  -5  -8    0.25    0.06
  11  -5  -8    5.33    0.25
  10  -5  -8    2.23    0.17
 -10   5   8    2.50    0.19
   9  -5  -8    4.95    0.26
   8  -5  -8    2.33    0.19
  -8   5   8    2.50    0.17
  -7   5   8    6.95    0.31
   6  -5  -8    0.42    0.27
  -6   5   8    0.41    0.08
  -5   5   8    4.82    0.23
  -4   5   8    0.16    0.06
  -4   5   8    0.17    0.05
  -3   5   8    0.72    0.07
  -3   5   8    0.76    0.10
  -3   5   8    0.68    0.08
  -2   5   8    0.03    0.03
  -2   5   8    0.05    0.03
  -2   5   8    0.06    0.05
  -1   5   8  165.81    6.08
  -1   5   8  170.61    6.08
  -1   5   8  170.92    6.10
   0   5   8    1.05    0.13
   0   5   8    0.98    0.09
  -1  -5  -8    0.13    0.06
   1   5   8    0.10    0.09
  -2  -5  -8   67.02    2.50
  -2  -5  -8   70.15    2.50
  -3  -5  -8    0.00    0.09
   3   5   8    0.05    0.11
  -4  -5  -8    0.20    0.08
   4   5   8    0.36    0.11
  -5  -5  -8    2.37    0.18
   5   5   8    2.21    0.20
  -6  -5  -8    8.64    0.38
   6   5   8    8.87    0.41
  -7  -5  -8    0.09    0.07
   7   5   8   -0.14    0.08
  -8  -5  -8    0.31    0.07
   8   5   8    0.57    0.12
  -9  -5  -8    0.97    0.10
   9   5   8    0.91    0.11
  10   5   8    0.10    0.06
  12  -6  -8    2.08    0.13
  11  -6  -8    5.11    0.24
 -11   6   8    4.51    0.30
  10  -6  -8   29.34    1.08
 -10   6   8   27.41    1.08
   9  -6  -8    5.51    0.28
  -9   6   8    5.55    0.28
  -8   6   8   12.15    0.50
  -7   6   8    3.26    0.19
   6  -6  -8    0.69    0.16
  -6   6   8    0.62    0.10
  -5   6   8    0.95    0.11
  -4   6   8    8.04    0.34
  -3   6   8    0.36    0.09
  -2   6   8    0.05    0.06
  -1   6   8    0.42    0.08
   0   6   8    0.11    0.09
  -2  -6  -8   37.84    1.47
   2   6   8   41.55    1.50
  -3  -6  -8    7.61    0.35
   3   6   8    7.80    0.38
  -4  -6  -8    0.37    0.09
   4   6   8    0.22    0.11
  -5  -6  -8   12.96    0.54
   5   6   8   13.68    0.57
  -6  -6  -8   10.40    0.45
   6   6   8   11.15    0.48
  -7  -6  -8    0.59    0.12
   7   6   8    0.53    0.10
  -8  -6  -8    0.23    0.06
   8   6   8    0.27    0.07
  -9  -6  -8   11.40    0.44
   9   6   8   11.39    0.46
  12  -7  -8    0.02    0.05
  11  -7  -8    0.90    0.12
 -11   7   8    0.92    0.18
  10  -7  -8    5.19    0.25
 -10   7   8    4.47    0.25
   9  -7  -8    0.15    0.08
  -9   7   8    0.09    0.08
  -8   7   8    5.56    0.27
  -7   7   8   11.11    0.46
  -6   7   8   -0.05    0.12
  -6   7   8    0.10    0.06
   5  -7  -8    0.80    0.14
  -5   7   8    0.67    0.11
  -5   7   8    0.77    0.15
   4  -7  -8    3.10    0.24
  -4   7   8    2.96    0.17
   3  -7  -8    0.13    0.10
  -3   7   8    0.13    0.06
  -2   7   8    0.12    0.06
  -1   7   8    5.41    0.25
   0   7   8    0.68    0.14
  -1  -7  -8    0.85    0.16
   1   7   8    0.72    0.14
  -2  -7  -8    0.78    0.15
   2   7   8    0.83    0.18
  -3  -7  -8    0.38    0.09
   3   7   8    0.32    0.11
  -4  -7  -8    0.49    0.10
   4   7   8    0.41    0.12
  -5  -7  -8    0.45    0.09
   5   7   8    0.74    0.16
  -6  -7  -8    3.99    0.22
   6   7   8    4.26    0.25
  -7  -7  -8    0.04    0.06
   7   7   8   -0.06    0.07
  -8  -7  -8    1.23    0.11
   8   7   8    1.05    0.12
  -9  -7  -8    3.51    0.16
   9   7   8    2.99    0.17
  11  -8  -8    3.04    0.17
 -11   8   8    2.72    0.21
  10  -8  -8    8.42    0.36
 -10   8   8    7.98    0.36
   9  -8  -8   -0.01    0.07
  -9   8   8   -0.01    0.07
  -8   8   8    2.32    0.18
  -7   8   8    0.58    0.11
  -6   8   8    2.65    0.22
  -6   8   8    2.88    0.18
   5  -8  -8    3.91    0.28
  -5   8   8    4.34    0.22
  -5   8   8    4.42    0.28
   4  -8  -8   41.58    1.54
  -4   8   8   39.02    1.54
  -4   8   8   42.73    1.53
   3  -8  -8    0.29    0.10
  -3   8   8    0.35    0.08
  -2   8   8    0.14    0.07
  -1   8   8   57.02    2.10
  -1   8   8   57.67    2.13
   0  -8  -8    0.27    0.12
   0   8   8    0.22    0.13
  -1  -8  -8    3.15    0.23
   1   8   8    3.95    0.26
  -2  -8  -8   64.26    2.38
   2   8   8   65.26    2.40
  -3  -8  -8    1.26    0.15
   3   8   8    1.30    0.18
  -4  -8  -8    0.08    0.08
   4   8   8    0.00    0.10
  -5  -8  -8   31.68    1.24
   5   8   8   34.41    1.27
  -6  -8  -8    7.95    0.35
   6   8   8    7.68    0.37
  -7  -8  -8    0.48    0.09
   7   8   8    0.28    0.08
  -8  -8  -8    0.04    0.05
   8   8   8    0.20    0.07
  12  -9  -8    0.41    0.09
  11  -9  -8    0.77    0.10
 -11   9   8    0.61    0.11
  10  -9  -8    0.58    0.12
 -10   9   8    0.38    0.09
  -9   9   8    1.67    0.15
  -8   9   8    0.03    0.07
  -7   9   8    2.55    0.17
  -6   9   8    1.99    0.20
  -6   9   8    1.75    0.15
   5  -9  -8    2.83    0.25
  -5   9   8    2.88    0.18
  -5   9   8    2.68    0.23
   4  -9  -8   15.67    0.64
  -4   9   8   15.97    0.62
  -4   9   8   15.13    0.64
   3  -9  -8    0.44    0.11
  -3   9   8    0.39    0.18
  -3   9   8    0.66    0.12
  -3   9   8    0.46    0.14
  -2   9   8    0.16    0.13
  -2   9   8    0.06    0.08
  -2   9   8   -0.07    0.14
  -1   9   8    3.57    0.27
  -1   9   8    3.29    0.30
  -1   9   8    3.10    0.22
   0  -9  -8    0.18    0.12
   0   9   8    0.02    0.12
  -1  -9  -8    0.53    0.10
   1   9   8    0.33    0.12
  -2  -9  -8    7.21    0.35
   2   9   8    8.06    0.39
  -3  -9  -8    6.48    0.30
   3   9   8    6.00    0.33
  -4  -9  -8    0.15    0.07
   4   9   8   -0.08    0.09
  -5  -9  -8    0.01    0.07
   5   9   8    0.01    0.09
  -6  -9  -8    0.40    0.10
   6   9   8    0.54    0.13
  -7  -9  -8    0.02    0.05
   7   9   8    0.11    0.07
  12 -10  -8    0.21    0.06
  11 -10  -8    0.18    0.06
 -11  10   8    0.07    0.09
  10 -10  -8    1.04    0.12
 -10  10   8    1.13    0.13
  -9  10   8    0.27    0.08
  -8  10   8    1.47    0.14
  -7  10   8   37.22    1.41
  -6  10   8    1.49    0.20
  -6  10   8    1.77    0.15
   5 -10  -8   -0.14    0.22
  -5  10   8    0.07    0.07
  -5  10   8   -0.12    0.11
   4 -10  -8   19.54    0.78
  -4  10   8   19.57    0.78
  -4  10   8   19.55    0.77
  -4  10   8   19.92    0.80
   3 -10  -8   -0.07    0.10
  -3  10   8    0.14    0.12
  -3  10   8    0.23    0.14
  -2  10   8   -0.06    0.14
  -2  10   8    0.04    0.12
  -2  10   8    0.11    0.09
  -1  10   8   21.14    0.83
  -1  10   8   20.65    0.83
   0 -10  -8   -0.13    0.12
   0  10   8   -0.16    0.13
  -1 -10  -8   -0.01    0.10
   1  10   8   -0.06    0.10
   1  10   8    0.12    0.16
  -2 -10  -8    4.75    0.26
   2  10   8    4.81    0.32
   2  10   8    5.34    0.29
  -3 -10  -8    2.31    0.18
   3  10   8    2.24    0.21
   3  10   8    2.37    0.25
  -4 -10  -8    0.54    0.12
   4  10   8    0.43    0.10
  -6 -10  -8    4.07    0.23
  -6 -10  -8    4.57    0.21
   6  10   8    4.39    0.23
  -7 -10  -8    0.12    0.05
   7  10   8    0.24    0.07
  11 -11  -8    2.86    0.15
 -11  11   8    2.75    0.21
  10 -11  -8    6.96    0.31
 -10  11   8    7.41    0.32
  -9  11   8    0.11    0.07
  -8  11   8    3.50    0.21
  -7  11   8   50.05    1.86
  -6  11   8    0.79    0.17
  -6  11   8    0.59    0.13
   5 -11  -8    6.46    0.35
  -5  11   8    6.47    0.33
  -5  11   8    7.03    0.32
  -5  11   8    6.43    0.38
   4 -11  -8    9.68    0.44
  -4  11   8    9.84    0.46
  -4  11   8    9.11    0.43
  -4  11   8    9.83    0.42
   3 -11  -8    0.91    0.17
  -3  11   8    1.20    0.20
  -3  11   8    1.14    0.16
  -3  11   8    1.28    0.16
  -2  11   8    0.14    0.12
  -2  11   8    0.19    0.13
  -2  11   8    0.37    0.11
  -1  11   8   55.62    2.11
  -1  11   8   58.26    2.12
   0  11   8    0.55    0.12
   0  11   8    0.37    0.14
  -1 -11  -8   12.40    0.51
   1  11   8   11.52    0.52
   1  11   8   11.86    0.52
  -2 -11  -8    1.38    0.17
   2  11   8    1.42    0.19
   2  11   8    1.33    0.23
  -3 -11  -8    3.18    0.20
   3  11   8    3.07    0.22
   3  11   8    3.18    0.26
   4  11   8    0.56    0.14
  -5 -11  -8   13.53    0.54
   5  11   8   13.57    0.56
  -6 -11  -8    7.88    0.33
   6  11   8    7.94    0.34
  -7 -11  -8    0.03    0.05
   7  11   8    0.08    0.06
  11 -12  -8    0.56    0.10
  10 -12  -8    0.18    0.06
 -10  12   8    0.02    0.08
  -9  12   8    1.68    0.14
  -8  12   8    0.03    0.07
  -7  12   8    0.69    0.12
  -6  12   8    2.91    0.21
  -6  12   8    2.44    0.18
   5 -12  -8    1.94    0.22
  -5  12   8    1.80    0.24
  -5  12   8    1.86    0.20
  -5  12   8    1.96    0.16
   4 -12  -8   16.26    0.65
  -4  12   8   15.73    0.64
  -4  12   8   16.36    0.66
  -4  12   8   15.20    0.64
   3 -12  -8    0.39    0.11
  -3  12   8    0.20    0.11
  -3  12   8    0.30    0.13
   2 -12  -8    1.33    0.18
  -2  12   8    1.34    0.20
  -2  12   8    1.73    0.21
  -1  12   8    9.77    0.46
  -1  12   8   10.53    0.46
   0  12   8    4.02    0.27
   0  12   8    4.51    0.27
  -1 -12  -8    0.26    0.12
   1  12   8    0.23    0.13
   1  12   8   -0.01    0.10
  -2 -12  -8    1.68    0.18
   2  12   8    1.69    0.22
   2  12   8    2.16    0.19
  -3 -12  -8    2.88    0.20
   3  12   8    3.25    0.25
   3  12   8    3.14    0.23
  -4 -12  -8    0.12    0.07
   4  12   8    0.21    0.08
  -5 -12  -8    0.21    0.07
  -5 -12  -8    0.19    0.10
   5  12   8    0.10    0.06
  -6 -12  -8    0.00    0.06
  -6 -12  -8    0.11    0.08
   6  12   8    0.05    0.06
  10 -13  -8    2.77    0.15
 -10  13   8    2.80    0.17
   9 -13  -8    0.13    0.06
  -9  13   8    0.18    0.08
  -8  13   8    0.02    0.08
  -7  13   8    5.89    0.29
  -6  13   8    0.26    0.10
  -6  13   8    0.51    0.13
   5 -13  -8    0.01    0.12
  -5  13   8    0.06    0.10
  -5  13   8    0.11    0.09
  -5  13   8    0.22    0.13
   4 -13  -8    0.06    0.10
  -4  13   8    0.07    0.12
  -4  13   8    0.16    0.10
  -4  13   8    0.00    0.09
   3 -13  -8    1.08    0.17
  -3  13   8    0.62    0.13
  -3  13   8    0.84    0.15
  -3  13   8    0.58    0.11
   2 -13  -8    0.80    0.15
  -2  13   8    0.97    0.18
  -2  13   8    0.92    0.19
  -1  13   8   15.28    0.61
  -1  13   8   13.95    0.60
   0  13   8    0.10    0.12
   0  13   8    0.14    0.10
   1  13   8    0.19    0.10
   1  13   8    0.50    0.16
  -2 -13  -8   18.98    0.74
   2  13   8   19.13    0.75
   2  13   8   18.51    0.79
  -3 -13  -8    4.24    0.23
   3  13   8    4.29    0.24
  -4 -13  -8    0.02    0.07
   4  13   8    0.11    0.07
  -5 -13  -8    1.76    0.12
  -5 -13  -8    1.71    0.14
   5  13   8    1.64    0.12
   9 -14  -8    0.18    0.06
  -9  14   8    0.12    0.08
  -8  14   8    0.30    0.09
  -7  14   8    1.94    0.17
  -6  14   8    0.41    0.09
  -6  14   8    0.44    0.11
  -5  14   8   -0.03    0.12
  -5  14   8   -0.08    0.09
  -5  14   8    0.20    0.10
  -4  14   8   20.75    0.92
  -4  14   8   27.33    0.98
   3 -14  -8    0.45    0.10
  -3  14   8    0.46    0.11
  -3  14   8    0.89    0.17
   2 -14  -8    0.16    0.09
  -2  14   8    0.04    0.10
  -2  14   8    0.02    0.10
   1 -14  -8    0.08    0.08
  -1  14   8    0.01    0.09
   0  14   8    4.35    0.26
   0  14   8    3.73    0.32
   1  14   8    0.11    0.11
   1  14   8   -0.10    0.09
   2  14   8    2.20    0.17
  -3 -14  -8    1.23    0.12
   3  14   8    1.28    0.13
  -4 -14  -8    2.03    0.13
  -4 -14  -8    2.06    0.18
   4  14   8    1.85    0.13
   9 -15  -8    0.00    0.11
  -8  15   8    0.22    0.10
  -7  15   8    5.79    0.29
  -6  15   8    0.23    0.11
  -5  15   8    0.57    0.12
  -5  15   8    0.51    0.10
  -5  15   8    0.62    0.15
   4 -15  -8    1.25    0.18
  -4  15   8    1.57    0.17
  -4  15   8    2.00    0.18
   3 -15  -8    0.54    0.10
  -3  15   8    0.47    0.11
  -3  15   8    0.48    0.10
   2 -15  -8    0.58    0.13
  -2  15   8    0.77    0.16
  -2  15   8    0.46    0.10
   1 -15  -8    0.14    0.07
  -1  15   8    0.05    0.08
  -1  15   8    0.04    0.10
   0 -15  -8    0.41    0.11
   0  15   8    0.14    0.11
   0  15   8    0.24    0.09
  -1 -15  -8    0.00    0.06
   1  15   8    0.00    0.07
  -2 -15  -8    0.85    0.10
   2  15   8    0.86    0.12
  -3 -15  -8    0.06    0.05
   3  15   8    0.06    0.06
  -5  16   8    0.17    0.08
  -4  16   8   21.76    0.83
  -4  16   8   22.24    0.84
   3 -16  -8    0.10    0.09
  -3  16   8   -0.03    0.09
  -3  16   8    0.02    0.09
   2 -16  -8    0.21    0.08
  -2  16   8    0.29    0.09
  -2  16   8    0.24    0.10
   1 -16  -8    0.24    0.07
  -1  16   8    0.26    0.11
  -1  16   8    0.56    0.13
   0 -16  -8    1.86    0.14
   0  16   8    1.95    0.15
  -1 -16  -8    0.10    0.06
   1  16   8    0.18    0.07
   2  16   8    6.95    0.29
  -4  17   8    1.98    0.18
  -3  17   8   -0.02    0.09
  -3  17   8   -0.07    0.12
   2 -17  -8    0.12    0.07
  -2  17   8    0.01    0.08
   1 -17  -8    3.12    0.19
  -1  17   8    3.54    0.19
   0 -17  -8    2.84    0.15
   0  17   8    2.83    0.17
  -1 -17  -8    0.62    0.08
   1  17   8    0.56    0.11
   3  18  -9    4.96    0.23
   2  18  -9    0.23    0.07
   1  18  -9    3.98    0.20
   0  18  -9    5.63    0.25
   0  18  -9    4.25    0.25
  -1  18  -9    0.15    0.08
  -1  18  -9    0.06    0.14
  -2  18  -9    1.25    0.17
  -2  18  -9    1.11    0.15
  -3  18  -9    0.01    0.10
  -3  18  -9    0.06    0.12
  -4  18  -9    0.94    0.11
  -5  18  -9   -0.01    0.06
   4  17  -9    0.18    0.07
   4  17  -9    0.16    0.07
   3  17  -9    0.32    0.09
   3  17  -9    0.55    0.11
   2  17  -9    0.90    0.12
   2  17  -9    0.66    0.15
   1  17  -9    1.02    0.14
   1  17  -9    1.08    0.17
   0  17  -9   15.55    0.61
   0  17  -9   15.41    0.61
  -1  17  -9    1.62    0.16
  -1  17  -9    1.26    0.15
  -2  17  -9    0.20    0.08
  -2  17  -9    0.27    0.09
  -3  17  -9    0.11    0.09
  -3  17  -9    0.13    0.08
  -4  17  -9    1.21    0.12
  -5  17  -9   -0.08    0.06
  -6  17  -9    1.48    0.12
   6  16  -9    1.60    0.13
   6  16  -9    1.46    0.11
   5  16  -9    0.16    0.07
   5  16  -9   -0.02    0.06
   4  16  -9    0.34    0.07
   4  16  -9    0.17    0.07
   3  16  -9    0.87    0.15
   3  16  -9    1.01    0.13
   2  16  -9    0.23    0.11
   2  16  -9    0.19    0.08
   2  16  -9    0.15    0.12
   1  16  -9    0.07    0.08
   1  16  -9    0.09    0.10
   0  16  -9    0.21    0.09
   0  16  -9    0.14    0.09
  -1  16  -9    0.00    0.08
  -1  16  -9    0.08    0.09
  -2  16  -9    0.65    0.14
  -2  16  -9    0.63    0.11
  -3  16  -9    3.13    0.20
  -3  16  -9    3.18    0.21
  -4  16  -9    0.92    0.20
  -4  16  -9    0.97    0.13
  -4  16  -9    0.88    0.15
  -5  16  -9    1.22    0.12
  -5  16  -9    1.36    0.18
  -6  16  -9   15.25    0.61
  -6  16  -9   15.53    0.60
  -7  16  -9    0.88    0.10
   7  15  -9    4.74    0.21
   7  15  -9    4.57    0.21
   6  15  -9    1.02    0.14
   6  15  -9    0.76    0.10
   5  15  -9    0.07    0.07
   5  15  -9    0.05    0.07
   4  15  -9    0.14    0.08
   4  15  -9    0.14    0.07
   4  15  -9    0.24    0.10
   3  15  -9    3.33    0.22
   3  15  -9    3.34    0.20
   2  15  -9    0.12    0.11
   2  15  -9   -0.04    0.12
   2  15  -9    0.19    0.09
   1  15  -9    0.22    0.09
   1  15  -9   -0.12    0.14
   0  15  -9    0.02    0.10
   0  15  -9    0.19    0.09
  -1  15  -9    0.71    0.17
  -1  15  -9    1.03    0.17
  -2  15  -9   -0.08    0.09
  -2  15  -9    0.30    0.12
  -3  15  -9   -0.04    0.12
  -3  15  -9    0.05    0.09
  -4  15  -9    0.08    0.08
  -4  15  -9    0.17    0.10
  -4  15  -9    0.15    0.10
  -5  15  -9    0.06    0.07
  -5  15  -9   -0.03    0.09
  -6  15  -9    4.19    0.22
  -6  15  -9    3.88    0.21
  -7  15  -9    0.21    0.09
  -7  15  -9    0.23    0.07
   7  14  -9    0.43    0.09
   6  14  -9    4.95    0.23
   6  14  -9    4.73    0.25
   6  14  -9    4.48    0.22
   5  14  -9    0.10    0.07
   5  14  -9   -0.02    0.07
   5  14  -9   -0.07    0.07
   4  14  -9    1.89    0.17
   4  14  -9    1.82    0.17
   3  14  -9   26.49    1.03
   3  14  -9   26.77    1.02
   2  14  -9    0.19    0.12
   2  14  -9    0.25    0.09
   2  14  -9    0.04    0.13
   1  14  -9   -0.12    0.13
   1  14  -9   -0.15    0.12
   1  14  -9    0.20    0.10
   0  14  -9   -0.07    0.11
   0  14  -9    0.38    0.10
  -1  14  -9    0.08    0.10
  -1  14  -9    0.19    0.11
  -2  14  -9    0.36    0.11
  -2  14  -9    0.14    0.10
  -2  14  -9    0.10    0.11
  -3  14  -9    6.51    0.32
  -3  14  -9    6.49    0.32
  -3  14  -9    5.78    0.32
  -4  14  -9    0.40    0.10
  -4  14  -9    0.57    0.17
  -4  14  -9    0.58    0.14
  -5  14  -9    0.30    0.10
  -5  14  -9    0.27    0.09
  -6  14  -9    2.04    0.17
  -6  14  -9    1.97    0.16
  -7  14  -9    0.28    0.07
  -7  14  -9    0.14    0.08
  -8  14  -9    0.00    0.08
   8  13  -9    0.96    0.10
   8  13  -9    1.08    0.11
   7  13  -9    3.16    0.17
   7  13  -9    2.95    0.18
   7  13  -9    3.49    0.19
   6  13  -9    1.10    0.14
   6  13  -9    1.07    0.14
   6  13  -9    1.01    0.12
   5  13  -9    0.39    0.10
   5  13  -9    0.21    0.14
   4  13  -9    1.71    0.19
   4  13  -9    1.80    0.18
   4  13  -9    1.79    0.18
   3  13  -9   18.39    0.75
   3  13  -9   18.30    0.73
   3  13  -9   18.89    0.74
   2  13  -9   -0.01    0.14
   2  13  -9   -0.03    0.12
   2  13  -9    0.19    0.15
   2  13  -9    0.09    0.10
   1  13  -9    0.16    0.14
   1  13  -9    0.06    0.13
   1  13  -9    0.02    0.09
   0  13  -9    6.46    0.33
   0  13  -9    6.89    0.35
  -1  13  -9    0.32    0.13
  -1  13  -9    0.43    0.12
  -1  13  -9    0.31    0.12
  -2  13  -9    0.71    0.15
  -2  13  -9    0.67    0.17
  -2  13  -9    0.66    0.12
  -3  13  -9    0.68    0.16
  -3  13  -9    0.52    0.12
  -3  13  -9    0.25    0.10
  -4  13  -9    3.57    0.23
  -4  13  -9    3.84    0.25
  -4  13  -9    3.54    0.23
  -5  13  -9    0.52    0.10
  -6  13  -9    4.50    0.26
  -6  13  -9    3.90    0.23
  -7  13  -9    2.10    0.16
  -7  13  -9    2.05    0.16
  -8  13  -9    0.55    0.11
   9  12  -9    0.19    0.06
   9  12  -9    0.06    0.06
   8  12  -9   -0.03    0.06
   8  12  -9    0.06    0.06
   8  12  -9   -0.06    0.05
   7  12  -9    4.22    0.23
   7  12  -9    4.23    0.21
   7  12  -9    4.24    0.22
   6  12  -9    3.03    0.21
   5  12  -9    0.83    0.15
   5  12  -9    0.68    0.15
   5  12  -9    0.95    0.16
   4  12  -9    1.99    0.21
   4  12  -9    2.31    0.19
   4  12  -9    2.32    0.18
   3  12  -9   -0.05    0.11
   3  12  -9    0.18    0.11
   3  12  -9    0.25    0.10
   2  12  -9    0.12    0.16
   2  12  -9    0.09    0.11
   2  12  -9    0.39    0.13
   2  12  -9    0.15    0.12
   1  12  -9    0.02    0.14
   1  12  -9    0.15    0.14
   1  12  -9    0.07    0.09
   0  12  -9    4.63    0.29
   0  12  -9    4.69    0.28
  -1  12  -9    0.75    0.19
  -1  12  -9    0.99    0.17
  -1  12  -9    0.99    0.21
  -2  12  -9    2.53    0.23
  -2  12  -9    2.38    0.21
  -2  12  -9    2.94    0.20
  -3  12  -9   16.87    0.67
  -3  12  -9   16.22    0.67
  -3  12  -9   16.58    0.67
  -4  12  -9    0.84    0.17
  -4  12  -9    1.48    0.15
  -4  12  -9    1.39    0.21
  -5  12  -9    1.84    0.17
  -5  12  -9    2.28    0.18
  -6  12  -9   19.45    0.82
  -6  12  -9   22.58    0.83
  -7  12  -9    0.43    0.09
  -7  12  -9    0.32    0.08
  -8  12  -9    3.60    0.21
  -9  12  -9    0.07    0.09
   9  11  -9    0.99    0.11
   9  11  -9    0.93    0.11
   8  11  -9    1.60    0.13
   8  11  -9    1.40    0.12
   8  11  -9    1.53    0.14
   7  11  -9   17.41    0.73
   7  11  -9   18.81    0.72
   6  11  -9   24.91    0.95
   6  11  -9   24.43    0.96
   6  11  -9   25.07    0.97
   5  11  -9    0.02    0.10
   5  11  -9   -0.11    0.09
   5  11  -9   -0.07    0.08
   4  11  -9    4.33    0.25
   4  11  -9    3.59    0.23
   4  11  -9    3.41    0.25
   3  11  -9   53.74    1.97
   3  11  -9   53.76    1.99
   3  11  -9   52.31    1.97
   2  11  -9    0.17    0.22
   2  11  -9    0.05    0.18
   2  11  -9   -0.15    0.11
   1  11  -9    1.93    0.28
   1  11  -9    2.03    0.23
   1  11  -9    1.91    0.26
   0  11  -9    8.66    0.39
   0  11  -9    8.34    0.40
   0  11  -9    8.30    0.42
  -1  11  -9    0.54    0.14
  -1  11  -9    0.57    0.14
  -1  11  -9    0.60    0.14
  -2  11  -9    0.25    0.12
  -2  11  -9    0.23    0.09
  -3  11  -9    0.23    0.08
  -3  11  -9    0.14    0.10
  -3  11  -9    0.54    0.16
  -4  11  -9    5.39    0.34
  -4  11  -9    5.68    0.31
  -4  11  -9    6.32    0.30
  -5  11  -9    1.11    0.16
  -5  11  -9    1.14    0.14
  -6  11  -9    5.27    0.27
  -6  11  -9    4.69    0.26
  -7  11  -9    0.33    0.09
  -7  11  -9    0.55    0.13
   7 -11   9    0.65    0.13
  -8  11  -9    0.88    0.13
  -9  11  -9    8.92    0.38
  10 -11   9    0.46    0.08
  10  10  -9    1.61    0.14
  10  10  -9    1.82    0.12
   9  10  -9    0.10    0.05
   9  10  -9    0.13    0.07
   9  10  -9    0.09    0.07
   8  10  -9    0.21    0.08
   8  10  -9    0.09    0.06
   8  10  -9    0.10    0.07
   7  10  -9    0.11    0.07
   7  10  -9   -0.09    0.08
   7  10  -9    0.01    0.09
   6  10  -9   12.81    0.53
   6  10  -9   11.93    0.52
   6  10  -9   12.13    0.51
   5  10  -9    0.07    0.10
   5  10  -9   -0.03    0.08
   5  10  -9   -0.09    0.09
   4  10  -9    0.88    0.15
   4  10  -9    1.12    0.17
   4  10  -9    1.18    0.18
   3  10  -9   16.71    0.67
   3  10  -9   16.40    0.65
   3  10  -9   15.60    0.66
   2  10  -9    0.47    0.14
   2  10  -9    0.38    0.12
   2  10  -9    0.63    0.14
   1  10  -9    0.11    0.16
   1  10  -9    0.25    0.14
   1  10  -9    0.23    0.14
   0  10  -9    0.35    0.14
   0  10  -9    0.26    0.15
   0  10  -9    0.39    0.10
  -1  10  -9    2.28    0.23
  -1  10  -9    1.95    0.26
  -1  10  -9    1.99    0.17
  -2  10  -9    0.24    0.08
  -2  10  -9    0.08    0.11
  -3  10  -9    2.12    0.16
  -3  10  -9    1.82    0.21
  -4  10  -9   -0.06    0.10
  -4  10  -9    0.04    0.08
  -5  10  -9    0.21    0.09
  -5  10  -9    0.01    0.07
  -6  10  -9    0.09    0.09
  -6  10  -9    0.03    0.08
  -7  10  -9    2.40    0.18
  -7  10  -9    2.56    0.19
  -8  10  -9    0.08    0.08
  -9  10  -9   13.37    0.54
  10   9  -9    2.06    0.23
  10   9  -9    2.72    0.15
   9   9  -9    0.72    0.10
   9   9  -9    0.85    0.13
   9   9  -9    0.72    0.13
   8   9  -9    0.03    0.07
   8   9  -9    0.05    0.09
   7   9  -9    2.31    0.20
   7   9  -9    2.42    0.18
   7   9  -9    2.06    0.20
   6   9  -9    8.64    0.38
   6   9  -9    8.30    0.40
   6   9  -9    8.50    0.39
   5   9  -9    3.25    0.24
   5   9  -9    3.66    0.24
   5   9  -9    3.44    0.21
   4   9  -9    2.89    0.23
   4   9  -9    2.72    0.22
   4   9  -9    2.84    0.20
   3   9  -9   16.20    0.65
   3   9  -9   15.78    0.66
   3   9  -9   16.92    0.67
   2   9  -9    0.16    0.14
   2   9  -9    0.08    0.11
   2   9  -9    0.22    0.14
   1   9  -9    2.97    0.33
   1   9  -9    2.33    0.30
   1   9  -9    2.71    0.20
   1   9  -9    2.32    0.25
   0   9  -9   13.54    0.55
   0  -9   9   13.93    0.57
  -1   9  -9    0.16    0.08
  -1   9  -9    0.13    0.14
   1  -9   9    0.06    0.18
  -2   9  -9   -0.08    0.07
  -2   9  -9    0.14    0.13
  -3   9  -9    2.56    0.16
  -3   9  -9    2.26    0.22
  -4   9  -9    6.72    0.30
  -4   9  -9    5.99    0.32
  -5   9  -9   -0.06    0.09
  -5   9  -9   -0.03    0.06
  -6   9  -9   14.13    0.58
  -6   9  -9   13.36    0.57
  -7   9  -9    9.77    0.44
  -7   9  -9    9.97    0.44
  -8   9  -9   -0.01    0.08
  -9   9  -9   -0.02    0.10
  10  -9   9    0.86    0.09
  11   8  -9   -0.05    0.06
  10   8  -9    0.04    0.06
  10   8  -9   -0.08    0.08
  10   8  -9    0.04    0.05
   9   8  -9    1.04    0.15
   9   8  -9    0.96    0.13
   9   8  -9    0.79    0.12
   8   8  -9    0.28    0.10
   8   8  -9    0.62    0.15
   8   8  -9    0.36    0.08
   7   8  -9    0.08    0.08
   7   8  -9    0.34    0.10
   7   8  -9    0.04    0.09
   6   8  -9    0.86    0.17
   6   8  -9    1.14    0.15
   6   8  -9    1.27    0.19
   5   8  -9    0.18    0.11
   4   8  -9    1.78    0.19
   4   8  -9    1.47    0.16
   4   8  -9    1.66    0.22
   3   8  -9    6.01    0.34
   3   8  -9    6.33    0.33
   3   8  -9    6.25    0.30
   2   8  -9    0.17    0.10
   2   8  -9   -0.13    0.14
  -2  -8   9    0.19    0.10
   1   8  -9    4.23    0.23
  -1  -8   9    4.10    0.23
   0   8  -9  353.46   13.09
   0  -8   9  374.58   13.09
  -1   8  -9    1.81    0.14
   1  -8   9    1.79    0.17
  -2   8  -9    0.20    0.13
  -2   8  -9    0.04    0.06
  -3   8  -9   12.42    0.53
  -3   8  -9   12.65    0.51
  -4   8  -9    9.66    0.44
  -4   8  -9    9.81    0.42
  -5   8  -9    0.22    0.07
  -5   8  -9    0.27    0.10
  -6   8  -9    8.20    0.36
  -6   8  -9    7.19    0.36
  -7   8  -9    2.91    0.19
  -7   8  -9    2.61    0.21
  -8   8  -9    1.08    0.15
  -9   8  -9    0.23    0.11
  10  -8   9    0.72    0.09
  10   7  -9    6.36    0.30
  10   7  -9    6.45    0.28
  10   7  -9    6.56    0.29
   9   7  -9    0.03    0.07
   8   7  -9    0.28    0.11
   8   7  -9    0.23    0.09
   8   7  -9    0.50    0.09
   7   7  -9    3.15    0.23
   7   7  -9    3.21    0.22
   7   7  -9    3.24    0.20
   6   7  -9    2.50    0.22
   6   7  -9    2.77    0.19
   6   7  -9    3.10    0.27
   5   7  -9    1.28    0.21
   5   7  -9    1.42    0.18
   5   7  -9    1.64    0.16
   4   7  -9    3.76    0.29
   4   7  -9    4.12    0.23
   4   7  -9    3.73    0.25
   3   7  -9    2.21    0.22
   3   7  -9    2.31    0.18
   2   7  -9    1.24    0.17
  -2  -7   9    1.34    0.14
   1   7  -9    0.26    0.08
  -1  -7   9    0.08    0.06
   0   7  -9   43.42    1.63
   0  -7   9   45.02    1.63
  -1   7  -9    1.08    0.12
  -2   7  -9    0.43    0.08
  -3   7  -9    1.61    0.22
  -3   7  -9    1.63    0.13
  -4   7  -9    0.27    0.11
  -4   7  -9    0.28    0.07
  -5   7  -9    0.23    0.08
  -5   7  -9    0.36    0.11
  -6   7  -9    2.94    0.21
  -6   7  -9    2.57    0.18
  -7   7  -9    1.26    0.15
  -7   7  -9    1.10    0.17
  -8   7  -9    0.23    0.09
  10  -7   9    1.63    0.12
  11   6  -9    1.34    0.11
  10   6  -9    0.02    0.07
  10   6  -9    0.02    0.06
  10   6  -9   -0.07    0.10
   9   6  -9    2.16    0.18
   9   6  -9    1.84    0.16
   9   6  -9    2.38    0.20
   8   6  -9    3.20    0.20
   8   6  -9    3.09    0.22
   8   6  -9    3.25    0.23
   7   6  -9    3.20    0.21
   7   6  -9    3.56    0.23
   7   6  -9    3.39    0.24
   6   6  -9   14.16    0.58
   6   6  -9   14.83    0.60
   6   6  -9   13.92    0.59
   5   6  -9    0.49    0.13
   5   6  -9    0.35    0.09
   5   6  -9    0.45    0.11
   4   6  -9    1.79    0.17
   4   6  -9    1.91    0.20
  -3  -6   9   38.37    1.42
   2   6  -9    0.29    0.09
  -2  -6   9    0.39    0.09
   1   6  -9    0.35    0.08
  -1  -6   9    0.40    0.08
   0   6  -9  205.06    7.74
   0  -6   9  224.61    7.74
  -1   6  -9   10.54    0.43
  -3   6  -9   49.29    1.73
  -3   6  -9   38.01    1.60
  -4   6  -9    1.95    0.21
  -4   6  -9    2.44    0.16
  -5   6  -9    0.49    0.12
  -5   6  -9    0.22    0.08
  -6   6  -9    1.94    0.16
  -6   6  -9    2.08    0.20
  -7   6  -9    1.51    0.16
  -8   6  -9    0.24    0.10
  10  -6   9    1.56    0.12
  11  -6   9    0.76    0.09
  12   5  -9    0.67    0.10
  11   5  -9    0.91    0.12
  10   5  -9    0.45    0.11
  10   5  -9    0.70    0.12
  10   5  -9    0.66    0.12
   9   5  -9   -0.02    0.10
   9   5  -9   -0.05    0.08
   9   5  -9   -0.06    0.08
   8   5  -9    2.35    0.22
   8   5  -9    2.57    0.20
   8   5  -9    2.54    0.19
   7   5  -9    0.77    0.16
   7   5  -9    0.50    0.12
   7   5  -9    0.36    0.10
   6   5  -9    6.49    0.32
   6   5  -9    6.71    0.34
   6   5  -9    7.08    0.34
   5   5  -9    8.51    0.36
   5   5  -9    8.36    0.39
   5   5  -9    7.85    0.40
   4   5  -9    0.17    0.08
   4   5  -9    0.21    0.11
  -4  -5   9    0.40    0.09
   3   5  -9    4.29    0.24
  -3  -5   9    4.95    0.22
   2   5  -9    1.15    0.14
  -2  -5   9    1.16    0.10
   1   5  -9    1.55    0.13
  -1  -5   9    1.67    0.10
  -1  -5   9    1.30    0.12
   0   5  -9  130.11    4.69
   0  -5   9  129.59    4.69
  -1   5  -9    0.01    0.06
  -2   5  -9    1.04    0.10
  -2   5  -9    0.82    0.11
  -3   5  -9  179.56    6.11
  -3   5  -9  157.58    6.09
  -4   5  -9    0.88    0.20
  -4   5  -9    0.81    0.11
  -5   5  -9    0.59    0.13
  -5   5  -9    0.98    0.13
  -6   5  -9   -0.01    0.09
  -6   5  -9    0.11    0.08
  -8   5  -9    1.84    0.20
   9  -5   9    0.86    0.13
  10  -5   9    6.35    0.28
  11  -5   9    0.01    0.05
  12   4  -9    0.04    0.06
  11   4  -9    0.12    0.06
  10   4  -9    0.03    0.12
  10   4  -9    0.12    0.09
   9   4  -9    9.42    0.40
   9   4  -9    8.80    0.42
   9   4  -9    8.92    0.40
   8   4  -9    0.09    0.10
   8   4  -9   -0.07    0.11
   8   4  -9    0.07    0.08
   7   4  -9    3.00    0.20
   7   4  -9    3.05    0.23
   7   4  -9    3.24    0.23
   6   4  -9    8.74    0.40
   6   4  -9    8.60    0.41
   6   4  -9    8.76    0.38
   5   4  -9    1.18    0.18
   5   4  -9    1.32    0.15
  -4  -4   9    0.71    0.10
   3   4  -9    1.34    0.15
  -3  -4   9    1.48    0.11
   2   4  -9    2.29    0.15
  -2  -4   9    1.92    0.13
  -2  -4   9    2.13    0.12
   1   4  -9    0.16    0.06
  -1  -4   9    0.03    0.03
  -1  -4   9    0.08    0.05
   0   4  -9    4.24    0.21
   0  -4   9    4.33    0.19
  -1   4  -9    0.02    0.06
   1  -4   9    0.00    0.05
  -2   4  -9    1.39    0.12
  -2   4  -9    1.21    0.11
  -3   4  -9   22.33    0.93
  -3   4  -9   23.89    0.88
  -4   4  -9    0.07    0.07
  -4   4  -9   -0.05    0.13
  -5   4  -9    1.72    0.15
  -5   4  -9    1.68    0.20
  -6   4  -9    8.77    0.39
  -7   4  -9    7.70    0.36
  -8   4  -9    0.49    0.13
   9  -4   9    2.51    0.18
  10  -4   9    0.55    0.10
  11  -4   9    0.23    0.05
  12   3  -9    2.32    0.14
  11   3  -9    0.18    0.07
  10   3  -9    1.79    0.16
  10   3  -9    1.45    0.16
   9   3  -9   15.38    0.66
   9   3  -9   15.71    0.64
   9   3  -9   16.70    0.64
   8   3  -9    4.10    0.24
   8   3  -9    4.09    0.25
   8   3  -9    4.16    0.27
   7   3  -9    0.16    0.09
   7   3  -9    0.24    0.11
   7   3  -9    0.22    0.11
   6   3  -9   22.21    0.85
   6   3  -9   21.50    0.86
   6   3  -9   22.68    0.87
   5   3  -9    3.89    0.25
  -4  -3   9    1.67    0.12
  -3  -3   9    7.06    0.29
   2   3  -9    1.78    0.14
  -2  -3   9    1.92    0.12
  -2  -3   9    2.17    0.11
   1   3  -9    3.05    0.16
  -1  -3   9    2.90    0.14
  -1  -3   9    2.79    0.14
   0   3  -9    2.83    0.16
   0  -3   9    3.12    0.15
  -1   3  -9    0.01    0.05
   1  -3   9    0.11    0.05
  -2   3  -9    0.11    0.06
  -2   3  -9    0.07    0.04
  -3   3  -9   15.21    0.58
  -3   3  -9   14.22    0.58
  -4   3  -9    1.13    0.12
  -4   3  -9    0.90    0.21
  -5   3  -9    0.00    0.15
  -5   3  -9    0.01    0.07
  -6   3  -9    3.89    0.23
  -7   3  -9   15.61    0.64
   8  -3   9    2.53    0.19
   9  -3   9   -0.15    0.06
  10  -3   9    0.22    0.06
  11  -3   9    0.02    0.05
  12   2  -9    0.08    0.06
  11   2  -9    5.15    0.25
  10   2  -9    5.51    0.27
  10   2  -9    5.10    0.28
   9   2  -9    7.41    0.35
   9   2  -9    7.75    0.36
   9   2  -9    7.38    0.39
   8   2  -9    2.13    0.18
   8   2  -9    2.21    0.20
   8   2  -9    2.29    0.23
   7   2  -9    1.26    0.19
   7   2  -9    1.36    0.17
   7   2  -9    1.21    0.20
   6   2  -9   34.16    1.32
   6   2  -9   36.34    1.33
   6   2  -9   35.16    1.32
  -5  -2   9    0.11    0.08
  -5  -2   9    0.08    0.06
  -4  -2   9   -0.04    0.04
  -3  -2   9    0.61    0.07
   2   2  -9    0.09    0.06
  -2  -2   9    0.01    0.03
  -2  -2   9    0.01    0.03
   1   2  -9    0.85    0.10
  -1  -2   9    0.89    0.08
  -1  -2   9    0.88    0.07
   0   2  -9   97.79    3.65
   0  -2   9  104.17    3.65
  -1   2  -9    3.83    0.19
  -1   2  -9    3.66    0.17
   1  -2   9    3.78    0.17
  -2   2  -9    3.19    0.17
  -2   2  -9    3.26    0.16
  -3   2  -9   16.58    0.64
  -3   2  -9   16.32    0.64
  -4   2  -9    0.07    0.07
  -5   2  -9    0.23    0.09
  -5   2  -9    0.07    0.12
  -6   2  -9    3.23    0.26
  -6   2  -9    3.44    0.22
  -7   2  -9    2.53    0.24
  -7   2  -9    3.18    0.27
   8  -2   9    1.47    0.16
   9  -2   9    1.46    0.14
  10  -2   9    1.12    0.11
  11  -2   9   -0.02    0.05
  12   1  -9    1.88    0.13
  11   1  -9    0.13    0.07
  10   1  -9    0.31    0.09
   9   1  -9   10.60    0.47
   9   1  -9   11.13    0.49
   9   1  -9   10.64    0.46
   8   1  -9    0.05    0.11
   8   1  -9   -0.11    0.14
   8   1  -9    0.10    0.10
   7   1  -9    1.11    0.15
   7   1  -9    0.83    0.19
   7   1  -9    1.05    0.19
   6   1  -9    0.01    0.12
   6   1  -9    0.33    0.11
  -6  -1   9    0.26    0.09
  -5  -1   9    1.67    0.13
  -5  -1   9    1.71    0.13
  -4  -1   9    1.09    0.09
  -4  -1   9    0.92    0.11
  -3  -1   9   23.57    0.87
   2   1  -9    0.55    0.10
  -2  -1   9    0.59    0.07
  -2  -1   9    0.62    0.06
   1   1  -9    3.64    0.18
  -1  -1   9    3.62    0.16
   0   1  -9    3.29    0.17
   0  -1   9    2.99    0.15
  -1   1  -9    2.16    0.11
  -1   1  -9    2.14    0.13
   1  -1   9    1.88    0.12
  -2   1  -9    1.53    0.11
  -2   1  -9    1.41    0.12
  -3   1  -9    0.11    0.05
  -3   1  -9    0.18    0.08
  -4   1  -9    4.99    0.28
  -4   1  -9    5.64    0.34
  -5   1  -9   -0.02    0.10
  -5   1  -9    0.04    0.09
  -6   1  -9    0.18    0.11
  -7   1  -9    6.55    0.33
   7  -1   9    6.54    0.33
  -8   1  -9    0.08    0.11
   8  -1   9    0.08    0.08
   9  -1   9    0.05    0.07
  10  -1   9    0.06    0.06
  13   0  -9    2.36    0.14
  12   0  -9    0.05    0.06
  11   0  -9   -0.05    0.07
  10   0  -9    0.18    0.08
   9   0  -9   14.39    0.62
   9   0  -9   14.35    0.58
   8   0  -9    0.50    0.14
   8   0  -9    0.50    0.14
   7   0  -9    1.55    0.20
   7   0  -9    0.98    0.23
   7   0  -9    1.53    0.21
  -7   0   9    1.57    0.17
   6   0  -9   53.73    2.01
  -6   0   9   55.21    2.00
  -5   0   9    1.76    0.13
  -5   0   9    1.60    0.14
  -4   0   9    8.73    0.36
  -4   0   9    9.32    0.36
  -3   0   9   37.04    1.36
  -3   0   9   37.31    1.37
   2   0  -9    0.07    0.05
  -2   0   9   -0.05    0.03
  -2   0   9    0.02    0.02
   1   0  -9    4.26    0.20
  -1   0   9    4.37    0.19
   0   0  -9    2.15    0.14
   0   0   9    2.33    0.12
  -1   0  -9    0.23    0.07
  -1   0  -9    0.17    0.04
   1   0   9    0.16    0.05
  -2   0  -9    4.19    0.20
  -2   0  -9    4.19    0.21
  -3   0  -9   85.13    3.15
  -3   0  -9   88.22    3.15
  -4   0  -9    7.69    0.34
  -4   0  -9    7.53    0.35
  -5   0  -9    0.48    0.10
  -5   0  -9    0.30    0.11
  -6   0  -9   10.52    0.45
   6   0   9   10.14    0.46
  -7   0  -9   19.23    0.75
   7   0   9   18.94    0.77
  -8   0  -9    0.20    0.10
   8   0   9    0.22    0.08
   9   0   9    1.60    0.15
  10   0   9    5.25    0.24
  13  -1  -9    1.92    0.12
  12  -1  -9    0.25    0.07
  11  -1  -9   -0.06    0.07
  10  -1  -9    8.29    0.37
   9  -1  -9    1.22    0.17
   8  -1  -9    3.08    0.31
   8  -1  -9    2.91    0.27
  -8   1   9    3.14    0.21
   7  -1  -9    0.01    0.13
   7  -1  -9   -0.04    0.11
  -7   1   9    0.07    0.08
   6  -1  -9    6.88    0.35
  -5   1   9    0.24    0.06
  -5   1   9    0.22    0.07
  -4   1   9    0.07    0.05
  -4   1   9    0.07    0.04
  -3   1   9    0.51    0.07
  -3   1   9    0.48    0.09
  -2   1   9    4.78    0.21
  -2   1   9    4.83    0.20
   1  -1  -9    2.63    0.15
  -1   1   9    2.78    0.13
   0  -1  -9    0.73    0.10
   0   1   9    0.74    0.08
  -1  -1  -9    0.77    0.08
  -1  -1  -9    0.82    0.11
   1   1   9    0.79    0.09
  -2  -1  -9   -0.07    0.07
  -2  -1  -9    0.02    0.04
  -3  -1  -9    0.79    0.13
  -3  -1  -9    1.04    0.14
  -4  -1  -9    0.10    0.09
  -4  -1  -9    0.11    0.08
   4   1   9    0.06    0.12
  -5  -1  -9    0.06    0.08
   5   1   9    0.09    0.10
  -6  -1  -9   36.00    1.38
   6   1   9   37.82    1.40
  -7  -1  -9    7.83    0.35
   7   1   9    7.77    0.37
  -8  -1  -9    0.13    0.09
   8   1   9    0.08    0.08
  -9  -1  -9    2.92    0.20
   9   1   9    2.91    0.19
  10   1   9   -0.01    0.06
  13  -2  -9   13.54    0.51
  12  -2  -9    1.40    0.12
  11  -2  -9    0.03    0.06
  10  -2  -9    2.18    0.17
   9  -2  -9   22.69    0.89
  -9   2   9   23.25    0.89
   8  -2  -9    1.43    0.25
  -8   2   9    1.02    0.14
   7  -2  -9   -0.06    0.13
   7  -2  -9    0.26    0.11
  -7   2   9    0.06    0.08
   6  -2  -9    1.91    0.25
  -6   2   9    1.80    0.13
  -5   2   9    5.81    0.27
  -5   2   9    6.33    0.27
  -4   2   9    0.93    0.09
  -4   2   9    1.23    0.10
  -3   2   9    1.74    0.12
  -3   2   9    1.57    0.11
  -2   2   9    0.01    0.03
  -2   2   9    0.11    0.04
  -1   2   9    0.42    0.07
   0  -2  -9    5.33    0.24
   0   2   9    4.99    0.22
  -1  -2  -9    0.55    0.08
  -1  -2  -9    0.51    0.11
   1   2   9    0.51    0.10
  -2  -2  -9    1.58    0.13
  -2  -2  -9    1.75    0.15
  -3  -2  -9  257.36    9.29
  -3  -2  -9  259.47    9.29
  -3  -2  -9  257.04    9.29
  -4  -2  -9    3.18    0.20
   4   2   9    3.03    0.23
  -5  -2  -9    0.58    0.13
   5   2   9    0.94    0.17
  -6  -2  -9    6.22    0.30
   6   2   9    6.51    0.33
  -7  -2  -9   21.75    0.83
   7   2   9   21.04    0.85
   8   2   9    1.52    0.15
  -9  -2  -9    3.97    0.21
   9   2   9    4.20    0.22
  10   2   9    4.95    0.23
  13  -3  -9    0.63    0.10
  12  -3  -9    0.85    0.11
  11  -3  -9    5.61    0.27
  10  -3  -9   10.34    0.44
   9  -3  -9    0.71    0.15
  -9   3   9    0.72    0.15
   8  -3  -9    4.02    0.25
  -8   3   9    4.36    0.23
   7  -3  -9    7.83    0.42
   7  -3  -9    8.03    0.38
  -7   3   9    8.73    0.36
   6  -3  -9    1.09    0.22
  -6   3   9    1.55    0.20
  -6   3   9    1.48    0.12
  -5   3   9    0.28    0.07
  -4   3   9    0.37    0.07
  -4   3   9    0.23    0.07
  -4   3   9    0.35    0.08
  -3   3   9   34.12    1.21
  -3   3   9   31.99    1.22
  -3   3   9   32.97    1.21
  -2   3   9    1.69    0.10
  -2   3   9    1.75    0.11
  -1   3   9    0.08    0.04
  -1   3   9    0.06    0.03
   0   3   9   34.99    1.28
  -1  -3  -9    2.17    0.13
   1   3   9    1.91    0.15
  -2  -3  -9    6.75    0.30
  -2  -3  -9    6.69    0.30
  -3  -3  -9    1.13    0.15
  -3  -3  -9    0.92    0.17
   3   3   9    0.99    0.15
  -4  -3  -9   -0.09    0.08
   4   3   9    0.12    0.11
  -5  -3  -9   10.85    0.45
   5   3   9   10.47    0.47
  -6  -3  -9    2.61    0.19
   6   3   9    3.15    0.22
  -7  -3  -9    0.55    0.13
   7   3   9    0.44    0.10
  -8  -3  -9   -0.08    0.07
   8   3   9    0.14    0.09
  -9  -3  -9    1.27    0.13
   9   3   9    1.36    0.13
  10   3   9    1.24    0.10
  13  -4  -9    0.78    0.10
  12  -4  -9    0.14    0.06
  11  -4  -9    0.64    0.12
  10  -4  -9    2.55    0.18
 -10   4   9    2.58    0.22
   9  -4  -9    0.05    0.08
   8  -4  -9    1.32    0.16
  -8   4   9    0.96    0.13
   7  -4  -9    0.26    0.10
   7  -4  -9    0.31    0.16
  -7   4   9    0.14    0.07
   6  -4  -9   30.83    1.20
  -6   4   9   32.34    1.18
  -5   4   9    1.84    0.13
  -5   4   9    1.31    0.16
  -4   4   9    2.92    0.21
  -4   4   9    3.05    0.16
  -4   4   9    3.22    0.17
  -3   4   9   43.03    1.52
  -3   4   9   41.96    1.53
  -3   4   9   39.59    1.51
  -2   4   9    0.12    0.05
  -2   4   9    0.00    0.06
  -2   4   9    0.12    0.04
  -1   4   9    0.26    0.05
  -1   4   9    0.29    0.06
   0   4   9   37.10    1.36
  -1  -4  -9    2.16    0.14
   1   4   9    1.86    0.16
  -2  -4  -9   -0.02    0.09
  -2  -4  -9   -0.08    0.08
  -3  -4  -9   33.91    1.28
   3   4   9   34.69    1.30
  -4  -4  -9    0.39    0.08
   4   4   9    0.21    0.10
  -5  -4  -9    0.91    0.14
   5   4   9    0.83    0.17
  -6  -4  -9    6.59    0.31
   6   4   9    6.51    0.33
  -7  -4  -9    1.31    0.14
   7   4   9    1.46    0.16
  -8  -4  -9    0.02    0.06
   8   4   9    0.04    0.07
  -9  -4  -9    0.40    0.07
   9   4   9    0.44    0.10
  13  -5  -9   10.51    0.41
  12  -5  -9    0.09    0.06
  11  -5  -9    0.79    0.12
  10  -5  -9    4.11    0.22
 -10   5   9    3.76    0.24
   9  -5  -9   42.50    1.59
  -9   5   9   42.70    1.59
   8  -5  -9    8.60    0.39
  -8   5   9    8.94    0.38
   7  -5  -9    1.57    0.27
  -7   5   9    1.91    0.14
   6  -5  -9   17.97    0.73
  -6   5   9   18.20    0.70
   5  -5  -9    0.61    0.13
  -5   5   9    0.80    0.10
  -4   5   9    1.83    0.12
  -3   5   9    5.33    0.24
  -2   5   9    2.95    0.14
  -2   5   9    2.83    0.16
  -1   5   9    0.01    0.06
  -1   5   9    0.04    0.04
   0   5   9   13.53    0.53
  -1  -5  -9    2.55    0.20
   1   5   9    2.66    0.18
  -2  -5  -9    4.96    0.25
   2   5   9    4.81    0.30
  -3  -5  -9   15.66    0.59
   3   5   9   13.71    0.61
  -4  -5  -9    0.03    0.08
  -5  -5  -9    6.40    0.30
   5   5   9    5.80    0.32
  -6  -5  -9   18.89    0.74
   6   5   9   18.99    0.77
  -7  -5  -9    6.71    0.32
   7   5   9    7.59    0.34
  -8  -5  -9    0.04    0.06
   8   5   9    0.00    0.07
  -9  -5  -9    2.76    0.16
   9   5   9    2.63    0.15
  12  -6  -9   -0.02    0.06
  11  -6  -9    1.53    0.13
 -11   6   9    1.77    0.22
  10  -6  -9    2.83    0.19
 -10   6   9    2.80    0.20
   9  -6  -9   16.73    0.66
  -9   6   9   16.45    0.66
   8  -6  -9    0.93    0.16
  -8   6   9    0.92    0.13
  -7   6   9    0.50    0.10
   6  -6  -9    5.89    0.33
  -6   6   9    6.12    0.28
   5  -6  -9    3.19    0.24
  -5   6   9    3.49    0.33
  -5   6   9    3.31    0.18
   4  -6  -9    0.05    0.12
  -4   6   9    0.05    0.05
   3  -6  -9   40.12    1.46
  -3   6   9   37.20    1.43
   2  -6  -9   -0.06    0.17
  -2   6   9    0.07    0.06
  -1   6   9    2.63    0.17
   0   6   9   10.93    0.45
  -1  -6  -9    2.63    0.19
   1   6   9    2.71    0.25
  -2  -6  -9    0.24    0.09
   2   6   9   -0.18    0.12
  -3  -6  -9    0.10    0.07
   3   6   9    0.25    0.12
  -4  -6  -9    1.19    0.15
   4   6   9    1.84    0.20
  -5  -6  -9    0.22    0.08
   5   6   9    0.16    0.10
  -6  -6  -9    1.31    0.14
   6   6   9    1.53    0.17
  -7  -6  -9    0.10    0.06
   7   6   9    0.18    0.08
  -8  -6  -9    0.02    0.05
   8   6   9    0.07    0.06
  -9  -6  -9    0.86    0.09
  11  -7  -9    0.14    0.06
 -11   7   9   -0.05    0.11
  10  -7  -9    0.64    0.12
 -10   7   9    0.69    0.14
   9  -7  -9    2.14    0.17
  -9   7   9    2.02    0.16
  -8   7   9    0.03    0.08
  -7   7   9    5.86    0.28
   6  -7  -9   44.59    1.67
  -6   7   9   45.22    1.67
   5  -7  -9    0.08    0.10
  -5   7   9    0.09    0.06
  -5   7   9   -0.04    0.14
   4  -7  -9    0.78    0.18
  -4   7   9    1.03    0.11
   3  -7  -9    0.10    0.10
  -3   7   9    0.11    0.06
   2  -7  -9    0.50    0.11
  -2   7   9    0.64    0.10
  -1   7   9    0.27    0.07
   0  -7  -9   38.36    1.46
   0   7   9   39.52    1.49
   0   7   9   39.87    1.46
  -1  -7  -9    0.63    0.15
   1   7   9    0.62    0.15
  -2  -7  -9    0.14    0.08
   2   7   9    0.00    0.10
  -3  -7  -9    0.14    0.08
   3   7   9    0.08    0.10
  -4  -7  -9    0.81    0.13
   4   7   9    0.72    0.13
  -5  -7  -9    0.43    0.09
   5   7   9    0.36    0.11
  -6  -7  -9    2.21    0.16
   6   7   9    2.21    0.19
  -7  -7  -9   -0.06    0.05
   7   7   9    0.10    0.07
  -8  -7  -9    0.09    0.05
   8   7   9    0.07    0.06
  12  -8  -9    0.48    0.09
  11  -8  -9    0.76    0.11
 -11   8   9    0.90    0.16
  10  -8  -9    1.73    0.15
 -10   8   9    1.94    0.16
   9  -8  -9    5.77    0.27
  -9   8   9    4.94    0.26
  -8   8   9    0.10    0.07
  -7   8   9    4.38    0.23
   6  -8  -9   49.47    1.92
  -6   8   9   53.41    1.93
  -6   8   9   52.80    1.92
   5  -8  -9    0.09    0.11
  -5   8   9    0.14    0.07
  -5   8   9    0.07    0.13
   4  -8  -9    1.74    0.19
  -4   8   9    1.69    0.14
  -4   8   9    1.53    0.26
   3  -8  -9   55.21    2.03
  -3   8   9   54.49    2.02
   2  -8  -9    0.65    0.16
  -2   8   9    0.55    0.12
  -2   8   9    0.72    0.19
  -1   8   9    2.11    0.16
  -1   8   9    1.42    0.25
   0  -8  -9   20.28    0.82
   0   8   9   21.71    0.84
  -1  -8  -9   11.17    0.46
   1   8   9   10.83    0.50
  -2  -8  -9    1.44    0.16
   2   8   9    1.71    0.20
  -3  -8  -9    0.08    0.08
   3   8   9    0.00    0.10
  -4  -8  -9    0.01    0.07
   4   8   9    0.06    0.10
  -5  -8  -9    3.81    0.21
   5   8   9    4.00    0.24
  -6  -8  -9    4.56    0.23
   6   8   9    4.52    0.25
  -7  -8  -9    2.80    0.16
   7   8   9    2.87    0.18
  -8  -8  -9    0.82    0.08
   8   8   9    0.87    0.10
  12  -9  -9    0.44    0.10
  11  -9  -9   -0.02    0.06
 -11   9   9   -0.01    0.10
  10  -9  -9    0.93    0.13
 -10   9   9    1.10    0.14
   9  -9  -9    6.58    0.30
  -9   9   9    6.00    0.30
  -8   9   9    0.44    0.11
   6  -9  -9   23.62    0.94
  -6   9   9   24.61    0.93
  -6   9   9   23.99    0.93
   5  -9  -9    2.04    0.21
  -5   9   9    2.41    0.23
  -5   9   9    2.01    0.15
   4  -9  -9    0.75    0.13
  -4   9   9    0.76    0.12
  -4   9   9    0.87    0.15
   3  -9  -9    9.09    0.40
  -3   9   9    8.30    0.45
  -3   9   9    9.07    0.39
   2  -9  -9   -0.06    0.09
  -2   9   9    0.01    0.08
  -2   9   9    0.44    0.16
  -1   9   9    0.01    0.10
  -1   9   9    0.21    0.14
   0  -9  -9   -0.01    0.11
   0   9   9   -0.10    0.12
  -1  -9  -9    1.61    0.24
   1   9   9    1.78    0.21
  -2  -9  -9    1.58    0.16
   2   9   9    1.52    0.21
  -3  -9  -9   28.94    1.14
   3   9   9   31.35    1.17
  -4  -9  -9    2.55    0.17
   4   9   9    2.19    0.20
  -5  -9  -9    0.06    0.06
   5   9   9    0.03    0.09
  -6  -9  -9    2.70    0.16
  -6  -9  -9    3.19    0.21
   6   9   9    2.82    0.19
  -7  -9  -9    1.81    0.12
   7   9   9    1.68    0.13
  -8  -9  -9    0.01    0.04
   8   9   9    0.10    0.06
  11 -10  -9    0.55    0.09
 -11  10   9    0.29    0.10
  10 -10  -9   11.58    0.46
 -10  10   9   11.09    0.51
   9 -10  -9   12.83    0.51
  -9  10   9   12.15    0.51
  -8  10   9    0.04    0.07
  -7  10   9   11.36    0.48
   6 -10  -9   57.27    2.15
  -6  10   9   59.11    2.15
   5 -10  -9    0.48    0.20
  -5  10   9    0.34    0.08
  -5  10   9    0.53    0.14
   4 -10  -9    0.99    0.18
  -4  10   9    1.27    0.14
   3 -10  -9   18.06    0.73
  -3  10   9   18.96    0.72
  -3  10   9   18.22    0.76
  -3  10   9   18.09    0.74
   2 -10  -9    0.05    0.09
  -2  10   9   -0.01    0.09
  -2  10   9    0.05    0.14
  -2  10   9   -0.06    0.14
  -1  10   9    1.26    0.26
   0 -10  -9   78.86    3.04
   0  10   9   87.35    3.06
  -1 -10  -9    0.09    0.10
   1  10   9   -0.04    0.11
  -2 -10  -9    1.08    0.15
   2  10   9    0.70    0.18
  -3 -10  -9   12.58    0.51
   3  10   9   12.30    0.54
  -4 -10  -9   -0.02    0.07
   4  10   9    0.07    0.09
  -5 -10  -9    0.68    0.11
   5  10   9    0.61    0.13
  -6 -10  -9    9.60    0.39
   6  10   9    9.92    0.41
  -7 -10  -9    2.15    0.12
   7  10   9    2.01    0.13
  11 -11  -9   -0.03    0.06
  10 -11  -9    4.57    0.22
 -10  11   9    4.71    0.24
   9 -11  -9    0.78    0.12
  -9  11   9    0.97    0.13
  -8  11   9    0.08    0.07
  -7  11   9    0.11    0.08
  -6  11   9   24.30    0.95
  -6  11   9   24.71    0.95
   5 -11  -9    1.82    0.20
  -5  11   9    1.62    0.16
  -5  11   9    1.93    0.21
   4 -11  -9    0.32    0.11
  -4  11   9    0.33    0.17
  -4  11   9    0.55    0.14
  -4  11   9    0.46    0.12
   3 -11  -9  103.25    3.69
  -3  11   9   97.49    3.68
  -3  11   9  100.87    3.68
  -3  11   9  102.83    3.69
  -2  11   9    0.52    0.12
  -2  11   9    0.84    0.15
  -2  11   9    0.80    0.15
  -1  11   9    0.96    0.21
  -1  11   9    1.15    0.23
   0  11   9   41.22    1.56
  -1 -11  -9    9.80    0.45
   1  11   9   10.58    0.46
  -2 -11  -9    4.35    0.24
   2  11   9    4.14    0.26
  -3 -11  -9    1.27    0.15
   3  11   9    1.07    0.17
  -4 -11  -9    7.34    0.32
   4  11   9    6.87    0.33
  -5 -11  -9    0.20    0.07
  -5 -11  -9    0.01    0.06
   5  11   9    0.19    0.07
  -6 -11  -9    0.06    0.05
   6  11   9    0.02    0.06
  10 -12  -9    1.30    0.16
 -10  12   9    1.12    0.13
   9 -12  -9    0.71    0.12
  -9  12   9    0.48    0.13
  -8  12   9   -0.01    0.07
  -7  12   9    0.22    0.08
  -6  12   9    2.77    0.19
  -6  12   9    2.62    0.21
   5 -12  -9    0.77    0.18
  -5  12   9    0.56    0.13
  -5  12   9    0.86    0.14
   4 -12  -9    0.11    0.10
  -4  12   9    0.11    0.11
  -4  12   9    0.38    0.15
  -4  12   9    0.20    0.09
   3 -12  -9   73.23    2.57
  -3  12   9   67.70    2.56
  -3  12   9   66.60    2.56
  -3  12   9   71.61    2.57
   2 -12  -9    3.49    0.21
  -2  12   9    2.75    0.25
  -2  12   9    3.27    0.26
  -1  12   9    2.41    0.23
  -1  12   9    2.58    0.25
   0  12   9   10.76    0.63
   0  12   9   12.58    0.52
  -1 -12  -9    0.67    0.13
   1  12   9    0.64    0.16
   2  12   9    0.31    0.10
  -3 -12  -9    3.06    0.19
   3  12   9    2.87    0.20
  -4 -12  -9    0.17    0.07
  -4 -12  -9    0.03    0.06
   4  12   9    0.12    0.07
  -5 -12  -9    0.07    0.06
  -5 -12  -9    0.01    0.07
   5  12   9   -0.03    0.06
  -6 -12  -9    0.53    0.08
   6  12   9    0.50    0.09
  10 -13  -9    0.11    0.08
   9 -13  -9    0.17    0.07
  -9  13   9    0.16    0.08
  -8  13   9    0.78    0.19
  -7  13   9    5.14    0.26
  -6  13   9    0.03    0.08
  -6  13   9    0.17    0.10
   5 -13  -9    0.49    0.12
  -5  13   9    0.48    0.11
  -5  13   9    0.57    0.14
   4 -13  -9    0.10    0.10
  -4  13   9    0.13    0.11
  -4  13   9    0.14    0.10
  -4  13   9   -0.06    0.13
   3 -13  -9   61.01    2.21
  -3  13   9   57.87    2.20
  -3  13   9   60.45    2.21
   2 -13  -9   -0.01    0.08
  -2  13   9    0.81    0.20
  -2  13   9    0.06    0.11
   1 -13  -9   -0.01    0.08
  -1  13   9   -0.05    0.10
  -1  13   9    0.16    0.12
   0  13   9   22.29    0.88
  -2 -13  -9    0.46    0.11
   2  13   9    0.74    0.13
  -3 -13  -9    0.40    0.09
  -3 -13  -9    0.58    0.11
   3  13   9    0.52    0.09
  -4 -13  -9    7.98    0.33
  -4 -13  -9    7.77    0.32
   4  13   9    7.61    0.33
  -5 -13  -9    0.49    0.10
  -5 -13  -9    0.56    0.11
   5  13   9    0.38    0.09
   9 -14  -9    0.82    0.12
  -9  14   9    0.57    0.13
  -8  14   9    0.02    0.08
  -7  14   9    0.00    0.09
  -6  14   9   14.88    0.60
   5 -14  -9   -0.05    0.14
  -5  14   9    0.04    0.10
  -5  14   9   -0.02    0.10
   4 -14  -9    0.14    0.09
  -4  14   9    0.27    0.11
  -4  14   9    0.09    0.12
  -3  14   9    0.79    0.19
  -3  14   9    1.07    0.19
  -2  14   9    0.05    0.11
  -2  14   9   -0.09    0.10
   1 -14  -9    0.94    0.17
  -1  14   9    0.88    0.16
   0 -14  -9    0.02    0.07
   0  14   9    0.11    0.09
  -1 -14  -9   -0.01    0.06
   1  14   9    0.05    0.08
  -2 -14  -9    2.48    0.16
   2  14   9    2.35    0.17
  -3 -14  -9    1.25    0.11
   3  14   9    1.21    0.13
  -4 -14  -9    4.44    0.20
   4  14   9    4.64    0.21
   8 -15  -9    0.18    0.09
  -7  15   9    0.80    0.17
  -6  15   9    4.89    0.28
  -5  15   9    0.04    0.09
   4 -15  -9    0.13    0.09
  -4  15   9   -0.07    0.11
  -4  15   9    0.25    0.11
   3 -15  -9    8.64    0.38
  -3  15   9    8.88    0.39
  -3  15   9    8.61    0.39
   2 -15  -9    0.05    0.07
  -2  15   9    0.10    0.12
  -2  15   9    0.05    0.09
   1 -15  -9    0.20    0.07
  -1  15   9    0.14    0.09
   0 -15  -9    0.86    0.11
   0  15   9    0.62    0.13
  -1 -15  -9    1.85    0.13
   1  15   9    1.94    0.15
  -2 -15  -9    0.03    0.05
   2  15   9   -0.03    0.07
  -3 -15  -9    2.99    0.15
   3  15   9    2.65    0.16
   3 -16  -9    2.48    0.17
  -3  16   9    2.81    0.20
   2 -16  -9   -0.08    0.06
  -2  16   9    0.01    0.09
   1 -16  -9    0.29    0.07
  -1  16   9    0.43    0.09
   0 -16  -9   20.87    0.80
   0  16   9   21.75    0.81
  -1 -16  -9    0.11    0.05
   1  16   9    0.13    0.07
  -2 -16  -9    0.27    0.07
   2  16   9    0.19    0.07
   2 -17  -9    0.15    0.07
  -2  17   9    0.33    0.10
   1 -17  -9    0.21    0.07
  -1  17   9    0.23    0.09
   0 -17  -9    2.41    0.14
   1  18 -10   -0.07    0.10
   0  18 -10   -0.10    0.10
  -1  18 -10    2.25    0.18
  -2  18 -10    2.03    0.15
  -3  18 -10    0.13    0.08
  -4  18 -10    0.13    0.08
   4  17 -10    0.12    0.07
   4  17 -10    0.17    0.08
   3  17 -10   -0.08    0.09
   3  17 -10    0.26    0.08
   2  17 -10    6.59    0.30
   1  17 -10    0.64    0.14
   0  17 -10    0.47    0.11
   0  17 -10    0.96    0.15
  -1  17 -10    5.84    0.28
  -1  17 -10    5.78    0.28
  -2  17 -10    0.18    0.08
  -2  17 -10    0.04    0.12
  -3  17 -10    0.02    0.07
  -4  17 -10    2.55    0.16
  -5  17 -10    0.30    0.07
  -6  17 -10    0.16    0.07
   5  16 -10    6.61    0.28
   4  16 -10   -0.05    0.07
   4  16 -10   -0.04    0.07
   3  16 -10   -0.10    0.09
   3  16 -10    0.05    0.08
   2  16 -10    1.19    0.19
   2  16 -10    1.72    0.16
   1  16 -10    0.11    0.12
   1  16 -10   -0.08    0.08
   0  16 -10   -0.10    0.09
   0  16 -10   -0.09    0.10
  -1  16 -10    2.31    0.19
  -1  16 -10    2.34    0.20
  -2  16 -10    0.03    0.09
  -2  16 -10    0.09    0.10
  -3  16 -10   -0.08    0.08
  -3  16 -10    0.23    0.11
  -4  16 -10    0.09    0.07
  -4  16 -10    0.13    0.13
  -5  16 -10    0.82    0.12
  -5  16 -10    0.79    0.18
  -6  16 -10    0.25    0.07
   6  15 -10    0.17    0.07
   6  15 -10    0.05    0.06
   5  15 -10    0.01    0.06
   5  15 -10    0.00    0.07
   4  15 -10    0.07    0.08
   4  15 -10   -0.11    0.09
   4  15 -10    0.03    0.08
   3  15 -10    3.07    0.20
   3  15 -10    2.97    0.21
   2  15 -10    0.05    0.09
   2  15 -10    0.03    0.11
   1  15 -10    0.13    0.12
   1  15 -10    0.08    0.09
   0  15 -10    1.22    0.19
   0  15 -10    0.88    0.19
  -1  15 -10    2.61    0.22
  -2  15 -10   -0.29    0.14
  -2  15 -10    0.09    0.11
  -3  15 -10    0.10    0.09
  -3  15 -10   -0.01    0.12
  -3  15 -10    0.12    0.12
  -4  15 -10    0.10    0.10
  -4  15 -10    0.12    0.08
  -5  15 -10    2.18    0.17
  -5  15 -10    2.47    0.18
  -6  15 -10    0.04    0.09
  -6  15 -10    0.04    0.07
  -7  15 -10    1.14    0.10
  -7  15 -10    1.04    0.15
   7  14 -10    0.64    0.09
   7  14 -10    0.62    0.11
   6  14 -10    0.37    0.08
   6  14 -10    0.46    0.10
   6  14 -10    0.29    0.07
   5  14 -10    0.41    0.09
   5  14 -10    0.43    0.08
   5  14 -10    0.24    0.08
   4  14 -10    0.04    0.09
   4  14 -10    0.00    0.09
   4  14 -10    0.02    0.09
   3  14 -10    7.88    0.38
   3  14 -10    8.44    0.39
   2  14 -10    5.90    0.31
   2  14 -10    6.02    0.33
   1  14 -10   -0.02    0.14
   1  14 -10    0.02    0.10
   1  14 -10    0.29    0.14
   0  14 -10    0.03    0.11
   0  14 -10    0.14    0.12
  -1  14 -10    4.55    0.27
  -1  14 -10    4.57    0.28
  -2  14 -10    1.14    0.19
  -2  14 -10    0.79    0.17
  -2  14 -10    1.08    0.20
  -3  14 -10    0.06    0.09
  -3  14 -10    0.10    0.09
  -3  14 -10   -0.23    0.14
  -4  14 -10    1.44    0.23
  -4  14 -10    1.20    0.16
  -5  14 -10    5.14    0.27
  -5  14 -10    5.97    0.28
  -6  14 -10    0.66    0.17
  -6  14 -10    0.57    0.12
  -7  14 -10    2.13    0.16
  -7  14 -10    2.09    0.14
   8  13 -10    0.43    0.08
   8  13 -10    0.46    0.09
   7  13 -10    0.05    0.05
   7  13 -10    0.04    0.06
   7  13 -10    0.06    0.07
   6  13 -10    0.01    0.06
   6  13 -10    0.17    0.08
   6  13 -10   -0.06    0.07
   5  13 -10    2.51    0.18
   5  13 -10    2.74    0.20
   4  13 -10    0.18    0.09
   4  13 -10    0.16    0.10
   4  13 -10    0.14    0.09
   3  13 -10    3.79    0.24
   3  13 -10    3.70    0.24
   3  13 -10    3.74    0.25
   2  13 -10   18.27    0.73
   2  13 -10   18.36    0.74
   2  13 -10   18.19    0.73
   1  13 -10    0.18    0.15
   1  13 -10    0.23    0.15
   1  13 -10    0.02    0.11
   0  13 -10    0.13    0.12
   0  13 -10    0.34    0.13
  -1  13 -10    7.15    0.35
  -1  13 -10    7.13    0.37
  -1  13 -10    7.03    0.36
  -2  13 -10    1.01    0.18
  -2  13 -10    1.09    0.16
  -2  13 -10    1.08    0.15
  -3  13 -10    0.16    0.10
  -3  13 -10   -0.08    0.09
  -3  13 -10   -0.15    0.12
  -4  13 -10    3.21    0.21
  -4  13 -10    3.12    0.21
  -5  13 -10    0.12    0.08
  -5  13 -10    0.27    0.08
  -6  13 -10   -0.12    0.07
  -6  13 -10    0.08    0.08
  -7  13 -10    7.86    0.36
  -7  13 -10    8.01    0.34
  -8  13 -10   -0.01    0.08
   9  12 -10    1.06    0.12
   9  12 -10    0.79    0.10
   8  12 -10    0.87    0.12
   8  12 -10    1.09    0.11
   8  12 -10    1.01    0.09
   7  12 -10   -0.01    0.07
   7  12 -10    0.12    0.08
   7  12 -10    0.01    0.06
   6  12 -10    0.07    0.07
   6  12 -10   -0.13    0.08
   5  12 -10    4.08    0.25
   5  12 -10    4.58    0.26
   5  12 -10    4.19    0.24
   4  12 -10   10.34    0.44
   4  12 -10    9.93    0.46
   4  12 -10   10.68    0.45
   3  12 -10    1.00    0.19
   3  12 -10    1.07    0.17
   3  12 -10    1.54    0.20
   2  12 -10   10.96    0.48
   2  12 -10   11.06    0.50
   2  12 -10   11.11    0.48
   1  12 -10    1.26    0.20
   1  12 -10    1.33    0.25
   1  12 -10    1.24    0.26
   0  12 -10    1.14    0.21
   0  12 -10    1.02    0.16
  -1  12 -10    9.91    0.46
  -1  12 -10   10.91    0.45
  -1  12 -10   10.03    0.47
  -2  12 -10    0.39    0.12
  -2  12 -10    0.56    0.15
  -2  12 -10    0.27    0.10
  -3  12 -10    1.77    0.19
  -3  12 -10    1.98    0.19
  -4  12 -10   59.27    2.14
  -4  12 -10   56.02    2.14
  -5  12 -10    1.09    0.15
  -5  12 -10    0.87    0.16
  -6  12 -10    2.23    0.18
  -6  12 -10    2.85    0.20
  -7  12 -10    1.28    0.14
  -7  12 -10    1.28    0.14
  -8  12 -10    0.47    0.12
   9  11 -10    0.61    0.11
   9  11 -10    0.91    0.11
   8  11 -10    1.90    0.15
   8  11 -10    1.91    0.15
   8  11 -10    1.72    0.13
   7  11 -10    3.06    0.20
   7  11 -10    3.24    0.20
   7  11 -10    3.17    0.18
   6  11 -10    3.89    0.24
   6  11 -10    3.76    0.24
   6  11 -10    4.06    0.22
   5  11 -10    0.78    0.15
   5  11 -10    0.85    0.16
   5  11 -10    0.70    0.17
   4  11 -10    0.09    0.10
   4  11 -10    0.00    0.09
   4  11 -10    0.01    0.10
   3  11 -10    0.42    0.10
   3  11 -10    0.20    0.12
   3  11 -10    0.37    0.12
   2  11 -10    7.13    0.35
   2  11 -10    6.86    0.36
   2  11 -10    7.31    0.37
   1  11 -10    2.04    0.23
   1  11 -10    2.46    0.25
   1  11 -10    2.34    0.27
   0  11 -10    3.76    0.29
   0  11 -10    4.25    0.24
   0  11 -10    3.11    0.30
  -1  11 -10  169.79    6.39
  -1  11 -10  183.55    6.41
  -2  11 -10    1.66    0.16
  -2  11 -10    1.41    0.21
  -3  11 -10    1.21    0.19
  -3  11 -10    1.49    0.16
  -4  11 -10   34.03    1.29
  -5  11 -10    6.12    0.31
  -5  11 -10    5.97    0.30
  -6  11 -10   -0.01    0.08
  -6  11 -10    0.00    0.08
  -7  11 -10    1.36    0.15
  -7  11 -10    1.68    0.15
  -8  11 -10    3.23    0.21
  -9  11 -10    0.44    0.10
  10  10 -10    0.22    0.06
  10  10 -10    0.16    0.07
   9  10 -10    4.07    0.20
   9  10 -10    4.10    0.21
   9  10 -10    3.98    0.21
   8  10 -10    0.09    0.08
   8  10 -10    0.12    0.06
   8  10 -10    0.12    0.08
   7  10 -10    4.96    0.25
   7  10 -10    4.72    0.27
   7  10 -10    5.23    0.27
   6  10 -10    2.81    0.21
   6  10 -10    2.73    0.19
   6  10 -10    2.75    0.21
   5  10 -10   19.29    0.77
   5  10 -10   18.95    0.75
   5  10 -10   18.67    0.75
   4  10 -10    1.21    0.16
   4  10 -10    0.92    0.18
   4  10 -10    1.14    0.19
   3  10 -10   -0.07    0.11
   3  10 -10    0.04    0.12
   3  10 -10   -0.02    0.12
   2  10 -10    0.70    0.15
   2  10 -10    0.84    0.15
   2  10 -10    0.74    0.12
   1  10 -10    1.23    0.22
   1  10 -10    1.48    0.26
   0  10 -10   -0.11    0.17
   0  10 -10    0.02    0.09
  -1  10 -10    2.05    0.17
  -1  10 -10    1.79    0.23
  -2  10 -10    0.17    0.08
  -2  10 -10    0.35    0.13
  -3  10 -10    0.88    0.18
  -3  10 -10    1.14    0.14
  -4  10 -10   10.58    0.45
  -4  10 -10   10.42    0.46
  -5  10 -10    1.12    0.14
  -5  10 -10    1.34    0.17
  -6  10 -10   -0.01    0.07
  -6  10 -10   -0.08    0.09
  -7  10 -10    1.57    0.16
  -7  10 -10    2.05    0.17
  -8  10 -10    0.07    0.08
  -9  10 -10    0.44    0.10
  10 -10  10    0.09    0.05
  10   9 -10    0.04    0.09
   9   9 -10    0.10    0.07
   9   9 -10    0.23    0.08
   9   9 -10    0.21    0.06
   8   9 -10   27.04    1.02
   8   9 -10   25.23    1.00
   7   9 -10    0.31    0.09
   7   9 -10    0.54    0.12
   7   9 -10    0.77    0.16
   6   9 -10    0.06    0.08
   6   9 -10   -0.13    0.09
   6   9 -10    0.05    0.10
   5   9 -10    7.80    0.36
   5   9 -10    7.93    0.38
   5   9 -10    8.16    0.38
   4   9 -10    0.83    0.18
   4   9 -10    0.80    0.20
   4   9 -10    0.85    0.17
   3   9 -10   -0.02    0.11
   3   9 -10    0.02    0.09
   3   9 -10    0.06    0.13
   2   9 -10    0.21    0.13
   2   9 -10    0.17    0.11
   1   9 -10    1.19    0.17
   1   9 -10    1.35    0.26
   1   9 -10    1.08    0.21
   0   9 -10    2.85    0.19
  -1   9 -10    2.01    0.16
  -1   9 -10    1.94    0.26
  -2   9 -10    1.12    0.13
  -2   9 -10    0.97    0.22
  -3   9 -10    0.05    0.07
  -3   9 -10    0.17    0.12
  -4   9 -10    9.21    0.43
  -4   9 -10    9.68    0.42
  -5   9 -10    2.84    0.23
  -5   9 -10    3.64    0.21
  -6   9 -10    0.35    0.10
  -6   9 -10    0.22    0.09
  -7   9 -10    1.40    0.16
  -7   9 -10    1.85    0.17
  -8   9 -10    0.84    0.14
  -9   9 -10   -0.01    0.10
  10  -9  10    0.06    0.06
  11   8 -10    2.16    0.14
  10   8 -10    3.10    0.17
  10   8 -10    3.06    0.16
  10   8 -10    3.16    0.19
   9   8 -10    3.02    0.20
   9   8 -10    3.32    0.20
   9   8 -10    2.91    0.18
   8   8 -10    2.37    0.19
   8   8 -10    2.03    0.16
   8   8 -10    2.29    0.19
   7   8 -10    1.24    0.15
   7   8 -10    1.77    0.18
   7   8 -10    1.30    0.17
   6   8 -10    1.73    0.19
   6   8 -10    1.96    0.16
   6   8 -10    1.91    0.20
   5   8 -10   12.01    0.53
   5   8 -10   12.56    0.51
   5   8 -10   12.70    0.54
   4   8 -10    0.44    0.10
   4   8 -10    0.05    0.14
   4   8 -10    0.34    0.11
   3   8 -10    0.16    0.12
   3   8 -10    0.19    0.09
   2   8 -10    0.67    0.16
   2   8 -10    1.10    0.22
   1   8 -10    3.30    0.25
   1   8 -10    3.29    0.24
   0   8 -10    0.12    0.08
  -1   8 -10   21.72    0.83
  -2   8 -10    0.96    0.23
  -2   8 -10    0.71    0.11
  -3   8 -10    0.75    0.14
  -3   8 -10    0.78    0.12
  -4   8 -10   21.70    0.86
  -4   8 -10   21.97    0.85
  -5   8 -10    3.52    0.24
  -5   8 -10    3.98    0.22
  -6   8 -10    2.30    0.18
  -6   8 -10    2.51    0.20
  -7   8 -10    5.21    0.27
  -8   8 -10    1.64    0.16
  -9   8 -10   -0.04    0.10
  10  -8  10    0.11    0.05
  11   7 -10    0.07    0.06
  10   7 -10    0.02    0.09
  10   7 -10    0.18    0.07
  10   7 -10    0.09    0.06
   9   7 -10    1.58    0.17
   9   7 -10    1.67    0.16
   8   7 -10    2.14    0.19
   8   7 -10    2.34    0.17
   8   7 -10    2.39    0.20
   7   7 -10    0.26    0.08
   7   7 -10    0.23    0.11
   7   7 -10    0.19    0.10
   6   7 -10    4.70    0.28
   6   7 -10    5.48    0.30
   6   7 -10    5.02    0.26
   5   7 -10    1.11    0.18
   5   7 -10    1.01    0.23
   5   7 -10    1.25    0.15
   4   7 -10   -0.16    0.15
   4   7 -10   -0.06    0.09
   4   7 -10    0.11    0.10
   3   7 -10    0.00    0.08
   3   7 -10    0.10    0.12
   2   7 -10    2.84    0.20
   2   7 -10    2.81    0.27
   2   7 -10    2.65    0.22
   1   7 -10    6.39    0.29
  -1  -7  10    6.67    0.30
   0   7 -10    0.12    0.07
   0  -7  10    0.11    0.08
  -1   7 -10   13.09    0.52
  -2   7 -10    0.04    0.07
  -3   7 -10   -0.02    0.12
  -3   7 -10    0.01    0.06
  -4   7 -10    6.80    0.31
  -4   7 -10    6.36    0.34
  -5   7 -10    3.51    0.21
  -5   7 -10    3.67    0.24
  -6   7 -10    0.30    0.10
  -6   7 -10    0.49    0.12
  -7   7 -10    3.25    0.21
  -8   7 -10    1.52    0.17
  -9   7 -10   -0.02    0.12
  10  -7  10    0.39    0.08
  11   6 -10    3.13    0.17
  10   6 -10    0.26    0.10
  10   6 -10    0.21    0.06
  10   6 -10    0.13    0.08
   9   6 -10    7.29    0.33
   9   6 -10    6.99    0.31
   9   6 -10    6.16    0.33
   8   6 -10   24.74    0.95
   8   6 -10   24.42    0.97
   8   6 -10   24.74    0.95
   7   6 -10    0.22    0.10
   7   6 -10    0.10    0.08
   7   6 -10   -0.11    0.10
   6   6 -10   -0.07    0.11
   5   6 -10   36.67    1.35
   5   6 -10   36.01    1.34
   5   6 -10   34.42    1.35
   4   6 -10    0.16    0.08
   4   6 -10    0.15    0.11
   3   6 -10    1.31    0.30
   3   6 -10    1.13    0.17
   3   6 -10    1.59    0.20
   2   6 -10    0.13    0.09
  -2  -6  10    0.07    0.06
   1   6 -10    0.47    0.09
  -1  -6  10    0.32    0.06
   0   6 -10    0.28    0.07
   0  -6  10    0.18    0.06
  -2   6 -10    0.18    0.07
  -3   6 -10    0.74    0.11
  -3   6 -10    0.92    0.22
  -4   6 -10   22.00    0.86
  -4   6 -10   21.74    0.85
  -5   6 -10    1.10    0.14
  -6   6 -10    0.67    0.16
  -6   6 -10    0.82    0.13
  -7   6 -10    4.62    0.25
  -8   6 -10    8.02    0.37
   9  -6  10    0.01    0.06
  10  -6  10    3.02    0.16
  12   5 -10    7.24    0.30
  11   5 -10    1.37    0.13
  10   5 -10    0.26    0.08
  10   5 -10    0.25    0.10
  10   5 -10    0.26    0.07
   9   5 -10    7.30    0.34
   9   5 -10    7.93    0.35
   9   5 -10    7.35    0.36
   8   5 -10    0.09    0.08
   8   5 -10   -0.09    0.09
   8   5 -10    0.11    0.11
   7   5 -10    0.32    0.11
   7   5 -10    0.11    0.11
   7   5 -10    0.40    0.09
   6   5 -10    0.34    0.12
   6   5 -10    0.39    0.11
   6   5 -10    0.48    0.09
   5   5 -10   17.49    0.76
   5   5 -10   19.08    0.73
   5   5 -10   19.57    0.75
   4   5 -10    0.65    0.17
   4   5 -10    0.77    0.15
   3   5 -10    0.00    0.10
  -3  -5  10    0.05    0.06
   2   5 -10    6.21    0.29
  -2  -5  10    6.57    0.28
   1   5 -10    1.97    0.14
  -1  -5  10    2.06    0.13
   0   5 -10   11.01    0.44
  -1   5 -10   25.92    0.98
  -2   5 -10   13.22    0.53
  -3   5 -10    5.09    0.33
  -3   5 -10    5.07    0.24
  -4   5 -10    2.06    0.23
  -4   5 -10    2.20    0.16
  -5   5 -10    0.09    0.08
  -5   5 -10    0.03    0.11
  -6   5 -10    0.30    0.09
  -7   5 -10    2.35    0.19
  -8   5 -10    0.12    0.11
   9  -5  10    0.07    0.07
  10  -5  10    0.08    0.06
  12   4 -10    4.33    0.20
  11   4 -10    0.23    0.07
  10   4 -10    0.07    0.11
  10   4 -10   -0.01    0.08
  10   4 -10    0.06    0.08
   9   4 -10    0.13    0.09
   9   4 -10    0.08    0.08
   9   4 -10    0.01    0.11
   8   4 -10   11.56    0.50
   8   4 -10   11.54    0.49
   8   4 -10   12.54    0.52
   7   4 -10    0.77    0.13
   7   4 -10    0.45    0.14
   7   4 -10    0.68    0.15
   6   4 -10    1.44    0.18
   6   4 -10    1.43    0.16
   6   4 -10    2.10    0.24
   5   4 -10   11.51    0.47
   5   4 -10   11.22    0.48
   4   4 -10    0.02    0.15
   4   4 -10    0.11    0.11
   3   4 -10    1.95    0.16
  -3  -4  10    1.81    0.13
   2   4 -10    1.99    0.15
  -2  -4  10    2.25    0.13
   1   4 -10    1.64    0.13
  -1  -4  10    1.52    0.11
   0   4 -10   -0.01    0.06
  -1   4 -10  169.99    6.14
  -2   4 -10    9.50    0.39
  -2   4 -10    9.51    0.39
  -3   4 -10    6.65    0.30
  -4   4 -10    0.11    0.07
  -4   4 -10    0.20    0.13
  -5   4 -10    0.45    0.12
  -6   4 -10    1.16    0.15
  -7   4 -10    1.61    0.18
  -8   4 -10    2.84    0.24
   9  -4  10    0.59    0.12
  10  -4  10    1.71    0.13
  12   3 -10    0.74    0.11
  11   3 -10    1.08    0.13
  10   3 -10    0.15    0.12
   9   3 -10   10.80    0.49
   9   3 -10   10.87    0.46
   9   3 -10   11.16    0.47
   8   3 -10    5.62    0.28
   8   3 -10    5.62    0.29
   8   3 -10    5.09    0.31
   7   3 -10    0.12    0.11
   7   3 -10    0.12    0.09
   7   3 -10    0.06    0.11
   6   3 -10    1.02    0.16
   6   3 -10    1.02    0.16
   6   3 -10    0.77    0.17
   5   3 -10  210.74    7.61
   5   3 -10  212.35    7.62
  -5  -3  10  210.49    7.61
  -4  -3  10    0.08    0.05
  -3  -3  10    0.42    0.08
   2   3 -10   78.08    2.88
  -2  -3  10   80.46    2.88
   1   3 -10    0.41    0.10
  -1  -3  10    0.44    0.09
   0   3 -10    0.39    0.09
  -1   3 -10    4.35    0.21
  -2   3 -10   12.82    0.51
  -2   3 -10   12.80    0.51
  -3   3 -10    3.50    0.19
  -4   3 -10    0.51    0.11
  -4   3 -10    0.66    0.14
  -5   3 -10   -0.03    0.08
  -5   3 -10    0.02    0.13
  -6   3 -10    1.91    0.18
  -7   3 -10   25.02    0.97
   8  -3  10    0.72    0.13
   9  -3  10   -0.01    0.06
  10  -3  10    0.59    0.09
  12   2 -10    1.60    0.13
  11   2 -10    0.72    0.12
  10   2 -10    0.29    0.11
  10   2 -10    0.12    0.08
   9   2 -10    2.93    0.21
   9   2 -10    2.75    0.25
   9   2 -10    3.10    0.21
   8   2 -10   16.01    0.65
   8   2 -10   15.87    0.63
   8   2 -10   15.39    0.64
   7   2 -10    0.83    0.19
   7   2 -10    0.48    0.10
   7   2 -10    0.70    0.18
   6   2 -10    0.12    0.09
   6   2 -10    0.06    0.14
   6   2 -10    0.08    0.09
  -6  -2  10   -0.02    0.10
   5   2 -10   27.54    1.06
  -5  -2  10   28.34    1.05
  -4  -2  10    0.81    0.11
  -3  -2  10    1.01    0.09
   2   2 -10    9.31    0.38
  -2  -2  10    9.47    0.37
  -2  -2  10    9.07    0.37
   1   2 -10    1.91    0.13
  -1  -2  10    2.01    0.12
  -1  -2  10    2.34    0.12
   0   2 -10    0.30    0.06
   0  -2  10    0.32    0.06
  -1   2 -10    0.95    0.11
  -2   2 -10    1.86    0.14
  -2   2 -10    2.28    0.14
  -3   2 -10    1.64    0.14
  -4   2 -10    0.04    0.08
  -4   2 -10   -0.14    0.11
  -5   2 -10    2.75    0.23
  -5   2 -10    2.55    0.19
  -6   2 -10    0.05    0.10
  -6   2 -10   -0.19    0.11
  -7   2 -10    0.29    0.12
   7  -2  10    0.27    0.09
   8  -2  10   16.34    0.66
   9  -2  10   -0.02    0.06
  10  -2  10    0.57    0.09
  12   1 -10   10.20    0.41
  11   1 -10    0.02    0.07
  10   1 -10    0.88    0.15
   9   1 -10   13.76    0.59
   9   1 -10   14.39    0.57
   9   1 -10   13.59    0.57
   8   1 -10   24.14    0.95
   8   1 -10   24.69    0.95
   8   1 -10   25.13    0.96
   7   1 -10    1.09    0.18
   7   1 -10    0.88    0.19
   7   1 -10    0.75    0.14
  -7  -1  10    0.73    0.17
   6   1 -10    4.16    0.26
   6   1 -10    4.45    0.25
  -6  -1  10    4.17    0.26
  -5  -1  10   26.21    1.00
  -5  -1  10   22.99    0.92
  -4  -1  10    0.57    0.10
  -3  -1  10    0.39    0.07
   2   1 -10   68.66    2.50
  -2  -1  10   68.81    2.50
  -2  -1  10   68.88    2.50
   1   1 -10    4.18    0.19
  -1  -1  10    3.79    0.18
   0   1 -10   -0.04    0.05
   0  -1  10   -0.06    0.05
  -1   1 -10    4.57    0.22
  -1   1 -10    4.91    0.21
  -2   1 -10    0.01    0.06
  -2   1 -10    0.04    0.05
  -3   1 -10    3.19    0.21
  -4   1 -10   25.52    0.97
  -4   1 -10   25.50    0.97
  -5   1 -10    0.79    0.14
  -5   1 -10    0.51    0.11
  -6   1 -10    2.13    0.20
  -6   1 -10    1.97    0.21
   6  -1  10    1.63    0.19
  -7   1 -10    7.51    0.35
   7  -1  10    6.94    0.35
  -8   1 -10   18.24    0.73
   8  -1  10   19.33    0.75
   9  -1  10    0.04    0.06
  10  -1  10    1.15    0.11
  12   0 -10    4.11    0.20
  11   0 -10    0.46    0.09
  10   0 -10    2.69    0.19
   9   0 -10    2.87    0.27
   9   0 -10    3.39    0.22
   8   0 -10   13.06    0.61
   8   0 -10   13.76    0.56
   8   0 -10   13.93    0.57
   7   0 -10    2.95    0.25
   7   0 -10    3.21    0.24
   7   0 -10    2.76    0.24
  -7   0  10    3.01    0.20
   6   0 -10    8.22    0.39
   6   0 -10    8.29    0.39
  -6   0  10    9.06    0.36
  -5   0  10    0.13    0.08
  -5   0  10    0.21    0.06
  -4   0  10    0.22    0.06
  -4   0  10    0.17    0.06
  -3   0  10    4.06    0.18
  -3   0  10    3.82    0.20
   2   0 -10  194.42    7.38
  -2   0  10  208.36    7.38
  -2   0  10  212.31    7.38
   1   0 -10    3.53    0.18
  -1   0  10    3.57    0.17
   0   0 -10    1.05    0.10
   0   0  10    0.88    0.10
  -1   0 -10    5.30    0.25
  -1   0 -10    5.43    0.24
  -2   0 -10    6.88    0.31
  -2   0 -10    7.12    0.31
  -3   0 -10    0.23    0.08
  -3   0 -10    0.38    0.09
  -4   0 -10    1.29    0.15
  -4   0 -10    1.42    0.17
  -5   0 -10    5.50    0.29
  -5   0 -10    5.60    0.29
   5   0  10    5.69    0.31
  -6   0 -10    2.36    0.19
   6   0  10    2.26    0.20
  -7   0 -10    3.68    0.23
   7   0  10    3.62    0.23
  -8   0 -10    0.92    0.16
   8   0  10    0.61    0.14
   9   0  10    0.12    0.07
  10   0  10    5.22    0.24
  12  -1 -10    0.09    0.06
  11  -1 -10    0.26    0.08
  10  -1 -10    0.07    0.08
   9  -1 -10    6.58    0.38
   9  -1 -10    7.20    0.33
   8  -1 -10    2.82    0.22
  -8   1  10    2.56    0.19
   7  -1 -10    0.60    0.13
   7  -1 -10    0.47    0.21
   7  -1 -10    0.84    0.14
  -7   1  10    1.02    0.14
   6  -1 -10    1.10    0.19
  -6   1  10    1.25    0.12
  -5   1  10   30.76    1.14
  -5   1  10   30.46    1.14
  -4   1  10    3.31    0.17
  -4   1  10    3.18    0.17
  -3   1  10    0.11    0.04
  -3   1  10    0.00    0.06
  -2   1  10   13.87    0.54
  -2   1  10   14.38    0.54
   1  -1 -10    0.17    0.06
  -1   1  10    0.12    0.05
   0  -1 -10    0.15    0.06
   0   1  10    0.07    0.05
  -1  -1 -10    0.02    0.07
  -1  -1 -10    0.20    0.06
  -2  -1 -10    7.82    0.35
  -2  -1 -10    8.68    0.36
  -3  -1 -10    0.14    0.08
  -3  -1 -10    0.20    0.09
   3   1  10    0.10    0.14
  -4  -1 -10    8.83    0.37
  -4  -1 -10    8.41    0.38
   4   1  10    8.27    0.40
  -6  -1 -10   -0.10    0.08
   6   1  10    0.25    0.10
  -7  -1 -10   46.08    1.71
   7   1  10   46.11    1.73
  -8  -1 -10    0.09    0.09
  -9  -1 -10    1.06    0.15
   9   1  10    0.99    0.12
  10   1  10    0.08    0.06
  12  -2 -10    0.03    0.07
  11  -2 -10    1.46    0.14
  10  -2 -10   -0.07    0.08
   9  -2 -10    0.92    0.16
  -9   2  10    1.21    0.18
   8  -2 -10    0.62    0.23
   8  -2 -10    0.54    0.12
  -8   2  10    0.52    0.13
   7  -2 -10    2.38    0.24
   7  -2 -10    2.40    0.23
  -7   2  10    2.79    0.17
   6  -2 -10    0.05    0.12
  -6   2  10    0.23    0.07
  -5   2  10   54.06    1.97
  -5   2  10   53.74    1.98
  -4   2  10    1.49    0.11
  -4   2  10    1.40    0.11
  -3   2  10    0.57    0.09
  -3   2  10    0.72    0.09
  -3   2  10    0.48    0.11
  -2   2  10   34.35    1.27
  -2   2  10   35.01    1.28
  -1   2  10    2.75    0.15
   0  -2 -10    0.10    0.06
   0   2  10    0.01    0.05
  -1  -2 -10    0.24    0.06
  -1  -2 -10    0.25    0.08
  -2  -2 -10   32.47    1.22
  -2  -2 -10   32.81    1.22
  -2  -2 -10   32.86    1.22
  -3  -2 -10    2.24    0.19
  -3  -2 -10    2.60    0.17
   3   2  10    2.51    0.25
  -4  -2 -10    2.90    0.19
   4   2  10    3.00    0.24
  -5  -2 -10    0.45    0.08
   5   2  10    0.53    0.12
  -6  -2 -10    4.82    0.25
   6   2  10    4.32    0.27
  -7  -2 -10    0.95    0.14
   7   2  10    1.21    0.16
  -8  -2 -10    2.69    0.17
   8   2  10    2.50    0.18
  -9  -2 -10   -0.01    0.08
   9   2  10    0.00    0.06
  10   2  10    0.05    0.05
  12  -3 -10    4.05    0.20
  11  -3 -10    1.64    0.14
  10  -3 -10    0.87    0.15
   9  -3 -10    1.67    0.18
   8  -3 -10   14.51    0.60
  -8   3  10   14.83    0.59
   7  -3 -10    0.02    0.12
   7  -3 -10    0.07    0.13
  -7   3  10    0.08    0.07
   6  -3 -10    1.76    0.21
  -6   3  10    1.78    0.13
   5  -3 -10  105.29    3.82
  -5   3  10  106.02    3.80
  -5   3  10  103.29    3.80
  -4   3  10    0.60    0.10
  -4   3  10    0.60    0.09
  -4   3  10    0.73    0.11
  -3   3  10    0.58    0.09
  -3   3  10    0.46    0.09
  -3   3  10    0.64    0.12
  -2   3  10    2.19    0.14
  -2   3  10    2.20    0.12
  -1   3  10    0.42    0.10
  -1   3  10    0.36    0.08
   0   3  10    1.01    0.12
  -1  -3 -10    3.19    0.18
  -2  -3 -10    1.25    0.18
  -2  -3 -10    1.22    0.14
  -3  -3 -10    1.92    0.15
   3   3  10    1.55    0.22
  -4  -3 -10   15.26    0.61
   4   3  10   15.31    0.63
  -5  -3 -10    8.30    0.37
   5   3  10    8.26    0.39
  -6  -3 -10    0.04    0.07
   6   3  10   -0.09    0.09
  -7  -3 -10    0.43    0.09
   7   3  10    0.31    0.09
  -8  -3 -10   11.19    0.45
   8   3  10   10.62    0.46
  -9  -3 -10    0.09    0.07
   9   3  10    0.10    0.06
  12  -4 -10    8.51    0.35
  11  -4 -10    0.26    0.07
  10  -4 -10    0.42    0.09
 -10   4  10    0.34    0.12
   9  -4 -10    8.10    0.37
  -9   4  10    8.38    0.37
   8  -4 -10   11.98    0.52
   8  -4 -10   12.12    0.61
  -8   4  10   13.17    0.51
   7  -4 -10    4.42    0.28
   7  -4 -10    4.79    0.30
  -7   4  10    5.24    0.25
   6  -4 -10    7.07    0.35
  -6   4  10    7.33    0.32
   5  -4 -10   32.92    1.26
  -5   4  10   33.92    1.25
  -4   4  10    2.85    0.17
  -4   4  10    2.96    0.16
  -3   4  10    0.70    0.10
  -3   4  10    0.77    0.10
  -2   4  10   13.89    0.54
  -2   4  10   14.65    0.56
  -2   4  10   14.13    0.55
  -1   4  10    1.61    0.13
  -1   4  10    1.56    0.11
  -1  -4 -10    2.84    0.20
  -2  -4 -10    3.68    0.27
   2   4  10    3.62    0.28
  -3  -4 -10    0.17    0.07
   3   4  10    0.36    0.12
  -4  -4 -10    1.74    0.15
  -5  -4 -10    0.10    0.07
   5   4  10    0.01    0.09
  -6  -4 -10    1.40    0.14
   6   4  10    1.29    0.17
  -7  -4 -10    7.07    0.32
   7   4  10    6.91    0.34
  -8  -4 -10    0.01    0.06
   8   4  10   -0.02    0.07
  -9  -4 -10    0.21    0.06
   9   4  10    0.20    0.06
  12  -5 -10    6.34    0.27
  11  -5 -10    7.61    0.33
  10  -5 -10    2.86    0.19
 -10   5  10    2.61    0.20
   9  -5 -10    0.36    0.09
  -9   5  10    0.32    0.09
   8  -5 -10   28.70    1.13
  -8   5  10   31.32    1.14
   7  -5 -10    1.52    0.23
  -7   5  10    1.54    0.14
   6  -5 -10    0.40    0.12
  -6   5  10    0.55    0.11
   5  -5 -10    0.16    0.10
  -5   5  10    0.00    0.06
   4  -5 -10    0.33    0.11
  -4   5  10    0.38    0.09
   3  -5 -10    1.39    0.18
  -3   5  10    1.44    0.12
   2  -5 -10   32.11    1.26
   1  -5 -10    0.06    0.10
  -1   5  10    0.17    0.07
   0   5  10    1.66    0.15
  -1  -5 -10   58.00    2.17
   1   5  10   60.20    2.17
  -2  -5 -10    3.34    0.20
   2   5  10    2.88    0.26
  -3  -5 -10    0.40    0.09
   3   5  10    0.21    0.11
  -4  -5 -10    0.17    0.08
   4   5  10    0.20    0.11
  -5  -5 -10   13.35    0.55
   5   5  10   13.46    0.57
  -6  -5 -10    1.56    0.14
   6   5  10    1.41    0.17
  -7  -5 -10    4.92    0.25
   7   5  10    5.51    0.27
  -8  -5 -10    0.57    0.09
   8   5  10    0.60    0.11
  -9  -5 -10    1.12    0.10
  12  -6 -10    4.25    0.20
  11  -6 -10    1.91    0.15
 -11   6  10    1.77    0.22
  10  -6 -10    2.44    0.24
 -10   6  10    2.50    0.19
   9  -6 -10   -0.07    0.08
  -9   6  10    0.10    0.08
   8  -6 -10    4.67    0.26
  -8   6  10    4.62    0.24
   7  -6 -10    0.05    0.13
  -7   6  10    0.17    0.07
   6  -6 -10    4.19    0.27
  -6   6  10    4.72    0.23
   5  -6 -10    1.72    0.19
  -5   6  10    1.80    0.14
   4  -6 -10    0.41    0.11
  -4   6  10    0.41    0.10
   3  -6 -10    0.02    0.09
  -3   6  10    0.10    0.06
   2  -6 -10   34.06    1.31
  -2   6  10   35.74    1.30
   1  -6 -10    0.00    0.09
  -1   6  10    0.01    0.07
   0  -6 -10    0.33    0.11
   0   6  10    0.20    0.09
  -1  -6 -10    0.12    0.08
   1   6  10    0.31    0.14
  -2  -6 -10   -0.09    0.07
   2   6  10    0.14    0.12
  -3  -6 -10    1.21    0.14
   3   6  10    0.93    0.19
  -4  -6 -10    0.70    0.13
   4   6  10    1.01    0.18
  -5  -6 -10    0.54    0.12
  -5  -6 -10    0.67    0.14
   5   6  10    0.80    0.17
  -6  -6 -10    2.96    0.18
   6   6  10    2.73    0.21
  -7  -6 -10    0.29    0.06
   7   6  10    0.11    0.07
  -8  -6 -10    0.17    0.06
   8   6  10    0.29    0.07
  12  -7 -10    3.85    0.19
  11  -7 -10    1.65    0.14
 -11   7  10    1.56    0.19
  10  -7 -10    1.13    0.14
 -10   7  10    0.96    0.14
   9  -7 -10    0.47    0.10
  -9   7  10    0.36    0.08
   8  -7 -10    0.71    0.16
  -8   7  10    0.46    0.12
   7  -7 -10   -0.17    0.13
  -7   7  10    0.11    0.06
   6  -7 -10   20.22    0.84
  -6   7  10   22.52    0.83
   5  -7 -10    5.28    0.28
  -5   7  10    5.38    0.26
   4  -7 -10    0.11    0.10
  -4   7  10    0.05    0.06
   3  -7 -10    0.32    0.11
  -3   7  10    0.39    0.10
   2  -7 -10    7.96    0.36
  -2   7  10    8.05    0.35
   1  -7 -10    0.88    0.15
  -1   7  10    0.67    0.13
   0  -7 -10    0.32    0.10
   0   7  10    0.43    0.16
   0   7  10    0.31    0.10
  -1  -7 -10    9.90    0.43
   1   7  10    9.92    0.46
   2   7  10   11.73    0.52
  -3  -7 -10    0.23    0.08
   3   7  10    0.40    0.12
  -4  -7 -10    0.05    0.06
   4   7  10    0.17    0.10
  -5  -7 -10   19.93    0.76
  -5  -7 -10   18.84    0.77
   5   7  10   19.67    0.78
  -6  -7 -10    0.09    0.10
   6   7  10    0.29    0.10
  -7  -7 -10    0.07    0.05
   7   7  10    0.07    0.07
  -8  -7 -10    0.33    0.08
   8   7  10    0.25    0.07
  12  -8 -10    2.86    0.16
  11  -8 -10    0.02    0.06
 -11   8  10    0.01    0.10
  10  -8 -10    1.25    0.14
 -10   8  10    1.18    0.15
   9  -8 -10   15.92    0.61
  -9   8  10   14.63    0.61
  -8   8  10    0.13    0.07
  -7   8  10    0.60    0.12
   6  -8 -10    3.03    0.23
  -6   8  10    3.29    0.19
   5  -8 -10   84.39    3.11
  -5   8  10   81.22    3.11
  -5   8  10   89.71    3.11
   4  -8 -10    0.45    0.11
  -4   8  10    0.50    0.12
   3  -8 -10    0.16    0.10
  -3   8  10    0.20    0.07
   2  -8 -10    0.07    0.08
  -2   8  10    0.09    0.07
   1  -8 -10    1.07    0.16
  -1   8  10    1.25    0.15
  -1   8  10    0.98    0.26
   0  -8 -10    2.63    0.22
   0   8  10    3.04    0.26
  -1  -8 -10   41.18    1.61
   1   8  10   45.15    1.63
  -2  -8 -10    0.18    0.08
   2   8  10    0.09    0.11
  -3  -8 -10    2.48    0.18
   3   8  10    2.13    0.21
  -4  -8 -10    0.77    0.13
   4   8  10    1.09    0.18
  -5  -8 -10    1.23    0.21
  -5  -8 -10    1.77    0.14
   5   8  10    1.54    0.17
  -6  -8 -10    0.04    0.06
   6   8  10   -0.03    0.07
  -7  -8 -10    4.79    0.22
   7   8  10    4.83    0.24
  -8  -8 -10   15.10    0.56
   8   8  10   14.42    0.57
  11  -9 -10    0.37    0.07
 -11   9  10    0.38    0.10
  10  -9 -10    0.15    0.07
 -10   9  10    0.12    0.07
   9  -9 -10    0.69    0.14
  -9   9  10    0.57    0.12
  -8   9  10    3.63    0.21
  -7   9  10    1.21    0.13
   6  -9 -10    0.29    0.12
  -6   9  10    0.24    0.08
   5  -9 -10    0.40    0.11
  -5   9  10    0.37    0.26
  -5   9  10    0.53    0.11
   4  -9 -10    0.04    0.11
  -4   9  10   -0.03    0.08
   3  -9 -10    0.33    0.15
  -3   9  10    0.44    0.10
  -2   9  10    7.98    0.36
  -2   9  10    7.82    0.43
  -1   9  10    0.26    0.15
  -1   9  10    0.67    0.17
   0  -9 -10    0.40    0.18
   0   9  10   -0.31    0.21
  -1  -9 -10   32.02    1.23
   1   9  10   33.37    1.26
  -2  -9 -10    6.92    0.32
   2   9  10    6.72    0.36
  -3  -9 -10    0.01    0.08
   3   9  10   -0.03    0.10
  -4  -9 -10   24.04    0.94
   4   9  10   25.38    0.97
  -5  -9 -10    0.99    0.15
  -5  -9 -10    1.21    0.12
   5   9  10    0.92    0.15
  -6  -9 -10    0.05    0.05
   6   9  10    0.07    0.07
  -7  -9 -10   -0.06    0.04
   7   9  10    0.11    0.06
  11 -10 -10    3.69    0.18
 -11  10  10    3.27    0.22
  10 -10 -10    0.27    0.07
 -10  10  10    0.02    0.08
   9 -10 -10    7.59    0.33
  -9  10  10    7.10    0.33
  -8  10  10    1.30    0.13
  -7  10  10    1.88    0.16
   6 -10 -10    4.29    0.27
  -6  10  10    4.49    0.24
   5 -10 -10    3.00    0.22
  -5  10  10    2.87    0.18
  -5  10  10    2.38    0.24
   4 -10 -10    0.65    0.12
  -4  10  10    0.79    0.16
  -4  10  10    0.76    0.13
   3 -10 -10    0.98    0.16
  -3  10  10    0.98    0.15
   2 -10 -10   43.24    1.60
  -2  10  10   42.61    1.59
  -2  10  10   42.43    1.61
   1 -10 -10    8.50    0.38
  -1  10  10    7.99    0.42
   0 -10 -10    0.04    0.12
   0  10  10    0.09    0.12
  -1 -10 -10   93.57    3.44
   1  10  10   95.26    3.46
  -2 -10 -10   -0.03    0.08
   2  10  10   -0.02    0.10
  -3 -10 -10    0.93    0.13
   3  10  10    1.05    0.16
  -4 -10 -10    4.02    0.21
  -4 -10 -10    3.61    0.22
   4  10  10    3.37    0.25
  -5 -10 -10   19.46    0.78
  -5 -10 -10   21.06    0.78
   5  10  10   20.66    0.80
  -6 -10 -10    0.15    0.05
   6  10  10   -0.07    0.06
  -7 -10 -10    0.22    0.05
   7  10  10    0.40    0.08
  10 -11 -10    0.75    0.14
 -10  11  10    0.69    0.13
   9 -11 -10    5.57    0.26
  -9  11  10    5.62    0.27
  -8  11  10    6.76    0.31
  -7  11  10    3.96    0.22
   6 -11 -10   -0.02    0.11
  -6  11  10   -0.01    0.07
   5 -11 -10    7.35    0.34
  -5  11  10    6.50    0.32
  -5  11  10    6.66    0.35
   4 -11 -10    1.62    0.19
  -4  11  10    1.73    0.16
  -4  11  10    1.40    0.24
   3 -11 -10    0.93    0.16
  -3  11  10    1.08    0.17
   2 -11 -10    2.60    0.19
  -2  11  10    1.96    0.25
  -2  11  10    2.44    0.33
   1 -11 -10    0.93    0.16
  -1  11  10    0.49    0.13
   0  11  10    1.92    0.21
  -1 -11 -10   41.55    1.59
   1  11  10   44.24    1.62
  -2 -11 -10    2.43    0.18
   2  11  10    2.19    0.20
  -3 -11 -10    3.28    0.19
   3  11  10    2.47    0.28
  -4 -11 -10    2.09    0.15
  -4 -11 -10    1.90    0.15
   4  11  10    2.13    0.17
  -5 -11 -10    0.95    0.10
  -5 -11 -10    0.99    0.13
   5  11  10    0.84    0.11
  -6 -11 -10    0.37    0.08
   6  11  10    0.46    0.09
  10 -12 -10    0.08    0.08
 -10  12  10   -0.04    0.08
   9 -12 -10    0.86    0.13
  -9  12  10    1.07    0.13
  -8  12  10    0.35    0.08
  -7  12  10    0.08    0.07
  -6  12  10    1.41    0.15
   5 -12 -10    9.84    0.43
  -5  12  10    9.66    0.44
  -5  12  10    9.47    0.42
   4 -12 -10    0.63    0.17
  -4  12  10    0.33    0.13
  -4  12  10    0.15    0.10
   3 -12 -10    0.44    0.10
  -3  12  10    0.43    0.11
  -3  12  10    0.35    0.14
   2 -12 -10    0.39    0.10
  -2  12  10    0.37    0.13
   1 -12 -10    0.57    0.14
  -1  12  10    0.69    0.14
   0 -12 -10    0.13    0.08
   0  12  10   -0.05    0.10
  -1 -12 -10    2.24    0.18
   1  12  10    2.49    0.21
  -2 -12 -10    3.46    0.22
  -2 -12 -10    3.84    0.22
   2  12  10    3.70    0.23
  -3 -12 -10    0.13    0.07
  -3 -12 -10    0.06    0.06
   3  12  10   -0.07    0.08
  -4 -12 -10    0.01    0.06
  -4 -12 -10   -0.02    0.06
   4  12  10    0.07    0.07
  -5 -12 -10    1.05    0.12
  -5 -12 -10    1.10    0.11
   5  12  10    1.14    0.11
   9 -13 -10    1.15    0.15
  -9  13  10    0.95    0.13
  -8  13  10   16.84    0.66
  -7  13  10   -0.20    0.08
  -6  13  10    0.11    0.08
   5 -13 -10    9.68    0.42
  -5  13  10    9.21    0.41
  -5  13  10    9.91    0.43
   4 -13 -10   -0.03    0.09
  -4  13  10    0.02    0.10
   3 -13 -10    0.33    0.10
  -3  13  10    0.47    0.14
   2 -13 -10    7.72    0.35
  -2  13  10    7.36    0.37
   1 -13 -10    0.00    0.08
  -1  13  10    0.07    0.11
   0 -13 -10    0.62    0.14
   0  13  10    0.80    0.17
  -1 -13 -10    2.28    0.16
   1  13  10    2.21    0.19
  -2 -13 -10    0.17    0.14
  -2 -13 -10    0.16    0.06
   2  13  10    0.14    0.08
  -3 -13 -10    2.17    0.14
  -3 -13 -10    1.98    0.16
   3  13  10    2.26    0.16
  -4 -13 -10    9.64    0.39
   4  13  10    9.80    0.40
  -8  14  10    1.59    0.15
  -7  14  10   -0.01    0.09
  -6  14  10    0.10    0.09
   5 -14 -10    5.12    0.27
  -5  14  10    4.25    0.34
   4 -14 -10    0.35    0.09
  -4  14  10    0.35    0.15
   3 -14 -10   -0.02    0.08
  -3  14  10    0.21    0.12
   2 -14 -10   20.24    0.79
  -2  14  10   20.16    0.79
   1 -14 -10    0.92    0.13
  -1  14  10    0.98    0.16
   0 -14 -10    0.11    0.07
   0  14  10    0.06    0.09
  -1 -14 -10    2.75    0.17
   1  14  10    3.14    0.19
  -2 -14 -10    0.29    0.07
   2  14  10    0.36    0.08
  -3 -14 -10    0.04    0.05
  -6  15  10    0.86    0.23
   4 -15 -10    0.08    0.09
   3 -15 -10    0.38    0.08
  -3  15  10    0.19    0.13
   2 -15 -10    7.95    0.34
  -2  15  10    7.75    0.36
   1 -15 -10    0.07    0.06
  -1  15  10   -0.04    0.09
   0 -15 -10    0.76    0.10
   0  15  10    0.70    0.13
  -1 -15 -10    0.80    0.10
   1  15  10    0.96    0.13
  -2 -15 -10    0.08    0.05
   2  15  10    0.09    0.07
   3 -16 -10    0.49    0.09
   2 -16 -10    8.13    0.33
  -2  16  10    7.74    0.36
   1 -16 -10    2.50    0.14
  -1  16  10    2.00    0.18
   0 -16 -10    0.04    0.05
  -1 -16 -10   14.56    0.55
   1  16  10   14.04    0.55
   2 -17 -10    0.10    0.07
   1 -17 -10   -0.03    0.06
   4  17 -11    8.03    0.40
   2  17 -11    2.03    0.25
  -2  17 -11    2.03    0.22
  -4  17 -11    0.05    0.08
  -5  17 -11    4.48    0.21
   5  16 -11    1.37    0.12
   4  16 -11    0.13    0.09
   4  16 -11   -0.07    0.07
   3  16 -11    0.35    0.10
   3  16 -11    0.24    0.09
   2  16 -11    0.91    0.16
   1  16 -11    7.16    0.34
   0  16 -11    0.27    0.16
   0  16 -11   -0.01    0.11
  -1  16 -11    0.30    0.11
  -2  16 -11    0.09    0.09
  -3  16 -11    0.12    0.08
  -4  16 -11   -0.07    0.07
  -4  16 -11    0.21    0.13
  -5  16 -11    2.08    0.15
  -6  16 -11    0.04    0.07
   6  15 -11    0.23    0.09
   6  15 -11    0.14    0.06
   5  15 -11    2.01    0.19
   5  15 -11    1.91    0.15
   4  15 -11    3.25    0.21
   4  15 -11    3.25    0.21
   4  15 -11    3.64    0.21
   3  15 -11    2.39    0.19
   3  15 -11    2.27    0.19
   2  15 -11    0.16    0.11
   2  15 -11    0.10    0.10
   1  15 -11    3.80    0.25
   0  15 -11    1.42    0.19
   0  15 -11    1.45    0.20
  -1  15 -11    0.34    0.14
  -1  15 -11    0.28    0.11
  -2  15 -11    3.68    0.23
  -3  15 -11    1.61    0.16
  -3  15 -11    1.50    0.21
  -4  15 -11    0.00    0.08
  -4  15 -11    0.01    0.10
  -5  15 -11   19.51    0.75
  -5  15 -11   19.34    0.76
  -6  15 -11    0.06    0.07
  -6  15 -11    0.05    0.09
   7  14 -11    2.06    0.15
   7  14 -11    2.08    0.13
   6  14 -11   -0.01    0.06
   6  14 -11    0.07    0.08
   6  14 -11    0.00    0.06
   5  14 -11    0.75    0.14
   5  14 -11    0.98    0.15
   5  14 -11    0.56    0.12
   4  14 -11    2.38    0.18
   4  14 -11    2.35    0.18
   4  14 -11    2.35    0.19
   3  14 -11    0.01    0.11
   3  14 -11   -0.02    0.11
   3  14 -11    0.00    0.09
   2  14 -11    0.96    0.23
   1  14 -11    8.62    0.40
   0  14 -11    1.38    0.22
   0  14 -11    1.19    0.22
  -1  14 -11    0.38    0.12
  -2  14 -11   -0.05    0.11
  -2  14 -11   -0.04    0.10
  -3  14 -11    0.23    0.11
  -4  14 -11    0.28    0.09
  -4  14 -11    0.31    0.10
  -5  14 -11    2.88    0.19
  -5  14 -11    2.70    0.19
  -6  14 -11    1.43    0.15
  -6  14 -11    1.33    0.14
  -7  14 -11   -0.05    0.08
   8  13 -11    0.00    0.09
   8  13 -11    0.00    0.05
   7  13 -11    5.01    0.24
   7  13 -11    4.95    0.22
   7  13 -11    5.00    0.24
   6  13 -11    2.02    0.16
   6  13 -11    2.20    0.15
   6  13 -11    2.10    0.17
   5  13 -11    0.74    0.13
   5  13 -11    0.94    0.14
   5  13 -11    0.68    0.16
   4  13 -11    9.87    0.43
   4  13 -11    9.38    0.42
   3  13 -11    0.40    0.12
   3  13 -11    0.23    0.11
   3  13 -11    0.32    0.11
   2  13 -11    0.30    0.13
   2  13 -11    0.28    0.12
   2  13 -11    0.40    0.13
   1  13 -11    7.24    0.37
   1  13 -11    7.41    0.40
   0  13 -11    2.21    0.25
   0  13 -11    1.97    0.24
  -1  13 -11    1.40    0.20
  -1  13 -11    1.14    0.21
  -2  13 -11    1.05    0.19
  -2  13 -11    0.72    0.16
  -3  13 -11    0.06    0.09
  -3  13 -11   -0.17    0.10
  -4  13 -11    1.34    0.17
  -4  13 -11    1.57    0.15
  -5  13 -11    2.62    0.19
  -5  13 -11    3.04    0.20
  -6  13 -11    2.63    0.18
  -6  13 -11    2.38    0.18
  -7  13 -11    1.48    0.15
  -8  13 -11    0.07    0.09
   9  12 -11    0.41    0.09
   8  12 -11    1.49    0.12
   8  12 -11    0.99    0.16
   8  12 -11    1.22    0.10
   7  12 -11   23.61    0.91
   7  12 -11   24.06    0.92
   7  12 -11   24.44    0.91
   6  12 -11    1.03    0.13
   6  12 -11    1.16    0.15
   6  12 -11    1.02    0.16
   5  12 -11    1.07    0.14
   5  12 -11    1.20    0.18
   5  12 -11    0.77    0.16
   4  12 -11   20.75    0.82
   4  12 -11   21.35    0.83
   4  12 -11   20.98    0.84
   3  12 -11   -0.06    0.12
   3  12 -11   -0.24    0.10
   3  12 -11   -0.19    0.09
   2  12 -11    0.85    0.21
   2  12 -11    0.72    0.12
   2  12 -11    0.53    0.12
   1  12 -11    9.49    0.47
   1  12 -11    9.52    0.45
   0  12 -11    0.43    0.16
   0  12 -11    0.54    0.15
  -1  12 -11    0.60    0.14
  -1  12 -11    0.74    0.17
  -2  12 -11    0.79    0.19
  -3  12 -11    0.98    0.18
  -3  12 -11    0.76    0.14
  -4  12 -11    2.70    0.21
  -4  12 -11    2.64    0.19
  -5  12 -11    0.23    0.10
  -5  12 -11    0.14    0.08
  -6  12 -11    1.07    0.15
  -6  12 -11    1.09    0.13
  -7  12 -11    0.61    0.12
  -7  12 -11    0.36    0.09
  -8  12 -11    6.02    0.28
   9  11 -11    0.08    0.06
   9  11 -11    0.02    0.04
   9  11 -11   -0.04    0.08
   8  11 -11    0.03    0.07
   8  11 -11   -0.03    0.06
   8  11 -11    0.12    0.05
   7  11 -11    0.75    0.13
   7  11 -11    0.48    0.11
   7  11 -11    0.65    0.15
   6  11 -11    3.74    0.24
   6  11 -11    3.54    0.21
   6  11 -11    3.73    0.23
   5  11 -11    1.75    0.19
   5  11 -11    1.72    0.17
   5  11 -11    1.95    0.18
   4  11 -11    7.04    0.35
   4  11 -11    6.58    0.32
   4  11 -11    6.90    0.35
   3  11 -11    1.03    0.17
   3  11 -11    1.29    0.23
   3  11 -11    1.13    0.19
   2  11 -11    0.95    0.21
   2  11 -11    1.25    0.23
   2  11 -11    0.89    0.19
   1  11 -11    0.08    0.16
   1  11 -11    0.22    0.13
   0  11 -11    0.55    0.11
  -1  11 -11    2.68    0.19
  -1  11 -11    2.35    0.26
  -2  11 -11    6.16    0.29
  -2  11 -11    5.70    0.32
  -3  11 -11    0.79    0.14
  -3  11 -11    0.93    0.18
  -4  11 -11    0.14    0.08
  -4  11 -11    0.34    0.10
  -5  11 -11    2.93    0.20
  -5  11 -11    3.21    0.21
  -6  11 -11    3.96    0.23
  -6  11 -11    4.37    0.24
  -7  11 -11    0.20    0.08
  -8  11 -11    1.29    0.14
  10  10 -11    1.02    0.12
   9  10 -11    0.49    0.11
   9  10 -11    0.65    0.12
   9  10 -11    0.73    0.09
   8  10 -11    1.67    0.16
   8  10 -11    1.86    0.16
   8  10 -11    1.80    0.13
   7  10 -11    7.28    0.32
   7  10 -11    6.38    0.36
   7  10 -11    7.25    0.34
   6  10 -11   -0.07    0.10
   6  10 -11   -0.02    0.08
   6  10 -11   -0.13    0.07
   5  10 -11    4.02    0.26
   5  10 -11    3.75    0.22
   5  10 -11    3.74    0.25
   4  10 -11    0.59    0.13
   4  10 -11    0.32    0.09
   4  10 -11    0.52    0.12
   3  10 -11    1.40    0.17
   3  10 -11    1.13    0.19
   2  10 -11    5.11    0.32
   2  10 -11    5.57    0.29
   1  10 -11    3.90    0.27
   1  10 -11    3.36    0.31
   1  10 -11    3.57    0.24
   0  10 -11    2.61    0.19
  -1  10 -11    0.21    0.08
  -1  10 -11    0.18    0.15
  -2  10 -11    0.04    0.08
  -3  10 -11    5.11    0.26
  -3  10 -11    4.52    0.28
  -4  10 -11    1.38    0.18
  -4  10 -11    1.55    0.16
  -5  10 -11    1.60    0.16
  -5  10 -11    1.98    0.19
  -6  10 -11    2.80    0.19
  -6  10 -11    2.76    0.21
  -7  10 -11    0.08    0.08
  -8  10 -11    7.55    0.34
  10   9 -11    0.06    0.07
  10   9 -11    0.17    0.07
   9   9 -11    0.28    0.06
   9   9 -11    0.26    0.08
   9   9 -11    0.30    0.08
   8   9 -11   28.40    1.06
   8   9 -11   27.44    1.04
   8   9 -11   26.26    1.05
   7   9 -11    2.56    0.21
   7   9 -11    2.87    0.19
   7   9 -11    2.94    0.21
   6   9 -11    1.58    0.15
   6   9 -11    1.36    0.18
   6   9 -11    1.27    0.19
   5   9 -11    3.01    0.20
   5   9 -11    2.69    0.22
   5   9 -11    2.71    0.24
   4   9 -11   29.71    1.24
   4   9 -11   32.33    1.22
   4   9 -11   33.40    1.21
   3   9 -11    0.09    0.09
   3   9 -11    0.04    0.11
   2   9 -11    0.26    0.14
   2   9 -11    0.41    0.11
   1   9 -11    8.57    0.40
   1   9 -11    9.25    0.39
   1   9 -11    8.65    0.46
   0   9 -11    0.46    0.14
   0   9 -11    0.28    0.09
  -1   9 -11    0.09    0.26
  -1   9 -11    0.06    0.07
  -2   9 -11   28.08    1.12
  -2   9 -11   30.32    1.11
  -3   9 -11    3.34    0.20
  -4   9 -11    0.17    0.11
  -4   9 -11    0.49    0.12
  -5   9 -11    6.20    0.32
  -5   9 -11    6.10    0.30
  -6   9 -11   -0.07    0.07
  -6   9 -11    0.14    0.09
  -7   9 -11   -0.07    0.07
  -8   9 -11    4.34    0.24
  -9   9 -11   -0.02    0.11
  10   8 -11    8.43    0.34
  10   8 -11    7.81    0.33
  10   8 -11    7.82    0.33
   9   8 -11    0.27    0.08
   9   8 -11    0.07    0.08
   9   8 -11    0.23    0.06
   8   8 -11    2.36    0.23
   8   8 -11    2.25    0.16
   8   8 -11    2.09    0.18
   7   8 -11   13.50    0.56
   7   8 -11   12.87    0.54
   7   8 -11   12.78    0.55
   6   8 -11    0.12    0.12
   6   8 -11    0.05    0.08
   6   8 -11    0.17    0.10
   5   8 -11    7.39    0.36
   5   8 -11    7.24    0.43
   5   8 -11    7.43    0.34
   4   8 -11    1.83    0.20
   4   8 -11    1.75    0.17
   3   8 -11    0.15    0.08
   3   8 -11    0.13    0.12
   2   8 -11    0.09    0.11
   2   8 -11    0.02    0.10
   2   8 -11    0.00    0.14
   1   8 -11    0.43    0.10
   1   8 -11    0.55    0.18
   1   8 -11    0.28    0.12
   0   8 -11    0.15    0.08
   0   8 -11    0.15    0.13
  -1   8 -11    5.01    0.25
  -2   8 -11    2.18    0.26
  -2   8 -11    1.96    0.15
  -3   8 -11    0.38    0.09
  -3   8 -11    0.41    0.13
  -4   8 -11    0.07    0.07
  -4   8 -11    0.05    0.12
  -5   8 -11    0.38    0.11
  -5   8 -11    0.65    0.13
  -6   8 -11    5.57    0.30
  -6   8 -11    5.69    0.29
  -7   8 -11    0.64    0.13
  -8   8 -11    0.87    0.15
  -9   8 -11   -0.02    0.12
  10  -8  11    0.12    0.05
  11   7 -11    0.24    0.08
  10   7 -11    0.38    0.09
  10   7 -11    0.20    0.06
  10   7 -11    0.33    0.08
   9   7 -11    1.70    0.16
   9   7 -11    1.18    0.16
   9   7 -11    1.38    0.13
   8   7 -11   -0.14    0.09
   8   7 -11    0.03    0.07
   8   7 -11   -0.03    0.09
   7   7 -11    4.27    0.26
   7   7 -11    4.29    0.24
   7   7 -11    4.43    0.27
   6   7 -11    0.09    0.12
   6   7 -11    0.01    0.07
   6   7 -11    0.07    0.11
   5   7 -11    4.64    0.31
   4   7 -11    4.94    0.27
   4   7 -11    4.25    0.24
   3   7 -11    0.16    0.12
   3   7 -11    0.16    0.09
   2   7 -11    0.42    0.11
   2   7 -11    0.40    0.11
   2   7 -11    0.57    0.14
   1   7 -11   55.66    1.99
   1   7 -11   52.80    1.99
   0   7 -11    0.29    0.13
   0   7 -11    0.19    0.08
  -1   7 -11    1.18    0.12
  -2   7 -11    7.88    0.34
  -2   7 -11    7.30    0.41
  -3   7 -11    0.15    0.07
  -3   7 -11    0.11    0.13
  -4   7 -11    0.14    0.08
  -4   7 -11    0.04    0.11
  -5   7 -11    2.56    0.18
  -5   7 -11    2.74    0.22
  -6   7 -11    2.93    0.19
  -7   7 -11   -0.01    0.08
  -8   7 -11    1.48    0.17
   9  -7  11    0.02    0.06
  10  -7  11    0.01    0.05
  11   6 -11    0.17    0.07
  10   6 -11    2.99    0.17
  10   6 -11    2.90    0.19
  10   6 -11    3.48    0.20
   9   6 -11    0.08    0.09
   9   6 -11   -0.09    0.07
   8   6 -11    1.06    0.18
   8   6 -11    1.05    0.18
   8   6 -11    1.30    0.14
   7   6 -11    0.18    0.08
   7   6 -11    0.21    0.10
   7   6 -11    0.16    0.12
   6   6 -11    1.19    0.17
   6   6 -11    0.99    0.14
   6   6 -11    0.89    0.15
   5   6 -11    3.85    0.24
   5   6 -11    4.02    0.22
   4   6 -11    9.05    0.41
   4   6 -11    8.88    0.38
   3   6 -11    0.10    0.10
   3   6 -11    0.19    0.11
   3   6 -11    0.00    0.09
   2   6 -11    1.11    0.14
   2   6 -11    0.88    0.17
   1   6 -11    0.33    0.08
  -1  -6  11    0.39    0.08
   0   6 -11    0.09    0.06
  -1   6 -11    1.50    0.13
  -2   6 -11    0.37    0.10
  -3   6 -11   13.73    0.53
  -3   6 -11   11.76    0.56
  -4   6 -11    0.03    0.12
  -4   6 -11    0.09    0.07
  -5   6 -11    3.56    0.25
  -5   6 -11    3.91    0.22
  -7   6 -11    2.78    0.20
  -8   6 -11    6.38    0.32
   9  -6  11    0.06    0.06
  10  -6  11    0.55    0.09
  11   5 -11    0.25    0.07
  10   5 -11   -0.01    0.09
  10   5 -11    0.21    0.07
  10   5 -11    0.20    0.08
   9   5 -11    0.99    0.16
   9   5 -11    1.40    0.15
   9   5 -11    0.75    0.17
   8   5 -11    0.06    0.11
   8   5 -11    0.13    0.08
   8   5 -11    0.04    0.10
   7   5 -11    0.00    0.12
   7   5 -11   -0.02    0.10
   7   5 -11    0.13    0.08
   6   5 -11    0.63    0.12
   6   5 -11    0.41    0.09
   6   5 -11    0.69    0.15
   5   5 -11    0.61    0.13
   5   5 -11    0.64    0.16
   4   5 -11   48.89    1.80
   4   5 -11   48.92    1.81
   3   5 -11    0.11    0.09
   3   5 -11    0.22    0.08
   3   5 -11    0.28    0.11
   2   5 -11    1.73    0.14
  -2  -5  11    1.68    0.14
   1   5 -11   45.12    1.71
  -1  -5  11   47.94    1.71
   0   5 -11    0.82    0.11
  -1   5 -11    0.91    0.11
  -3   5 -11    4.21    0.21
  -3   5 -11    3.23    0.29
  -3   5 -11    3.31    0.29
  -4   5 -11    0.01    0.12
  -4   5 -11    0.04    0.07
  -5   5 -11    0.50    0.12
  -6   5 -11    0.33    0.10
  -7   5 -11    1.04    0.16
  -8   5 -11    0.05    0.11
   9  -5  11    5.59    0.26
  10  -5  11    0.17    0.06
  12   4 -11   -0.06    0.08
  11   4 -11    0.02    0.07
  10   4 -11    0.78    0.17
  10   4 -11    0.87    0.14
  10   4 -11    0.74    0.13
   9   4 -11    3.78    0.22
   9   4 -11    3.79    0.25
   9   4 -11    3.71    0.23
   8   4 -11    8.92    0.39
   8   4 -11    8.86    0.41
   8   4 -11    9.06    0.41
   7   4 -11    2.82    0.22
   7   4 -11    2.37    0.29
   7   4 -11    3.07    0.20
   6   4 -11    2.56    0.21
   6   4 -11    2.93    0.19
   5   4 -11    6.92    0.33
   5   4 -11    7.00    0.32
   4   4 -11   50.06    1.86
   4   4 -11   50.37    1.85
   3   4 -11    2.72    0.18
  -3  -4  11    2.96    0.18
   2   4 -11    6.23    0.28
  -2  -4  11    6.47    0.28
   1   4 -11  447.18   16.31
  -1  -4  11  460.88   16.31
   0   4 -11    7.39    0.32
  -2   4 -11    0.24    0.07
  -3   4 -11    1.97    0.15
  -3   4 -11    1.96    0.23
  -3   4 -11    1.42    0.24
  -4   4 -11    0.32    0.14
  -4   4 -11    0.46    0.11
  -5   4 -11    2.60    0.18
  -6   4 -11    0.22    0.10
  -7   4 -11    1.73    0.19
   8  -4  11   -0.02    0.12
   9  -4  11    1.55    0.13
  10  -4  11    0.67    0.09
  12   3 -11    0.37    0.08
  11   3 -11    7.85    0.34
  10   3 -11    0.46    0.12
  10   3 -11    0.41    0.09
  10   3 -11    0.60    0.15
   9   3 -11    0.62    0.11
   9   3 -11    0.42    0.12
   9   3 -11    0.22    0.09
   8   3 -11    6.60    0.32
   8   3 -11    6.75    0.34
   8   3 -11    6.72    0.34
   7   3 -11    2.98    0.26
   7   3 -11    3.01    0.26
   6   3 -11   -0.15    0.08
   6   3 -11    0.01    0.09
   5   3 -11    1.04    0.16
   5   3 -11    1.22    0.17
  -5  -3  11    1.19    0.14
   4   3 -11    0.34    0.10
   4   3 -11    0.32    0.10
  -3  -3  11    0.04    0.06
   2   3 -11    0.03    0.06
  -2  -3  11    0.07    0.04
   1   3 -11  135.09    5.06
  -1  -3  11  144.96    5.06
   0   3 -11    0.21    0.06
  -1   3 -11    5.46    0.25
  -2   3 -11   52.57    1.94
  -3   3 -11    0.56    0.12
  -3   3 -11    0.58    0.12
  -4   3 -11    0.48    0.12
  -4   3 -11    0.34    0.13
  -5   3 -11    1.33    0.22
  -5   3 -11    1.47    0.16
  -6   3 -11    7.22    0.34
  -6   3 -11    7.15    0.36
  -7   3 -11    0.07    0.12
   7  -3  11   -0.06    0.08
   8  -3  11   22.30    0.92
   9  -3  11    0.26    0.07
  10  -3  11    0.02    0.05
  12   2 -11    0.08    0.07
  11   2 -11    0.85    0.13
  10   2 -11    3.52    0.29
  10   2 -11    4.06    0.30
   9   2 -11    0.23    0.12
   9   2 -11    0.11    0.10
   9   2 -11    0.09    0.10
   8   2 -11    2.17    0.22
   8   2 -11    2.06    0.20
   8   2 -11    2.16    0.21
   7   2 -11   -0.03    0.08
   7   2 -11    0.02    0.10
   7   2 -11   -0.12    0.13
   6   2 -11    0.01    0.09
   6   2 -11    0.03    0.09
  -6  -2  11   -0.09    0.10
   5   2 -11    1.09    0.16
   5   2 -11    0.96    0.17
  -5  -2  11    0.80    0.13
  -4  -2  11    0.27    0.07
  -3  -2  11    0.08    0.05
   2   2 -11    1.63    0.13
  -2  -2  11    1.64    0.11
   1   2 -11   48.71    1.83
  -1  -2  11   51.05    1.83
   0   2 -11    4.47    0.22
  -1   2 -11    0.50    0.09
  -2   2 -11    4.37    0.22
  -3   2 -11    1.66    0.14
  -3   2 -11    1.87    0.20
  -4   2 -11    0.28    0.08
  -4   2 -11    0.53    0.12
  -5   2 -11    4.50    0.27
  -5   2 -11    4.31    0.25
  -6   2 -11    0.47    0.12
  -6   2 -11    0.41    0.11
  -7   2 -11   -0.01    0.12
   7  -2  11    0.21    0.09
   9  -2  11    0.04    0.06
  10  -2  11    0.41    0.09
  12   1 -11    0.00    0.08
  11   1 -11    1.78    0.15
  10   1 -11    9.40    0.41
   9   1 -11    0.36    0.13
   9   1 -11    0.28    0.11
   9   1 -11    0.28    0.10
   8   1 -11    4.59    0.28
   8   1 -11    4.84    0.27
   8   1 -11    4.97    0.28
   7   1 -11    8.58    0.38
   7   1 -11    7.81    0.39
   7   1 -11    7.79    0.37
  -7  -1  11    8.29    0.37
   6   1 -11    2.05    0.18
   6   1 -11    1.84    0.19
  -6  -1  11    1.88    0.16
   5   1 -11    0.70    0.16
   5   1 -11    0.74    0.17
  -5  -1  11    0.60    0.12
  -4  -1  11    0.50    0.12
  -3  -1  11    0.04    0.04
   2   1 -11    3.77    0.19
  -2  -1  11    3.74    0.18
   1   1 -11   15.52    0.63
  -1  -1  11   16.91    0.62
   0   1 -11    0.21    0.06
  -1   1 -11    0.82    0.10
  -2   1 -11   69.88    2.63
  -3   1 -11   15.78    0.61
  -3   1 -11   15.09    0.62
  -4   1 -11    0.09    0.09
  -4   1 -11    0.06    0.07
  -5   1 -11   15.45    0.62
  -5   1 -11   14.62    0.62
   5  -1  11   15.66    0.63
  -6   1 -11   14.94    0.60
  -6   1 -11   14.62    0.61
   6  -1  11   14.77    0.61
  -7   1 -11    0.18    0.10
   7  -1  11    0.19    0.09
  -8   1 -11   11.12    0.48
   8  -1  11   11.97    0.52
   9  -1  11    0.00    0.06
  12   0 -11    1.32    0.16
  11   0 -11    0.26    0.08
  10   0 -11    3.09    0.20
   9   0 -11    2.57    0.20
   9   0 -11    2.17    0.23
   8   0 -11    8.14    0.39
   8   0 -11    8.27    0.40
   8   0 -11    8.44    0.39
  -8   0  11    8.18    0.37
   7   0 -11    9.56    0.50
   7   0 -11   10.03    0.44
   7   0 -11    9.21    0.43
  -7   0  11    9.78    0.41
   6   0 -11    0.14    0.11
   6   0 -11    0.20    0.11
  -6   0  11    0.01    0.07
   5   0 -11    0.89    0.17
  -5   0  11    0.91    0.11
  -4   0  11   36.84    1.34
  -4   0  11   35.16    1.33
  -3   0  11    0.88    0.10
  -2   0  11    1.25    0.10
   1   0 -11   96.69    3.63
  -1   0  11  103.56    3.62
   0   0 -11    0.29    0.07
  -1   0 -11    0.39    0.10
  -2   0 -11    0.25    0.09
  -3   0 -11    4.45    0.23
  -3   0 -11    4.06    0.23
   3   0  11    3.56    0.30
  -4   0 -11    2.07    0.18
  -4   0 -11    1.82    0.18
   4   0  11    1.82    0.22
  -5   0 -11    0.70    0.13
  -5   0 -11    0.62    0.15
   5   0  11    0.63    0.12
  -6   0 -11    0.26    0.09
   6   0  11    0.33    0.10
  -7   0 -11    1.27    0.17
   7   0  11    1.85    0.17
  -8   0 -11    5.62    0.28
   8   0  11    5.87    0.29
   9   0  11   17.49    0.68
  10   0  11    1.77    0.12
  12  -1 -11    0.08    0.07
  11  -1 -11    0.97    0.14
  10  -1 -11    1.25    0.16
   9  -1 -11    0.91    0.22
   9  -1 -11    1.11    0.18
   8  -1 -11   11.88    0.52
   8  -1 -11   11.65    0.51
  -8   1  11   12.27    0.49
   7  -1 -11    4.72    0.29
   7  -1 -11    4.71    0.27
  -7   1  11    4.27    0.23
   6  -1 -11    0.53    0.12
   6  -1 -11    0.36    0.14
  -6   1  11    0.42    0.11
   5  -1 -11    9.37    0.43
  -5   1  11   10.16    0.40
  -4   1  11    0.33    0.09
  -4   1  11    0.56    0.12
  -3   1  11    3.29    0.17
  -2   1  11    1.97    0.12
  -2   1  11    2.14    0.17
   1  -1 -11   70.44    2.71
  -1   1  11   79.22    2.76
  -1   1  11   73.56    2.70
   0  -1 -11    0.76    0.11
  -1  -1 -11    0.28    0.07
  -2  -1 -11   10.69    0.45
  -3  -1 -11   15.62    0.59
  -3  -1 -11   14.39    0.58
   3   1  11   13.37    0.61
  -4  -1 -11    0.98    0.14
  -4  -1 -11    0.91    0.18
   4   1  11    0.90    0.19
  -5  -1 -11    0.98    0.15
   5   1  11    0.94    0.18
  -6  -1 -11    1.18    0.15
   6   1  11    0.65    0.17
  -7  -1 -11    7.76    0.35
   7   1  11    7.92    0.37
  -8  -1 -11    1.27    0.14
   8   1  11    1.33    0.15
   9   1  11    1.43    0.13
  10   1  11    0.01    0.05
  12  -2 -11    1.65    0.14
  11  -2 -11   10.23    0.42
  10  -2 -11    5.85    0.29
   9  -2 -11    3.12    0.22
   9  -2 -11    2.88    0.27
  -9   2  11    3.08    0.22
   8  -2 -11    9.50    0.43
   8  -2 -11    9.16    0.44
  -8   2  11   10.01    0.41
   7  -2 -11   19.03    0.77
  -7   2  11   19.56    0.75
   6  -2 -11    0.04    0.10
  -6   2  11    0.04    0.06
   5  -2 -11    0.42    0.10
  -5   2  11    0.47    0.10
  -5   2  11    0.36    0.10
  -4   2  11    1.17    0.11
  -4   2  11    1.29    0.14
  -3   2  11    0.43    0.10
  -2   2  11    0.60    0.13
  -2   2  11    0.50    0.09
  -1   2  11    8.44    0.34
  -1   2  11    7.83    0.35
   0  -2 -11    0.64    0.10
  -1  -2 -11    3.04    0.20
  -1  -2 -11    3.14    0.18
  -2  -2 -11   57.47    2.12
  -2  -2 -11   58.06    2.12
  -3  -2 -11    3.17    0.19
  -3  -2 -11    3.33    0.21
   3   2  11    2.54    0.26
  -4  -2 -11    0.24    0.13
  -4  -2 -11    0.10    0.17
   4   2  11    0.19    0.12
  -5  -2 -11   33.27    1.24
   5   2  11   32.53    1.26
  -6  -2 -11    0.09    0.08
   6   2  11    0.08    0.09
  -7  -2 -11    0.32    0.09
   7   2  11    0.40    0.10
  -8  -2 -11    2.96    0.18
   8   2  11    2.78    0.18
  -9  -2 -11   15.40    0.59
   9   2  11   15.40    0.60
  12  -3 -11   -0.04    0.12
  11  -3 -11    5.63    0.26
  10  -3 -11    2.87    0.20
   9  -3 -11    3.29    0.23
  -9   3  11    3.57    0.22
   8  -3 -11    3.11    0.25
   8  -3 -11    3.29    0.24
  -8   3  11    3.15    0.19
   7  -3 -11    7.15    0.37
  -7   3  11    7.71    0.33
   6  -3 -11    0.38    0.11
  -6   3  11    0.48    0.11
   5  -3 -11    5.19    0.29
  -5   3  11    5.66    0.25
   4  -3 -11   15.52    0.62
  -4   3  11   15.41    0.60
  -4   3  11   15.68    0.61
  -3   3  11    1.19    0.16
  -3   3  11    1.11    0.11
  -3   3  11    1.22    0.13
  -2   3  11    3.89    0.23
  -2   3  11    4.24    0.20
  -1   3  11  106.47    3.77
  -1   3  11  102.12    3.77
  -1  -3 -11    0.98    0.20
  -1  -3 -11    0.44    0.10
  -2  -3 -11    7.85    0.39
  -2  -3 -11    8.45    0.36
   2   3  11    8.06    0.42
  -3  -3 -11    2.84    0.18
  -3  -3 -11    2.83    0.27
   3   3  11    2.34    0.24
  -4  -3 -11    2.27    0.17
   4   3  11    2.41    0.24
  -5  -3 -11    1.33    0.15
   5   3  11    1.22    0.18
  -6  -3 -11   -0.03    0.07
   6   3  11    0.25    0.10
   7   3  11    1.07    0.15
  -8  -3 -11    0.64    0.11
   8   3  11    0.71    0.12
  -9  -3 -11    0.83    0.12
   9   3  11    0.98    0.10
  12  -4 -11    0.06    0.07
  11  -4 -11    2.04    0.16
 -10   4  11    0.50    0.12
   9  -4 -11    1.60    0.19
  -9   4  11    1.55    0.16
   8  -4 -11   -0.09    0.11
   8  -4 -11   -0.15    0.13
  -8   4  11    0.04    0.07
   7  -4 -11   56.53    2.08
  -7   4  11   55.68    2.07
   6  -4 -11    2.17    0.21
  -6   4  11    2.40    0.15
   5  -4 -11   10.16    0.45
  -5   4  11   10.97    0.44
   4  -4 -11   18.44    0.74
  -4   4  11   19.32    0.73
   3  -4 -11    1.08    0.17
  -3   4  11    0.97    0.11
   2  -4 -11    1.21    0.16
  -2   4  11    1.36    0.13
  -2   4  11    1.45    0.12
   1  -4 -11    4.13    0.24
  -1   4  11    4.04    0.21
   0  -4 -11    0.10    0.10
   0  -4 -11    0.05    0.10
  -1  -4 -11    1.66    0.19
  -1  -4 -11    1.86    0.17
  -2  -4 -11   60.53    2.26
  -2  -4 -11   63.58    2.25
   2   4  11   59.46    2.27
  -3  -4 -11    7.77    0.38
  -3  -4 -11    8.20    0.36
   3   4  11    8.14    0.40
  -4  -4 -11   -0.04    0.08
   4   4  11   -0.01    0.10
  -5  -4 -11   37.23    1.47
   5   4  11   41.74    1.50
  -6  -4 -11   16.46    0.66
   6   4  11   16.65    0.68
  -7  -4 -11    0.24    0.07
   7   4  11    0.13    0.08
  -8  -4 -11    2.85    0.16
   8   4  11    2.80    0.17
  -9  -4 -11   11.69    0.44
   9   4  11   11.33    0.45
  12  -5 -11    0.12    0.07
  11  -5 -11    8.87    0.37
  10  -5 -11    0.88    0.14
 -10   5  11    0.94    0.16
   9  -5 -11    0.04    0.10
  -9   5  11   -0.14    0.08
   8  -5 -11   -0.03    0.11
   8  -5 -11    0.21    0.15
  -8   5  11   -0.02    0.07
  -7   5  11   32.67    1.23
   6  -5 -11    5.66    0.31
  -6   5  11    6.03    0.28
   5  -5 -11    1.68    0.19
  -5   5  11    2.03    0.14
   4  -5 -11    7.26    0.34
  -4   5  11    7.08    0.31
   3  -5 -11    0.20    0.11
  -3   5  11    0.06    0.06
   2  -5 -11    0.35    0.10
  -2   5  11    0.13    0.07
   1  -5 -11   17.05    0.66
   1  -5 -11   15.45    0.66
  -1   5  11   17.00    0.65
   0  -5 -11    2.85    0.21
   0  -5 -11    2.74    0.21
   0   5  11    3.22    0.19
  -1  -5 -11    0.85    0.17
  -1  -5 -11    0.55    0.10
   1   5  11    0.65    0.15
   1   5  11    1.14    0.27
  -2  -5 -11    6.77    0.31
   2   5  11    6.22    0.36
  -4  -5 -11    0.62    0.13
  -4  -5 -11    0.61    0.13
   4   5  11    0.64    0.13
  -5  -5 -11    0.94    0.14
   5   5  11    1.07    0.18
  -6  -5 -11    0.18    0.07
   6   5  11    0.29    0.09
  -7  -5 -11   -0.02    0.06
   7   5  11    0.09    0.07
  -8  -5 -11    0.71    0.09
   8   5  11    0.80    0.11
  12  -6 -11    0.00    0.08
  11  -6 -11    0.37    0.08
 -11   6  11    0.71    0.14
  10  -6 -11    2.25    0.18
 -10   6  11    2.30    0.17
   9  -6 -11    0.00    0.09
  -9   6  11   -0.05    0.07
   8  -6 -11   10.65    0.45
  -8   6  11   10.27    0.45
   7  -6 -11    3.21    0.25
   7  -6 -11    2.97    0.30
  -7   6  11    3.20    0.19
   6  -6 -11    0.19    0.11
  -6   6  11    0.23    0.08
   5  -6 -11    0.76    0.17
  -5   6  11    1.00    0.11
   4  -6 -11    1.34    0.17
  -4   6  11    0.93    0.11
   3  -6 -11    0.00    0.09
  -3   6  11   -0.01    0.06
   2  -6 -11    0.06    0.14
   2  -6 -11   -0.14    0.09
  -2   6  11   -0.09    0.07
   1  -6 -11   26.57    1.04
   1  -6 -11   27.62    1.04
  -1   6  11   27.84    1.04
   0  -6 -11    0.57    0.11
   0  -6 -11    0.61    0.16
   0   6  11    0.62    0.14
   0   6  11    0.63    0.28
  -1  -6 -11    0.04    0.08
   1   6  11   -0.02    0.11
   1   6  11    0.09    0.14
   2   6  11    8.50    0.42
  -3  -6 -11    1.64    0.16
   3   6  11    1.61    0.21
  -4  -6 -11    0.60    0.13
  -4  -6 -11    0.30    0.11
   4   6  11    0.67    0.17
  -5  -6 -11    0.11    0.07
   5   6  11   -0.05    0.09
   6   6  11    5.08    0.34
  -7  -6 -11    0.04    0.06
   7   6  11    0.03    0.07
  -8  -6 -11    0.38    0.08
   8   6  11    0.39    0.09
  12  -7 -11    1.45    0.17
  11  -7 -11    3.60    0.20
 -11   7  11    4.10    0.24
  10  -7 -11    0.73    0.14
 -10   7  11    0.78    0.14
   9  -7 -11    0.72    0.15
  -9   7  11    0.28    0.09
   8  -7 -11    0.51    0.11
  -8   7  11    0.45    0.12
   7  -7 -11    0.28    0.13
  -7   7  11    0.17    0.07
   6  -7 -11    0.16    0.10
  -6   7  11    0.16    0.08
   5  -7 -11    3.04    0.22
  -5   7  11    3.66    0.20
   4  -7 -11   24.02    0.93
  -4   7  11   23.77    0.92
  -3   7  11    0.15    0.07
   2  -7 -11    0.19    0.09
  -2   7  11    0.07    0.06
   1  -7 -11   46.81    1.71
   1  -7 -11   45.17    1.70
  -1   7  11   45.47    1.70
   0  -7 -11    2.19    0.20
   0  -7 -11    2.27    0.19
   0   7  11    2.10    0.28
   0   7  11    1.98    0.18
  -1  -7 -11    1.22    0.16
   1   7  11    1.12    0.24
  -2  -7 -11    9.22    0.41
   2   7  11    9.69    0.45
  -3  -7 -11    0.05    0.08
   3   7  11    0.23    0.11
  -4  -7 -11    0.34    0.08
  -4  -7 -11    0.41    0.11
   4   7  11    0.38    0.11
  -5  -7 -11    6.84    0.37
  -5  -7 -11    8.05    0.34
   5   7  11    8.07    0.37
  -6  -7 -11   12.16    0.49
   6   7  11   12.11    0.51
  -7  -7 -11    0.19    0.05
   7   7  11    0.18    0.07
  -8  -7 -11    2.00    0.11
   8   7  11    2.06    0.13
 -11   8  11    1.18    0.17
  10  -8 -11    7.26    0.33
 -10   8  11    8.01    0.35
   9  -8 -11    5.78    0.28
  -9   8  11    5.47    0.27
   8  -8 -11    1.67    0.19
  -8   8  11    1.96    0.15
   7  -8 -11    1.89    0.22
  -7   8  11    1.87    0.15
   6  -8 -11    8.42    0.40
  -6   8  11    9.46    0.39
   5  -8 -11    1.90    0.18
  -5   8  11    1.71    0.16
  -4   8  11    0.29    0.08
   3  -8 -11    0.29    0.09
  -3   8  11    0.40    0.08
   2  -8 -11    1.77    0.17
  -2   8  11    2.07    0.16
   1  -8 -11    0.14    0.12
  -1   8  11    0.28    0.10
  -1   8  11    0.72    0.26
   0  -8 -11    0.76    0.15
   0  -8 -11    0.83    0.18
   0   8  11    0.72    0.16
  -1  -8 -11   -0.01    0.09
   1   8  11    0.07    0.13
  -2  -8 -11   33.67    1.28
   2   8  11   34.26    1.31
  -3  -8 -11   10.43    0.46
   3   8  11   11.43    0.49
  -4  -8 -11    0.01    0.06
  -4  -8 -11   -0.08    0.09
   4   8  11    0.07    0.09
  -5  -8 -11    0.79    0.18
  -5  -8 -11    1.13    0.12
   5   8  11    1.06    0.15
  -6  -8 -11    6.00    0.27
   6   8  11    5.96    0.29
  -7  -8 -11    1.83    0.11
   7   8  11    1.71    0.13
  11  -9 -11    2.20    0.16
 -11   9  11    2.13    0.18
  10  -9 -11   12.08    0.48
   9  -9 -11    0.27    0.09
  -9   9  11    0.27    0.07
   8  -9 -11    1.16    0.17
  -8   9  11    1.07    0.13
   7  -9 -11   60.89    2.17
  -7   9  11   56.49    2.17
   6  -9 -11   -0.01    0.10
  -6   9  11    0.03    0.08
   5  -9 -11    0.57    0.11
  -5   9  11    0.66    0.12
   4  -9 -11   19.34    0.79
  -4   9  11   20.26    0.78
   3  -9 -11    0.73    0.15
  -3   9  11    0.72    0.14
   2  -9 -11    0.23    0.09
  -2   9  11    0.19    0.10
   1  -9 -11    0.75    0.14
  -1   9  11    0.91    0.21
  -1   9  11    0.74    0.17
   0  -9 -11    2.97    0.21
   0  -9 -11    2.90    0.23
   0   9  11    3.08    0.26
  -1  -9 -11    0.46    0.11
   1   9  11    0.40    0.13
  -2  -9 -11    0.10    0.08
   2   9  11    0.24    0.12
  -3  -9 -11    0.72    0.13
  -3  -9 -11    0.73    0.14
   3   9  11    0.28    0.12
  -4  -9 -11    0.68    0.14
  -4  -9 -11    0.59    0.13
  -5  -9 -11    4.29    0.25
  -5  -9 -11    4.84    0.23
   5   9  11    4.82    0.25
  -6  -9 -11    2.30    0.13
   6   9  11    2.18    0.15
  -7  -9 -11    0.08    0.04
   7   9  11   -0.02    0.06
  10 -10 -11    0.83    0.11
 -10  10  11    0.88    0.13
   9 -10 -11    0.11    0.09
  -9  10  11    0.01    0.07
   8 -10 -11    0.87    0.17
  -8  10  11    1.19    0.13
  -7  10  11    5.77    0.28
   6 -10 -11    1.16    0.18
  -6  10  11    0.96    0.14
   5 -10 -11    0.15    0.10
  -5  10  11    0.09    0.07
   4 -10 -11    6.97    0.35
  -4  10  11    7.28    0.36
   3 -10 -11    1.33    0.16
  -3  10  11    1.16    0.15
   2 -10 -11    8.03    0.36
  -2  10  11    7.91    0.35
  -2  10  11    6.45    0.54
   1 -10 -11    3.42    0.21
  -1  10  11    2.83    0.27
   0 -10 -11    2.70    0.23
   0 -10 -11    2.74    0.20
   0  10  11    2.74    0.24
  -1 -10 -11    0.07    0.09
  -1 -10 -11    0.01    0.08
   1  10  11    0.03    0.11
  -2 -10 -11   29.37    1.11
  -2 -10 -11   28.80    1.10
   2  10  11   28.98    1.12
  -3 -10 -11    0.57    0.12
  -3 -10 -11    0.53    0.10
   3  10  11    0.42    0.11
  -4 -10 -11    2.34    0.17
  -4 -10 -11    2.27    0.16
   4  10  11    2.26    0.18
  -5 -10 -11    2.65    0.18
  -5 -10 -11    2.74    0.15
   5  10  11    2.76    0.17
  -6 -10 -11    1.52    0.10
   6  10  11    1.41    0.12
 -10  11  11    0.03    0.08
   9 -11 -11    0.11    0.09
  -9  11  11   -0.03    0.11
   8 -11 -11   -0.01    0.09
  -8  11  11    0.04    0.07
  -7  11  11   49.09    1.83
   6 -11 -11    0.83    0.17
  -6  11  11    0.91    0.13
   5 -11 -11    2.02    0.19
  -5  11  11    2.40    0.18
   4 -11 -11    2.37    0.20
  -4  11  11    2.53    0.19
   3 -11 -11    0.36    0.09
  -3  11  11    0.53    0.11
   2 -11 -11    0.20    0.09
  -2  11  11    0.21    0.15
  -2  11  11    0.32    0.15
   1 -11 -11   29.10    1.11
  -1  11  11   28.49    1.11
   0 -11 -11   -0.16    0.07
   0  11  11   -0.01    0.12
  -1 -11 -11    3.62    0.22
  -1 -11 -11    3.28    0.21
   1  11  11    3.61    0.24
  -2 -11 -11    0.31    0.14
  -2 -11 -11    0.47    0.12
  -3 -11 -11    4.30    0.23
  -3 -11 -11    4.56    0.22
   3  11  11    4.36    0.24
  -4 -11 -11    0.24    0.07
  -4 -11 -11    0.30    0.07
   4  11  11    0.29    0.08
  -5 -11 -11    2.02    0.12
  -5 -11 -11    1.85    0.15
   5  11  11    2.17    0.14
 -10  12  11    0.83    0.18
  -9  12  11    0.39    0.08
  -8  12  11    2.74    0.18
  -7  12  11    0.58    0.12
   6 -12 -11    0.09    0.11
  -6  12  11   -0.11    0.07
   5 -12 -11    0.28    0.10
  -5  12  11    0.09    0.09
   4 -12 -11   30.97    1.11
  -4  12  11   26.69    1.10
   3 -12 -11    1.09    0.15
  -3  12  11    0.75    0.18
   2 -12 -11    0.91    0.15
  -2  12  11    1.00    0.21
   1 -12 -11   -0.01    0.08
  -1  12  11    0.11    0.13
   0 -12 -11    1.87    0.17
   0  12  11    1.97    0.21
  -1 -12 -11    0.30    0.12
   1  12  11    0.21    0.10
  -2 -12 -11    2.43    0.18
  -2 -12 -11    2.50    0.17
   2  12  11    2.35    0.19
  -3 -12 -11    0.22    0.07
  -3 -12 -11    0.31    0.08
   3  12  11    0.40    0.09
  -4 -12 -11    1.24    0.11
  -4 -12 -11    1.13    0.11
   4  12  11    1.23    0.12
  -5 -12 -11    0.59    0.09
   5  12  11    0.53    0.10
  -9  13  11    0.15    0.08
  -8  13  11    0.06    0.08
  -7  13  11    0.64    0.16
  -6  13  11    0.32    0.09
   5 -13 -11    0.10    0.09
  -5  13  11    0.25    0.10
   4 -13 -11    0.06    0.08
  -4  13  11    0.10    0.11
   2 -13 -11    0.67    0.14
  -2  13  11    0.29    0.13
   1 -13 -11   16.76    0.74
  -1  13  11   15.72    0.65
   0 -13 -11    0.11    0.07
   0  13  11   -0.03    0.10
  -1 -13 -11    0.37    0.08
   1  13  11    0.55    0.11
  -2 -13 -11   18.47    0.72
   2  13  11   18.99    0.73
  -3 -13 -11    4.28    0.20
  -3 -13 -11    4.37    0.23
   3  13  11    4.28    0.22
  -4 -13 -11    0.24    0.06
   4  13  11    0.19    0.07
  -8  14  11    0.67    0.15
  -7  14  11    0.99    0.16
  -6  14  11    0.68    0.16
   5 -14 -11    0.01    0.09
  -5  14  11    0.09    0.12
   4 -14 -11    2.94    0.19
   3 -14 -11    0.20    0.08
   2 -14 -11    0.20    0.07
  -2  14  11    0.44    0.13
   1 -14 -11    1.28    0.13
  -1  14  11    1.48    0.18
   0 -14 -11    0.22    0.07
   0  14  11    0.21    0.10
  -1 -14 -11    0.08    0.06
   1  14  11   -0.04    0.08
  -2 -14 -11    1.30    0.11
  -3 -14 -11    0.34    0.08
   3  14  11    0.33    0.08
   4 -15 -11   10.63    0.43
   3 -15 -11   -0.02    0.07
   2 -15 -11    0.03    0.07
   1 -15 -11    9.52    0.37
  -1  15  11    8.31    0.42
   0 -15 -11    3.84    0.19
   0  15  11    3.78    0.22
  -1 -15 -11    1.16    0.10
   1  15  11    1.14    0.14
  -2 -15 -11    3.43    0.16
   3 -16 -11    0.05    0.07
   2 -16 -11    0.35    0.07
   1 -16 -11    7.79    0.32
   0 -16 -11    0.73    0.09
  -3  17 -12    0.03    0.11
  -4  17 -12    1.34    0.16
   5  16 -12    0.44    0.10
   4  16 -12    0.01    0.08
  -2  16 -12    0.24    0.11
  -3  16 -12    1.58    0.16
  -4  16 -12    0.90    0.15
  -5  16 -12    0.86    0.12
   6  15 -12    1.80    0.12
   5  15 -12    0.12    0.06
   5  15 -12    0.10    0.08
   4  15 -12    0.12    0.14
   4  15 -12    0.01    0.08
   3  15 -12   14.40    0.60
   3  15 -12   15.24    0.63
   2  15 -12    0.41    0.13
  -1  15 -12    1.09    0.20
  -2  15 -12    0.85    0.17
  -3  15 -12   -0.04    0.11
  -3  15 -12    0.05    0.09
  -4  15 -12    0.61    0.16
  -4  15 -12    0.66    0.14
  -5  15 -12    0.22    0.10
  -5  15 -12    0.22    0.08
   7  14 -12    0.11    0.06
   6  14 -12    9.53    0.37
   6  14 -12    9.02    0.39
   6  14 -12    9.33    0.39
   5  14 -12    0.09    0.09
   5  14 -12    0.02    0.07
   5  14 -12   -0.07    0.07
   4  14 -12    2.33    0.19
   4  14 -12    2.17    0.20
   4  14 -12    2.60    0.18
   3  14 -12    7.36    0.35
   3  14 -12    7.22    0.35
   3  14 -12    7.44    0.34
   2  14 -12    0.13    0.13
  -2  14 -12    0.58    0.12
  -2  14 -12    1.00    0.17
  -3  14 -12    0.07    0.09
  -3  14 -12    0.05    0.10
  -4  14 -12    0.51    0.11
  -4  14 -12    0.30    0.10
  -5  14 -12    0.57    0.15
  -5  14 -12    0.51    0.09
  -6  14 -12   -0.05    0.07
  -6  14 -12    0.09    0.08
  -7  14 -12    2.47    0.23
   8  13 -12    0.70    0.09
   7  13 -12   -0.03    0.09
   7  13 -12    0.06    0.05
   7  13 -12   -0.06    0.06
   6  13 -12    0.44    0.10
   6  13 -12    0.47    0.08
   6  13 -12    0.54    0.12
   5  13 -12    0.06    0.08
   5  13 -12    0.05    0.10
   5  13 -12    0.24    0.08
   4  13 -12   16.16    0.63
   4  13 -12   15.29    0.62
   3  13 -12    0.74    0.17
   3  13 -12    1.02    0.19
   3  13 -12    1.02    0.18
   2  13 -12    0.72    0.15
   2  13 -12    0.75    0.13
  -1  13 -12    0.42    0.14
  -1  13 -12    0.16    0.11
  -2  13 -12    0.57    0.13
  -2  13 -12    0.45    0.11
  -3  13 -12    5.08    0.28
  -3  13 -12    5.30    0.28
  -4  13 -12    1.40    0.18
  -4  13 -12    1.50    0.16
  -5  13 -12    0.19    0.09
  -5  13 -12    0.29    0.08
  -6  13 -12   -0.04    0.07
  -6  13 -12   -0.03    0.10
  -7  13 -12    0.86    0.13
   8  12 -12    0.46    0.08
   8  12 -12    0.46    0.10
   8  12 -12    0.28    0.10
   7  12 -12    8.34    0.37
   7  12 -12    8.43    0.35
   7  12 -12    8.86    0.37
   6  12 -12    0.08    0.08
   6  12 -12    0.14    0.07
   6  12 -12    0.05    0.10
   5  12 -12    0.10    0.11
   5  12 -12    0.11    0.08
   5  12 -12    0.02    0.09
   4  12 -12    1.30    0.16
   4  12 -12    1.48    0.22
   4  12 -12    1.38    0.18
   3  12 -12   21.87    0.83
   3  12 -12   18.20    0.86
   3  12 -12   21.40    0.80
   2  12 -12    0.63    0.14
   2  12 -12    0.90    0.19
   1  12 -12    0.16    0.17
  -1  12 -12    0.21    0.10
  -1  12 -12    0.33    0.14
  -2  12 -12    0.39    0.13
  -2  12 -12    0.30    0.10
  -3  12 -12   57.27    2.19
  -3  12 -12   60.85    2.18
  -4  12 -12    6.82    0.33
  -4  12 -12    7.05    0.34
  -5  12 -12   -0.04    0.10
  -5  12 -12    0.05    0.08
  -6  12 -12    0.24    0.08
  -6  12 -12    0.33    0.09
  -7  12 -12    2.17    0.16
  -8  12 -12    0.09    0.08
   9  11 -12    0.07    0.04
   8  11 -12    0.08    0.06
   8  11 -12    0.00    0.09
   8  11 -12   -0.01    0.05
   7  11 -12    5.05    0.27
   7  11 -12    5.28    0.27
   7  11 -12    5.42    0.25
   6  11 -12    0.01    0.08
   6  11 -12    0.14    0.10
   6  11 -12   -0.01    0.07
   5  11 -12    4.25    0.27
   5  11 -12    4.25    0.24
   5  11 -12    4.36    0.26
   4  11 -12    0.00    0.10
   4  11 -12    0.00    0.08
   4  11 -12    0.21    0.14
   3  11 -12   12.66    0.52
   3  11 -12   12.05    0.53
   2  11 -12    0.00    0.12
   2  11 -12    0.17    0.10
   1  11 -12   -0.07    0.16
   1  11 -12   -0.06    0.11
   0  11 -12   26.99    1.03
  -1  11 -12    0.29    0.10
  -1  11 -12    0.45    0.16
  -2  11 -12    1.30    0.15
  -2  11 -12    1.23    0.22
  -3  11 -12    6.75    0.33
  -3  11 -12    6.01    0.31
  -4  11 -12    0.37    0.09
  -4  11 -12    0.28    0.11
  -5  11 -12    0.19    0.10
  -5  11 -12    0.08    0.07
  -6  11 -12    0.04    0.08
  -6  11 -12    0.02    0.08
  -7  11 -12    0.39    0.09
  -8  11 -12    0.29    0.09
   9 -11  12    0.04    0.05
  10  10 -12    1.87    0.13
   9  10 -12    0.95    0.14
   9  10 -12    1.08    0.10
   9  10 -12    1.10    0.12
   8  10 -12    3.81    0.22
   8  10 -12    3.90    0.20
   8  10 -12    3.69    0.21
   7  10 -12    3.82    0.23
   7  10 -12    3.31    0.26
   6  10 -12    2.02    0.16
   6  10 -12    2.20    0.21
   6  10 -12    1.91    0.18
   5  10 -12   -0.07    0.10
   5  10 -12    0.00    0.12
   5  10 -12   -0.02    0.08
   4  10 -12   12.80    0.56
   4  10 -12   13.70    0.54
   3  10 -12    1.49    0.20
   3  10 -12    1.70    0.17
   2  10 -12    4.15    0.29
   2  10 -12    4.16    0.25
   1  10 -12    0.48    0.17
   1  10 -12    0.61    0.12
   0  10 -12   28.86    1.10
  -1  10 -12    2.20    0.18
  -2  10 -12    0.04    0.07
  -2  10 -12    0.03    0.14
  -3  10 -12    0.07    0.11
  -3  10 -12    0.12    0.07
  -4  10 -12    0.39    0.12
  -4  10 -12    0.63    0.13
  -5  10 -12    0.47    0.11
  -5  10 -12    0.54    0.12
  -6  10 -12    0.04    0.09
  -6  10 -12    0.05    0.07
  -7  10 -12    0.11    0.08
  -8  10 -12   -0.09    0.08
   9 -10  12    4.39    0.20
  10   9 -12   -0.06    0.06
  10   9 -12    0.02    0.05
  10   9 -12    0.16    0.10
   9   9 -12    8.58    0.35
   9   9 -12    8.48    0.36
   9   9 -12    8.55    0.37
   8   9 -12   -0.01    0.09
   8   9 -12    0.11    0.07
   8   9 -12    0.07    0.08
   7   9 -12    3.75    0.21
   7   9 -12    3.61    0.23
   7   9 -12    3.77    0.24
   6   9 -12   42.26    1.59
   6   9 -12   42.45    1.57
   6   9 -12   41.61    1.57
   5   9 -12   -0.04    0.13
   5   9 -12   -0.08    0.08
   5   9 -12    0.14    0.10
   4   9 -12    0.18    0.08
   4   9 -12    0.26    0.11
   3   9 -12    9.79    0.44
   3   9 -12   11.02    0.47
   2   9 -12    1.28    0.17
   2   9 -12    1.16    0.23
   1   9 -12    0.87    0.18
   1   9 -12    0.82    0.20
   1   9 -12    0.87    0.17
   0   9 -12   13.02    0.52
   0   9 -12   12.36    0.54
  -1   9 -12    0.73    0.13
  -2   9 -12    0.88    0.16
  -2   9 -12    0.81    0.12
  -3   9 -12   14.03    0.58
  -3   9 -12   14.27    0.60
  -4   9 -12    0.39    0.12
  -4   9 -12    0.26    0.08
  -5   9 -12    0.86    0.13
  -5   9 -12    1.05    0.18
  -6   9 -12    9.79    0.42
  -6   9 -12    8.85    0.41
  -7   9 -12    6.72    0.32
  -8   9 -12    0.04    0.09
   9  -9  12    0.37    0.08
  10   8 -12   -0.03    0.07
  10   8 -12    0.09    0.05
  10   8 -12    0.03    0.08
   9   8 -12    1.14    0.15
   9   8 -12    1.06    0.11
   9   8 -12    0.84    0.14
   8   8 -12    2.58    0.21
   8   8 -12    2.57    0.19
   8   8 -12    2.55    0.17
   7   8 -12    0.44    0.12
   7   8 -12    0.23    0.08
   7   8 -12    0.43    0.10
   6   8 -12    4.46    0.29
   6   8 -12    4.74    0.27
   6   8 -12    4.29    0.24
   5   8 -12    1.42    0.16
   5   8 -12    1.32    0.18
   4   8 -12    0.10    0.09
   4   8 -12    0.18    0.11
   3   8 -12   17.02    0.67
   3   8 -12   17.18    0.70
   2   8 -12    0.29    0.11
   2   8 -12    0.35    0.10
   2   8 -12    0.28    0.14
   1   8 -12    4.73    0.34
   1   8 -12    4.56    0.27
   1   8 -12    5.00    0.25
   0   8 -12   47.64    1.79
   0   8 -12   49.01    1.79
  -1   8 -12    0.03    0.13
  -1   8 -12    0.00    0.07
  -2   8 -12    0.18    0.15
  -2   8 -12    0.03    0.08
  -3   8 -12   15.07    0.63
  -3   8 -12   14.18    0.59
  -4   8 -12    1.35    0.20
  -4   8 -12    1.17    0.14
  -5   8 -12   -0.21    0.10
  -5   8 -12   -0.09    0.07
  -6   8 -12    0.76    0.14
  -7   8 -12    0.58    0.14
  -8   8 -12    0.36    0.09
   9  -8  12    0.38    0.09
  10   7 -12    0.71    0.10
  10   7 -12    0.89    0.14
  10   7 -12    0.88    0.13
   9   7 -12    8.02    0.37
   9   7 -12    8.45    0.37
   9   7 -12    7.95    0.35
   8   7 -12    0.00    0.11
   8   7 -12    0.05    0.09
   8   7 -12    0.07    0.07
   7   7 -12    6.19    0.33
   7   7 -12    6.15    0.34
   7   7 -12    6.60    0.30
   6   7 -12    1.15    0.24
   6   7 -12    1.54    0.15
   6   7 -12    1.41    0.18
   5   7 -12    0.60    0.10
   5   7 -12    0.39    0.10
   4   7 -12    0.02    0.07
   4   7 -12    0.08    0.10
   3   7 -12    8.48    0.38
   3   7 -12    9.10    0.41
   3   7 -12    8.14    0.39
   2   7 -12    0.24    0.10
   2   7 -12    0.27    0.10
   2   7 -12    0.08    0.13
   1   7 -12    0.22    0.16
   1   7 -12    0.38    0.10
   1   7 -12    0.36    0.09
   0   7 -12   75.63    2.85
   0   7 -12   80.43    2.85
  -1   7 -12    1.46    0.14
  -1   7 -12    1.31    0.21
  -2   7 -12    0.74    0.12
  -3   7 -12   11.37    0.52
  -3   7 -12   12.15    0.49
  -4   7 -12    5.51    0.27
  -4   7 -12    5.13    0.31
  -5   7 -12    0.24    0.09
  -5   7 -12    0.17    0.11
  -6   7 -12    7.79    0.36
  -7   7 -12    3.49    0.21
  -8   7 -12    0.25    0.14
   9  -7  12    0.12    0.06
  11   6 -12    1.03    0.14
  10   6 -12    4.43    0.23
  10   6 -12    4.35    0.21
  10   6 -12    4.52    0.24
   9   6 -12    2.90    0.21
   8   6 -12    0.83    0.19
   8   6 -12    1.26    0.18
   8   6 -12    1.00    0.14
   7   6 -12    0.06    0.13
   7   6 -12    0.06    0.08
   7   6 -12    0.10    0.10
   6   6 -12    3.78    0.21
   6   6 -12    3.38    0.23
   5   6 -12    0.09    0.09
   5   6 -12    0.19    0.07
   4   6 -12    0.01    0.09
   4   6 -12    0.10    0.09
   3   6 -12    9.21    0.40
   3   6 -12    9.56    0.40
   3   6 -12    8.70    0.42
   2   6 -12    0.07    0.08
   2   6 -12   -0.08    0.09
   2   6 -12    0.00    0.12
   1   6 -12    0.40    0.10
   1   6 -12    0.43    0.09
   0   6 -12   25.00    0.98
   0   6 -12   26.14    0.97
  -1   6 -12    0.11    0.12
  -1   6 -12    0.02    0.06
  -2   6 -12    0.08    0.14
  -2   6 -12   -0.06    0.06
  -3   6 -12    7.51    0.39
  -3   6 -12    7.34    0.34
  -4   6 -12    2.97    0.19
  -5   6 -12    0.02    0.08
  -6   6 -12   19.02    0.76
  -7   6 -12    1.43    0.16
   8  -6  12    0.15    0.07
   9  -6  12    1.28    0.11
  10  -6  12    1.14    0.10
  11   5 -12    0.01    0.08
  10   5 -12    0.07    0.07
  10   5 -12   -0.13    0.09
  10   5 -12    0.02    0.09
   9   5 -12    0.06    0.07
   9   5 -12   -0.18    0.09
   8   5 -12    0.89    0.14
   8   5 -12    1.06    0.20
   8   5 -12    0.93    0.17
   7   5 -12    5.26    0.26
   7   5 -12    4.69    0.31
   7   5 -12    5.07    0.28
   6   5 -12    9.50    0.43
   6   5 -12    9.67    0.41
   5   5 -12    5.13    0.26
   5   5 -12    4.91    0.27
   4   5 -12    0.48    0.10
   4   5 -12    0.71    0.15
   3   5 -12    0.21    0.10
   3   5 -12    0.15    0.12
   3   5 -12    0.21    0.09
   2   5 -12    0.28    0.13
   2   5 -12    0.22    0.09
   2   5 -12    0.17    0.09
   1   5 -12    0.92    0.11
   1   5 -12    1.16    0.17
   0   5 -12  188.70    7.01
   0   5 -12  199.78    7.01
  -1   5 -12    0.45    0.10
  -1   5 -12    0.67    0.12
  -2   5 -12    0.16    0.11
  -2   5 -12    0.21    0.07
  -3   5 -12    5.10    0.32
  -3   5 -12    4.95    0.30
  -3   5 -12    4.76    0.25
  -4   5 -12    1.53    0.15
  -5   5 -12    0.39    0.09
  -6   5 -12    0.30    0.09
  -7   5 -12    0.27    0.09
  -8   5 -12   -0.10    0.14
   8  -5  12   -0.08    0.07
   9  -5  12    3.12    0.17
  10  -5  12    0.66    0.08
  11   4 -12    0.21    0.09
  11   4 -12    0.32    0.09
  10   4 -12    0.83    0.16
  10   4 -12    0.83    0.13
  10   4 -12    0.77    0.16
   9   4 -12   22.64    0.88
   9   4 -12   22.14    0.86
   9   4 -12   22.44    0.87
   8   4 -12    0.07    0.08
   8   4 -12    0.20    0.12
   8   4 -12   -0.05    0.10
   7   4 -12    1.13    0.16
   7   4 -12    1.35    0.18
   7   4 -12    1.74    0.28
   6   4 -12   17.95    0.72
   6   4 -12   17.63    0.70
   5   4 -12    2.13    0.17
   5   4 -12    1.72    0.18
  -5  -4  12    2.00    0.17
   4   4 -12    1.62    0.18
   4   4 -12    1.37    0.16
   3   4 -12    8.68    0.37
   3   4 -12    8.02    0.39
   3   4 -12    8.43    0.37
   2   4 -12    2.96    0.20
   2   4 -12    3.16    0.18
   0   4 -12   94.24    3.43
  -1   4 -12    0.18    0.11
  -1   4 -12   -0.01    0.06
  -2   4 -12    0.86    0.19
  -2   4 -12    0.74    0.11
  -3   4 -12    2.87    0.25
  -3   4 -12    3.14    0.19
  -4   4 -12    0.08    0.13
  -4   4 -12    0.09    0.08
  -5   4 -12    0.64    0.15
  -5   4 -12    0.65    0.14
  -6   4 -12    3.55    0.23
  -7   4 -12   16.49    0.67
   8  -4  12    0.25    0.07
   9  -4  12    1.10    0.11
  10  -4  12    1.14    0.10
  11   3 -12    0.01    0.08
  10   3 -12    0.65    0.12
  10   3 -12    0.77    0.16
  10   3 -12    0.80    0.15
   9   3 -12    0.03    0.08
   9   3 -12    0.11    0.10
   9   3 -12    0.05    0.10
   8   3 -12    9.05    0.43
   8   3 -12   10.07    0.41
   8   3 -12    9.19    0.43
   7   3 -12    1.45    0.16
   7   3 -12    1.54    0.18
   6   3 -12    7.44    0.35
   6   3 -12    8.13    0.36
  -6  -3  12    7.54    0.35
   5   3 -12    0.51    0.11
   5   3 -12    0.41    0.10
  -5  -3  12    0.33    0.09
   4   3 -12    2.25    0.17
   4   3 -12    2.17    0.20
   3   3 -12   10.28    0.44
   3   3 -12   10.72    0.46
   2   3 -12    0.71    0.11
  -2  -3  12    0.85    0.12
   1   3 -12   19.44    0.74
  -1  -3  12   19.10    0.74
   0   3 -12   61.37    2.25
  -1   3 -12    4.49    0.26
  -1   3 -12    4.50    0.22
  -2   3 -12    0.06    0.10
  -2   3 -12    0.13    0.07
  -3   3 -12    0.00    0.11
  -3   3 -12    0.22    0.08
  -4   3 -12    1.81    0.21
  -4   3 -12    1.63    0.15
  -5   3 -12    1.06    0.15
  -5   3 -12    1.18    0.20
  -6   3 -12    3.14    0.22
  -6   3 -12    3.15    0.25
  -7   3 -12   13.32    0.58
   7  -3  12   14.13    0.57
   8  -3  12    2.34    0.17
   9  -3  12    0.07    0.06
  10  -3  12    0.01    0.05
  12   2 -12    3.56    0.20
  11   2 -12    0.04    0.08
  10   2 -12    4.33    0.25
  10   2 -12    4.21    0.26
  10   2 -12    4.19    0.24
   9   2 -12    5.11    0.29
   9   2 -12    5.09    0.27
   9   2 -12    5.24    0.29
   8   2 -12    0.51    0.12
   8   2 -12    0.71    0.14
   8   2 -12    0.42    0.10
   7   2 -12   -0.06    0.09
   7   2 -12    0.10    0.09
   6   2 -12    3.80    0.22
   6   2 -12    3.49    0.23
  -6  -2  12    3.35    0.21
   5   2 -12    0.50    0.11
   5   2 -12    0.40    0.10
  -5  -2  12    0.36    0.08
   4   2 -12    0.06    0.10
   4   2 -12    0.00    0.08
  -3  -2  12    0.23    0.07
   2   2 -12    0.54    0.11
  -2  -2  12    0.52    0.11
   1   2 -12    0.67    0.10
  -1  -2  12    0.43    0.11
  -1   2 -12    3.15    0.22
  -1   2 -12    3.49    0.19
  -2   2 -12    0.44    0.10
  -2   2 -12    0.49    0.11
  -3   2 -12    2.53    0.17
  -3   2 -12    2.19    0.20
  -4   2 -12    0.80    0.13
  -4   2 -12    0.92    0.17
  -5   2 -12    0.59    0.15
  -5   2 -12    0.75    0.18
  -6   2 -12   18.05    0.71
  -6   2 -12   17.49    0.72
   6  -2  12   18.14    0.72
  -7   2 -12    2.13    0.20
   7  -2  12    1.86    0.18
   8  -2  12    0.21    0.08
   9  -2  12    0.64    0.10
  10  -2  12    0.53    0.08
  12   1 -12    3.68    0.20
  11   1 -12    1.29    0.14
  10   1 -12   20.52    0.80
  10   1 -12   20.05    0.79
   9   1 -12    8.36    0.39
   9   1 -12    8.92    0.40
   9   1 -12    8.36    0.39
   8   1 -12    4.45    0.27
   8   1 -12    4.67    0.27
   8   1 -12    4.85    0.29
   7   1 -12    0.59    0.11
  -7  -1  12    0.97    0.16
   6   1 -12   22.23    0.86
   6   1 -12   22.22    0.87
  -6  -1  12   22.73    0.86
   5   1 -12    1.52    0.17
   5   1 -12    1.95    0.18
  -5  -1  12    1.73    0.14
   4   1 -12    1.33    0.17
   4   1 -12    1.30    0.17
  -3  -1  12   12.97    0.52
   2   1 -12    1.08    0.11
  -2  -1  12    0.86    0.11
   1   1 -12    1.51    0.13
  -1  -1  12    1.32    0.13
   0   1 -12    0.54    0.13
  -1   1 -12    7.38    0.31
  -1   1 -12    6.05    0.32
  -2   1 -12    2.78    0.17
  -2   1 -12    2.68    0.19
  -3   1 -12    0.20    0.09
  -3   1 -12    0.35    0.09
  -4   1 -12    3.84    0.22
  -4   1 -12    3.75    0.23
   4  -1  12    3.43    0.26
  -5   1 -12    2.45    0.19
  -5   1 -12    2.71    0.21
   5  -1  12    2.43    0.22
  -6   1 -12   22.28    0.92
  -6   1 -12   23.55    0.90
   6  -1  12   24.09    0.92
  -7   1 -12   12.96    0.54
   7  -1  12   13.35    0.55
   8  -1  12    0.04    0.07
   9  -1  12   -0.01    0.06
  12   0 -12    0.12    0.09
  11   0 -12    0.09    0.09
  10   0 -12    0.76    0.17
  10   0 -12    0.71    0.15
   9   0 -12    0.08    0.11
   9   0 -12    0.12    0.11
   9   0 -12   -0.13    0.14
   8   0 -12   -0.02    0.11
   8   0 -12   -0.08    0.12
   8   0 -12    0.06    0.12
  -8   0  12   -0.05    0.10
   7   0 -12    0.05    0.11
   7   0 -12    0.28    0.12
  -7   0  12    0.29    0.09
   6   0 -12    3.35    0.24
   6   0 -12    3.34    0.23
  -6   0  12    3.50    0.20
   5   0 -12    0.13    0.10
   5   0 -12    0.17    0.10
  -5   0  12    0.42    0.10
   4   0 -12    4.88    0.28
  -4   0  12    5.42    0.24
  -3   0  12   10.00    0.41
  -2   0  12    0.08    0.06
   1   0 -12    0.54    0.10
  -1   0  12    0.77    0.12
  -1   0 -12    0.79    0.12
  -1   0 -12    0.92    0.14
  -2   0 -12    3.35    0.19
  -2   0 -12    2.95    0.20
  -3   0 -12   -0.06    0.08
  -3   0 -12    0.06    0.09
   3   0  12   -0.07    0.13
  -4   0 -12    0.89    0.16
  -4   0 -12    0.96    0.18
   4   0  12    1.09    0.20
  -5   0 -12    0.22    0.09
  -5   0 -12    0.77    0.20
   5   0  12    0.40    0.11
  -6   0 -12   18.48    0.73
   6   0  12   18.66    0.75
  -7   0 -12    2.81    0.24
   7   0  12    2.77    0.20
  -8   0 -12    0.54    0.10
   8   0  12    0.76    0.12
   9   0  12    5.22    0.24
  12  -1 -12    0.12    0.09
  11  -1 -12    0.66    0.15
  10  -1 -12    1.44    0.21
   9  -1 -12    1.84    0.20
   9  -1 -12    1.60    0.21
   8  -1 -12    0.13    0.11
  -8   1  12    0.04    0.08
   7  -1 -12    0.66    0.14
   7  -1 -12    0.70    0.12
  -7   1  12    0.77    0.13
   6  -1 -12   24.74    1.01
   6  -1 -12   26.41    1.01
  -6   1  12   28.00    1.00
   5  -1 -12    0.09    0.10
   5  -1 -12    0.04    0.10
  -5   1  12    0.06    0.06
   4  -1 -12    0.62    0.15
  -4   1  12    0.42    0.10
  -4   1  12    0.76    0.16
   3  -1 -12   23.89    0.91
  -3   1  12   20.56    0.84
  -2   1  12    1.36    0.13
  -1   1  12    0.00    0.06
   0  -1 -12    2.40    0.19
   0  -1 -12    2.75    0.18
  -1  -1 -12   -0.01    0.07
  -1  -1 -12    0.09    0.08
  -2  -1 -12    2.74    0.18
  -2  -1 -12    2.66    0.19
   2   1  12    2.41    0.41
  -3  -1 -12    0.06    0.08
  -3  -1 -12    0.15    0.09
   3   1  12    0.02    0.14
  -4  -1 -12    1.66    0.19
  -4  -1 -12    1.46    0.16
  -5  -1 -12    0.08    0.09
   5   1  12    0.05    0.10
  -6  -1 -12    0.60    0.10
   6   1  12    0.76    0.16
  -7  -1 -12    1.83    0.23
   7   1  12    2.28    0.18
  -8  -1 -12   -0.06    0.08
   8   1  12    0.06    0.07
   9   1  12    2.00    0.13
  12  -2 -12    6.60    0.29
  11  -2 -12    0.04    0.08
  10  -2 -12    4.50    0.24
   9  -2 -12   17.01    0.68
   9  -2 -12   17.43    0.69
  -9   2  12   16.52    0.68
   8  -2 -12    2.34    0.22
  -8   2  12    2.58    0.18
   7  -2 -12    0.24    0.13
  -7   2  12    0.12    0.08
   6  -2 -12    0.55    0.14
   6  -2 -12    0.29    0.11
  -6   2  12    0.33    0.08
   5  -2 -12    7.58    0.35
   5  -2 -12    7.06    0.36
  -5   2  12    8.11    0.33
   4  -2 -12    3.45    0.22
  -4   2  12    3.78    0.19
  -4   2  12    3.39    0.22
   3  -2 -12    9.79    0.43
  -3   2  12   10.26    0.42
  -2   2  12   -0.09    0.06
  -1   2  12    1.95    0.16
   0  -2 -12   80.88    2.95
  -1  -2 -12    9.78    0.45
  -1  -2 -12   10.23    0.42
  -1  -2 -12    9.87    0.42
  -2  -2 -12    2.92    0.18
  -2  -2 -12    2.92    0.19
  -2  -2 -12    2.83    0.28
   2   2  12    2.85    0.29
  -3  -2 -12   30.54    1.13
  -3  -2 -12   28.53    1.12
   3   2  12   30.28    1.15
  -4  -2 -12   13.30    0.54
   4   2  12   12.86    0.56
  -5  -2 -12    0.01    0.07
   5   2  12    0.16    0.10
  -6  -2 -12    0.56    0.13
  -7  -2 -12    1.18    0.13
   7   2  12    1.05    0.15
  -8  -2 -12    1.84    0.14
   8   2  12    1.88    0.15
   9   2  12    0.69    0.11
  12  -3 -12    1.08    0.15
  11  -3 -12   -0.01    0.09
  10  -3 -12   -0.13    0.09
 -10   3  12   -0.07    0.21
   9  -3 -12    0.49    0.15
   9  -3 -12    0.58    0.12
  -9   3  12    0.69    0.15
   8  -3 -12    1.02    0.19
  -8   3  12    1.28    0.14
  -7   3  12    0.77    0.12
   6  -3 -12    0.52    0.11
  -6   3  12    0.56    0.11
   5  -3 -12    0.47    0.10
  -5   3  12    0.62    0.10
   4  -3 -12    2.92    0.21
  -4   3  12    3.34    0.18
   3  -3 -12   39.09    1.48
  -3   3  12   41.65    1.48
  -3   3  12   38.32    1.47
   2  -3 -12   -0.03    0.10
  -2   3  12   -0.03    0.08
   1  -3 -12    0.47    0.11
   1  -3 -12    0.63    0.12
  -1   3  12    0.44    0.09
   0  -3 -12    1.63    0.17
   0  -3 -12    1.83    0.20
  -1  -3 -12    0.98    0.20
  -1  -3 -12    1.39    0.15
  -2  -3 -12    0.26    0.13
  -2  -3 -12    0.27    0.08
   2   3  12    0.11    0.15
  -3  -3 -12    3.43    0.44
   3   3  12    4.19    0.28
  -4  -3 -12    1.00    0.14
   4   3  12    0.97    0.19
  -5  -3 -12    0.65    0.13
  -6  -3 -12    0.15    0.07
   6   3  12    0.22    0.09
  -7  -3 -12    8.31    0.35
   7   3  12    8.27    0.37
  -8  -3 -12    0.31    0.07
   8   3  12    0.25    0.07
   9   3  12    0.12    0.06
  11  -4 -12    0.87    0.14
  10  -4 -12    0.48    0.10
 -10   4  12    0.38    0.11
   9  -4 -12    2.01    0.20
  -9   4  12    1.91    0.17
   8  -4 -12   -0.09    0.12
  -8   4  12   -0.02    0.07
   7  -4 -12    3.29    0.23
  -7   4  12    3.36    0.20
   6  -4 -12   66.79    2.47
  -6   4  12   67.24    2.46
   5  -4 -12    1.02    0.15
  -5   4  12    0.80    0.11
   4  -4 -12    0.41    0.10
  -4   4  12    0.54    0.10
   3  -4 -12  122.22    4.41
  -3   4  12  120.72    4.40
   2  -4 -12    2.08    0.22
   2  -4 -12    2.02    0.18
  -2   4  12    2.24    0.15
   1  -4 -12    0.99    0.17
   1  -4 -12    0.96    0.16
  -1   4  12    0.81    0.11
   0  -4 -12   30.06    1.14
   0  -4 -12   30.41    1.15
  -1  -4 -12    8.84    0.39
  -1  -4 -12    9.03    0.41
  -2  -4 -12    0.13    0.11
  -2  -4 -12    0.11    0.07
   2   4  12   -0.04    0.14
  -3  -4 -12   17.35    0.67
   3   4  12   16.49    0.70
  -4  -4 -12    0.58    0.13
   4   4  12    0.56    0.12
  -5  -4 -12    1.31    0.14
   5   4  12    1.49    0.19
  -6  -4 -12    5.86    0.28
   6   4  12    5.69    0.30
  -7  -4 -12    3.85    0.20
   7   4  12    3.89    0.22
  -8  -4 -12    1.12    0.10
   8   4  12    1.04    0.11
  11  -5 -12    0.14    0.08
  10  -5 -12    3.87    0.23
 -10   5  12    4.01    0.23
   9  -5 -12    1.78    0.20
  -9   5  12    2.34    0.17
   8  -5 -12    0.01    0.13
  -8   5  12    0.02    0.07
   7  -5 -12    4.52    0.28
  -7   5  12    5.25    0.26
   6  -5 -12   77.77    2.90
  -6   5  12   80.65    2.90
   5  -5 -12    2.03    0.19
  -5   5  12    1.89    0.15
   4  -5 -12    0.20    0.09
  -4   5  12    0.16    0.07
   3  -5 -12   10.11    0.42
   3  -5 -12    8.59    0.44
  -3   5  12    9.50    0.40
   2  -5 -12    0.24    0.12
   2  -5 -12    0.20    0.10
  -2   5  12    0.30    0.08
   1  -5 -12    0.06    0.09
   1  -5 -12    0.07    0.10
  -1   5  12    0.02    0.06
   0  -5 -12    2.56    0.19
   0  -5 -12    1.95    0.19
   0   5  12    2.09    0.17
  -1  -5 -12    0.97    0.15
  -1  -5 -12    0.90    0.16
   1   5  12    0.69    0.16
   1   5  12    0.87    0.18
  -2  -5 -12    4.12    0.27
  -2  -5 -12    4.15    0.23
   2   5  12    4.16    0.30
  -3  -5 -12   30.67    1.17
  -3  -5 -12   30.81    1.18
   3   5  12   31.25    1.19
  -4  -5 -12    1.87    0.24
  -4  -5 -12    2.49    0.18
   4   5  12    2.57    0.22
  -5  -5 -12    0.87    0.12
   5   5  12    0.66    0.16
  -6  -5 -12    6.93    0.32
   6   5  12    7.38    0.34
  -7  -5 -12    0.56    0.10
   7   5  12    0.38    0.08
   8   5  12    0.10    0.06
  11  -6 -12    0.07    0.09
 -11   6  12    0.06    0.13
  10  -6 -12    7.81    0.36
 -10   6  12    8.38    0.36
   9  -6 -12    0.38    0.11
  -9   6  12    0.15    0.08
   8  -6 -12    0.89    0.23
  -8   6  12    0.87    0.13
   7  -6 -12    5.20    0.30
  -7   6  12    5.89    0.28
   6  -6 -12   59.22    2.21
  -6   6  12   60.29    2.20
   5  -6 -12    0.05    0.09
  -5   6  12    0.18    0.07
   4  -6 -12    1.42    0.16
  -4   6  12    1.40    0.13
   3  -6 -12    9.34    0.40
  -3   6  12    8.52    0.38
   2  -6 -12    0.93    0.16
   2  -6 -12    0.92    0.14
  -2   6  12    0.92    0.13
   1  -6 -12    0.12    0.08
   1  -6 -12    0.16    0.10
  -1   6  12   -0.01    0.08
   0  -6 -12    1.57    0.17
   0  -6 -12    1.30    0.16
   0   6  12    1.66    0.17
  -1  -6 -12    0.86    0.18
   1   6  12    1.03    0.25
   1   6  12    1.21    0.19
  -2  -6 -12    1.17    0.17
  -2  -6 -12    1.08    0.15
   2   6  12    1.43    0.22
  -3  -6 -12    4.15    0.26
  -3  -6 -12    4.74    0.25
   3   6  12    4.73    0.29
  -4  -6 -12    1.02    0.20
  -4  -6 -12    0.50    0.12
   4   6  12    0.73    0.17
  -5  -6 -12    0.25    0.07
   5   6  12    0.30    0.10
  -6  -6 -12    0.51    0.10
   6   6  12    0.68    0.13
  -7  -6 -12    0.04    0.05
   7   6  12    0.03    0.07
  -8  -6 -12    0.36    0.08
   8   6  12    0.40    0.09
 -11   7  12    0.78    0.18
  10  -7 -12    7.51    0.34
 -10   7  12    7.65    0.34
   9  -7 -12   12.27    0.51
  -9   7  12   12.60    0.52
   8  -7 -12    0.06    0.13
  -8   7  12   -0.04    0.07
   7  -7 -12    0.11    0.11
  -7   7  12    0.11    0.07
   6  -7 -12   48.41    1.84
  -6   7  12   50.64    1.84
   5  -7 -12    0.11    0.10
  -5   7  12    0.10    0.07
   4  -7 -12    0.01    0.10
  -4   7  12    0.18    0.07
   3  -7 -12    4.49    0.26
  -3   7  12    4.78    0.24
   2  -7 -12   -0.08    0.14
   2  -7 -12   -0.09    0.09
  -2   7  12   -0.09    0.07
   1  -7 -12    0.84    0.16
   1  -7 -12    0.89    0.13
  -1   7  12    0.72    0.14
   0  -7 -12   14.94    0.59
   0  -7 -12   14.33    0.58
   0   7  12   13.65    0.58
   0   7  12   13.96    0.63
  -1  -7 -12    1.69    0.17
  -1  -7 -12    1.74    0.17
   1   7  12    2.08    0.26
  -2  -7 -12    3.09    0.20
  -2  -7 -12    2.82    0.21
   2   7  12    2.92    0.26
  -3  -7 -12   13.09    0.53
  -3  -7 -12   12.85    0.54
   3   7  12   12.89    0.56
  -4  -7 -12    2.25    0.17
  -4  -7 -12    2.53    0.21
   4   7  12    2.73    0.22
  -5  -7 -12    0.12    0.11
   5   7  12    0.09    0.09
  -6  -7 -12    0.28    0.06
   6   7  12    0.14    0.08
  -7  -7 -12    9.50    0.37
   7   7  12    9.12    0.38
 -11   8  12    0.73    0.17
 -10   8  12    0.23    0.09
   9  -8 -12    5.76    0.39
  -9   8  12    5.92    0.28
  -8   8  12    1.04    0.13
   7  -8 -12   -0.02    0.11
  -7   8  12    0.06    0.07
   6  -8 -12   29.67    1.13
   5  -8 -12    0.06    0.09
  -5   8  12    0.05    0.08
   4  -8 -12    0.21    0.09
  -4   8  12    0.12    0.07
   3  -8 -12   39.03    1.45
  -3   8  12   38.15    1.45
   2  -8 -12    0.03    0.09
  -2   8  12   -0.02    0.08
   1  -8 -12    0.01    0.08
  -1   8  12    0.00    0.10
   0  -8 -12    6.34    0.31
   0  -8 -12    6.06    0.31
   0   8  12    5.95    0.37
  -1  -8 -12    0.11    0.08
  -1  -8 -12    0.14    0.09
   1   8  12    0.15    0.13
  -2  -8 -12    5.96    0.30
  -2  -8 -12    6.13    0.30
   2   8  12    6.27    0.34
  -3  -8 -12    0.01    0.07
  -3  -8 -12   -0.13    0.08
   3   8  12   -0.14    0.11
  -4  -8 -12    1.39    0.14
  -4  -8 -12    1.36    0.17
   4   8  12    1.57    0.19
  -5  -8 -12    0.43    0.10
   5   8  12    0.74    0.14
  -6  -8 -12    0.05    0.05
   6   8  12   -0.02    0.07
  -7  -8 -12    0.94    0.08
   7   8  12    0.97    0.11
 -10   9  12    8.50    0.37
  -9   9  12    1.22    0.13
  -8   9  12    0.04    0.07
   7  -9 -12    8.92    0.40
  -7   9  12    8.61    0.39
   6  -9 -12    0.96    0.16
  -6   9  12    0.79    0.13
   5  -9 -12   -0.03    0.09
   4  -9 -12    0.12    0.09
  -4   9  12    0.13    0.09
   3  -9 -12   58.85    2.17
  -3   9  12   58.16    2.16
   2  -9 -12    4.15    0.25
  -2   9  12    4.24    0.24
   1  -9 -12    3.17    0.21
   1  -9 -12    3.11    0.26
  -1   9  12    3.02    0.23
   0  -9 -12    1.76    0.17
   0  -9 -12    1.30    0.19
   0   9  12    1.73    0.25
  -1  -9 -12    9.72    0.44
  -1  -9 -12   10.44    0.44
   1   9  12   10.07    0.47
  -2  -9 -12   -0.03    0.07
  -2  -9 -12    0.15    0.08
   2   9  12   -0.10    0.11
  -3  -9 -12    4.87    0.24
  -3  -9 -12    4.34    0.25
   3   9  12    4.82    0.27
  -4  -9 -12    1.23    0.13
  -4  -9 -12    1.42    0.16
   4   9  12    1.29    0.16
  -5  -9 -12    1.68    0.12
  -5  -9 -12    1.56    0.18
   5   9  12    1.85    0.15
  -6  -9 -12    0.63    0.08
   6   9  12    0.59    0.11
 -10  10  12    2.58    0.17
  -9  10  12    3.11    0.18
  -8  10  12    0.04    0.06
  -7  10  12    0.87    0.13
   6 -10 -12   29.15    1.07
  -6  10  12   26.67    1.07
   5 -10 -12    0.10    0.09
  -5  10  12    0.03    0.08
   4 -10 -12    0.39    0.10
  -4  10  12    0.26    0.09
   3 -10 -12   15.42    0.62
  -3  10  12   14.98    0.61
   2 -10 -12    2.36    0.19
  -2  10  12    2.20    0.20
   1 -10 -12    0.26    0.09
  -1  10  12    0.39    0.16
   0 -10 -12   22.15    0.86
   0 -10 -12   21.40    0.85
   0  10  12   22.00    0.87
  -1 -10 -12   17.95    0.73
  -1 -10 -12   18.96    0.72
   1  10  12   18.31    0.75
  -2 -10 -12    0.33    0.08
  -2 -10 -12    0.44    0.09
   2  10  12    0.37    0.12
  -3 -10 -12   13.37    0.55
  -3 -10 -12   13.68    0.56
   3  10  12   14.86    0.58
  -4 -10 -12    3.40    0.20
  -4 -10 -12    3.30    0.18
   4  10  12    3.68    0.21
  -5 -10 -12    0.56    0.09
   5  10  12    0.56    0.11
  -6 -10 -12    1.05    0.08
   6  10  12    0.75    0.11
 -10  11  12    0.21    0.08
  -9  11  12    1.75    0.15
  -8  11  12    0.19    0.07
  -7  11  12    1.16    0.14
   6 -11 -12   25.26    0.92
  -6  11  12   22.52    0.92
   5 -11 -12    1.31    0.17
  -5  11  12    1.61    0.16
   4 -11 -12    0.42    0.10
  -4  11  12    0.47    0.10
   3 -11 -12    5.74    0.29
  -3  11  12    5.36    0.29
   2 -11 -12    0.46    0.10
   1 -11 -12   -0.02    0.08
  -1  11  12    0.29    0.14
   0 -11 -12    9.09    0.51
   0 -11 -12   10.66    0.44
   0  11  12    9.96    0.46
  -1 -11 -12    0.07    0.08
  -1 -11 -12   -0.03    0.09
  -2 -11 -12    0.09    0.07
  -2 -11 -12    0.20    0.08
   2  11  12    0.19    0.10
  -3 -11 -12    0.17    0.07
  -3 -11 -12    0.06    0.07
   3  11  12    0.02    0.08
  -4 -11 -12    1.21    0.12
  -4 -11 -12    1.19    0.11
   4  11  12    0.96    0.13
  -5 -11 -12    0.21    0.05
   5  11  12    0.21    0.07
  -9  12  12   20.38    0.78
  -8  12  12    0.71    0.12
  -7  12  12   -0.03    0.07
   6 -12 -12   28.77    1.08
  -6  12  12   28.08    1.08
   5 -12 -12   -0.03    0.13
  -5  12  12    0.11    0.09
   4 -12 -12    0.12    0.08
  -4  12  12    0.24    0.10
   3 -12 -12    0.07    0.08
  -3  12  12    0.21    0.13
   2 -12 -12    0.53    0.13
   1 -12 -12    0.02    0.07
  -1  12  12    0.04    0.14
   0  12  12   20.58    0.81
  -1 -12 -12    0.14    0.07
   1  12  12    0.23    0.10
  -2 -12 -12    0.58    0.14
  -2 -12 -12    0.23    0.07
   2  12  12    0.27    0.09
  -3 -12 -12   20.79    0.78
  -3 -12 -12   19.81    0.77
   3  12  12   21.23    0.79
  -4 -12 -12    9.30    0.36
  -4 -12 -12    8.82    0.36
   4  12  12    9.08    0.37
  -8  13  12    1.36    0.14
  -7  13  12    0.17    0.09
   6 -13 -12   -0.01    0.11
  -6  13  12    0.07    0.09
   5 -13 -12    0.12    0.08
  -5  13  12   -0.02    0.13
   4 -13 -12    0.15    0.08
   3 -13 -12   24.97    0.96
   2 -13 -12    0.75    0.12
   1 -13 -12    0.05    0.07
  -1  13  12    0.15    0.12
   0 -13 -12    7.24    0.32
   0  13  12    6.88    0.34
  -1 -13 -12    1.69    0.13
   1  13  12    1.79    0.17
  -2 -13 -12    0.28    0.06
   2  13  12    0.23    0.09
  -3 -13 -12    1.84    0.12
   3  13  12    1.85    0.15
  -7  14  12   -0.02    0.11
  -6  14  12    0.78    0.19
   5 -14 -12    0.05    0.08
   4 -14 -12    0.36    0.08
   3 -14 -12   -0.02    0.06
   2 -14 -12   -0.02    0.07
   1 -14 -12    0.01    0.06
   0 -14 -12    2.83    0.16
  -1 -14 -12    0.21    0.06
   1  14  12    0.37    0.10
  -2 -14 -12    0.00    0.05
   2  14  12    0.11    0.09
   3 -15 -12   15.50    0.60
   2 -15 -12    0.56    0.10
   1 -15 -12    0.56    0.09
   0 -15 -12    1.05    0.10
  -1 -15 -12    6.01    0.25
   3 -16 -12    2.51    0.15
   2 -16 -12    0.48    0.09
   1 -16 -12    0.51    0.09
   5  16 -13    0.02    0.08
   4  16 -13    0.06    0.09
  -4  16 -13    0.24    0.11
   6  15 -13    0.06    0.06
   5  15 -13    0.45    0.11
   5  15 -13    0.23    0.09
   4  15 -13    0.12    0.08
   3  15 -13    0.21    0.11
  -3  15 -13    0.09    0.13
  -3  15 -13    0.09    0.11
  -4  15 -13   11.95    0.47
  -4  15 -13   11.20    0.48
  -5  15 -13    0.08    0.09
  -5  15 -13    0.10    0.10
   7  14 -13    0.90    0.09
   6  14 -13    2.99    0.18
   6  14 -13    2.83    0.17
   5  14 -13    1.23    0.13
   5  14 -13    1.34    0.14
   4  14 -13    2.21    0.17
   4  14 -13    2.17    0.18
   3  14 -13    1.49    0.19
   3  14 -13    1.33    0.19
   2  14 -13   17.16    0.70
  -2  14 -13    1.38    0.19
  -2  14 -13    0.94    0.20
  -3  14 -13    0.17    0.11
  -3  14 -13    0.03    0.09
  -4  14 -13    1.85    0.18
  -5  14 -13    0.47    0.10
  -5  14 -13    0.53    0.13
  -6  14 -13    0.12    0.08
   8  13 -13    5.21    0.23
   7  13 -13    0.14    0.05
   7  13 -13    0.24    0.06
   6  13 -13    1.55    0.14
   6  13 -13    1.59    0.13
   5  13 -13    2.11    0.17
   5  13 -13    2.07    0.16
   4  13 -13    0.18    0.09
   4  13 -13    0.23    0.08
   3  13 -13    1.50    0.23
   2  13 -13    0.05    0.13
   2  13 -13   -0.26    0.12
  -1  13 -13    0.49    0.13
  -2  13 -13    2.28    0.19
  -3  13 -13    0.01    0.09
  -3  13 -13   -0.01    0.11
  -4  13 -13    8.38    0.38
  -4  13 -13    8.03    0.37
  -5  13 -13    1.66    0.16
  -5  13 -13    1.94    0.16
  -6  13 -13    0.33    0.08
  -7  13 -13    1.45    0.14
   8  12 -13   -0.01    0.05
   8  12 -13    0.03    0.04
   7  12 -13    0.54    0.10
   7  12 -13    0.52    0.11
   6  12 -13    1.04    0.13
   6  12 -13    0.74    0.11
   5  12 -13    2.65    0.18
   5  12 -13    3.06    0.29
   4  12 -13    0.99    0.17
   4  12 -13    0.80    0.14
   3  12 -13    0.18    0.11
   3  12 -13    0.25    0.09
   2  12 -13    0.63    0.12
   2  12 -13    0.64    0.14
   0  12 -13   -0.12    0.11
  -1  12 -13   23.15    0.90
  -2  12 -13    1.58    0.17
  -2  12 -13    1.56    0.22
  -3  12 -13    0.29    0.09
  -3  12 -13    0.26    0.12
  -4  12 -13    0.06    0.09
  -5  12 -13    0.11    0.09
  -5  12 -13    0.22    0.09
  -6  12 -13    0.40    0.10
  -7  12 -13    2.12    0.16
   9  11 -13    0.97    0.10
   9  11 -13    1.03    0.09
   8  11 -13    5.49    0.24
   8  11 -13    5.48    0.26
   7  11 -13    0.03    0.06
   7  11 -13    0.04    0.07
   6  11 -13    1.26    0.20
   5  11 -13    0.08    0.07
   5  11 -13    0.13    0.09
   4  11 -13    0.02    0.08
   4  11 -13   -0.01    0.10
   3  11 -13    0.90    0.16
   3  11 -13    0.43    0.12
   2  11 -13    6.26    0.32
   2  11 -13    6.92    0.36
   1  11 -13    0.91    0.20
   0  11 -13    0.98    0.18
  -2  11 -13    0.15    0.09
  -2  11 -13   -0.08    0.13
  -3  11 -13    0.26    0.09
  -3  11 -13    0.32    0.13
  -4  11 -13    0.14    0.11
  -4  11 -13    0.08    0.08
  -5  11 -13   -0.01    0.08
  -5  11 -13    0.00    0.10
  -6  11 -13    0.03    0.07
  -7  11 -13    1.03    0.13
   9  10 -13    1.24    0.10
   9  10 -13    1.38    0.12
   8  10 -13   19.85    0.81
   8  10 -13   19.92    0.78
   8  10 -13   20.20    0.76
   7  10 -13    0.34    0.09
   7  10 -13    0.38    0.12
   7  10 -13    0.46    0.11
   6  10 -13    1.78    0.17
   6  10 -13    2.23    0.16
   5  10 -13    4.29    0.26
   5  10 -13    4.30    0.24
   4  10 -13    0.02    0.08
   4  10 -13    0.20    0.10
   3  10 -13    0.11    0.09
   3  10 -13   -0.10    0.11
   2  10 -13   22.15    0.86
   2  10 -13   22.04    0.88
   1  10 -13    1.14    0.19
   1  10 -13    1.83    0.28
   1  10 -13    1.54    0.19
   0  10 -13    0.54    0.13
   0  10 -13    0.83    0.15
  -1  10 -13   -0.03    0.08
  -2  10 -13    0.20    0.08
  -2  10 -13    0.24    0.15
  -3  10 -13    0.11    0.13
  -3  10 -13    0.03    0.08
  -4  10 -13    1.01    0.14
  -4  10 -13    1.06    0.19
  -5  10 -13    0.19    0.08
  -5  10 -13    0.24    0.10
  -6  10 -13    0.21    0.08
  -8  10 -13    2.65    0.19
  10   9 -13    0.00    0.06
  10   9 -13    0.02    0.05
   9   9 -13    0.45    0.09
   9   9 -13    0.54    0.11
   8   9 -13    1.66    0.19
   8   9 -13    1.46    0.13
   8   9 -13    1.62    0.15
   7   9 -13    1.71    0.17
   7   9 -13    1.44    0.21
   7   9 -13    1.66    0.14
   6   9 -13    1.38    0.15
   6   9 -13    1.67    0.17
   5   9 -13   13.98    0.57
   5   9 -13   13.84    0.59
   4   9 -13    0.01    0.08
   4   9 -13   -0.13    0.11
   3   9 -13    0.78    0.18
   3   9 -13    0.89    0.16
   2   9 -13    5.80    0.30
   2   9 -13    6.43    0.33
   1   9 -13   -0.15    0.17
   1   9 -13    0.07    0.11
   1   9 -13    0.11    0.09
   0   9 -13    0.06    0.08
   0   9 -13    0.09    0.12
  -1   9 -13   26.76    1.03
  -2   9 -13    2.42    0.18
  -3   9 -13    0.23    0.14
  -3   9 -13    0.26    0.09
  -4   9 -13    4.05    0.26
  -4   9 -13    3.66    0.22
  -5   9 -13    4.65    0.26
  -5   9 -13    4.74    0.27
  -6   9 -13   -0.02    0.08
  -7   9 -13    7.61    0.34
  -8   9 -13    0.20    0.10
   9  -9  13    0.00    0.05
  10   8 -13    0.06    0.05
  10   8 -13   -0.16    0.07
   9   8 -13    3.97    0.22
   9   8 -13    3.92    0.23
   9   8 -13    4.18    0.20
   8   8 -13    3.04    0.23
   7   8 -13    1.88    0.30
   7   8 -13    1.76    0.15
   7   8 -13    1.81    0.18
   6   8 -13    0.28    0.09
   6   8 -13    0.05    0.10
   5   8 -13    0.59    0.12
   5   8 -13    0.57    0.10
   4   8 -13    3.51    0.24
   4   8 -13    3.45    0.22
   2   8 -13    0.18    0.10
   2   8 -13    0.14    0.09
   2   8 -13    0.21    0.13
   1   8 -13    1.90    0.19
   1   8 -13    2.17    0.28
   1   8 -13    1.87    0.16
   0   8 -13   -0.04    0.07
   0   8 -13    0.17    0.11
  -1   8 -13    0.86    0.14
  -1   8 -13    1.27    0.14
  -2   8 -13    1.64    0.16
  -3   8 -13    0.69    0.16
  -3   8 -13    0.93    0.13
  -4   8 -13   14.55    0.61
  -5   8 -13    1.19    0.15
  -6   8 -13   -0.01    0.08
  -7   8 -13    2.04    0.17
  -8   8 -13    0.87    0.16
   8  -8  13    0.86    0.11
   9  -8  13    0.32    0.08
  10   7 -13    0.27    0.06
  10   7 -13    0.25    0.08
   9   7 -13    0.12    0.10
   9   7 -13    0.14    0.08
   9   7 -13    0.14    0.07
   8   7 -13    0.22    0.12
   8   7 -13    0.01    0.08
   8   7 -13    0.16    0.07
   7   7 -13    0.26    0.10
   7   7 -13    0.12    0.08
   6   7 -13    0.87    0.14
   6   7 -13    1.10    0.17
   5   7 -13   30.52    1.19
   5   7 -13   31.54    1.17
   4   7 -13   -0.02    0.08
   3   7 -13    0.11    0.09
   3   7 -13    0.04    0.11
   2   7 -13    7.10    0.32
   2   7 -13    6.55    0.36
   2   7 -13    7.00    0.32
   1   7 -13    5.40    0.34
   1   7 -13    5.19    0.26
   1   7 -13    5.16    0.27
   0   7 -13    0.61    0.12
   0   7 -13    0.56    0.12
  -1   7 -13   16.28    0.64
  -1   7 -13   15.77    0.64
  -2   7 -13    0.93    0.13
  -2   7 -13    1.23    0.24
  -3   7 -13    0.68    0.13
  -4   7 -13    0.25    0.13
  -4   7 -13    0.14    0.08
  -5   7 -13    0.91    0.14
  -6   7 -13    0.29    0.09
  -7   7 -13    2.54    0.18
  -8   7 -13    1.15    0.17
   8  -7  13    1.20    0.12
   9  -7  13    0.07    0.06
  10   6 -13   -0.01    0.08
  10   6 -13   -0.03    0.06
  10   6 -13    0.06    0.10
   9   6 -13    0.05    0.07
   9   6 -13   -0.04    0.08
   9   6 -13    0.08    0.11
   8   6 -13   11.61    0.52
   8   6 -13   12.77    0.53
   8   6 -13   12.55    0.51
   7   6 -13    0.13    0.09
   7   6 -13    0.08    0.08
   6   6 -13    0.92    0.16
   6   6 -13    1.23    0.15
   5   6 -13   50.21    1.87
   5   6 -13   49.91    1.85
   4   6 -13    2.24    0.18
   4   6 -13    2.26    0.20
   3   6 -13    1.56    0.16
   3   6 -13    1.87    0.20
   3   6 -13    1.49    0.17
   2   6 -13   14.91    0.61
   2   6 -13   15.53    0.63
   2   6 -13   15.43    0.61
   1   6 -13    1.53    0.19
   1   6 -13    1.54    0.17
   1   6 -13    1.65    0.14
   0   6 -13    1.23    0.19
   0   6 -13    1.29    0.13
  -1   6 -13   16.28    0.64
  -1   6 -13   15.65    0.64
  -2   6 -13    0.16    0.07
  -2   6 -13    0.07    0.11
  -3   6 -13    2.40    0.17
  -3   6 -13    2.47    0.25
  -3   6 -13    1.92    0.27
  -4   6 -13    1.68    0.16
  -5   6 -13    0.65    0.13
  -6   6 -13    1.32    0.15
  -7   6 -13    0.55    0.14
  -8   6 -13    5.64    0.31
   8  -6  13    5.60    0.27
   9  -6  13    0.14    0.06
  11   5 -13    0.04    0.13
  11   5 -13   -0.01    0.07
  10   5 -13    0.01    0.08
  10   5 -13    0.18    0.10
  10   5 -13    0.09    0.07
   9   5 -13   16.73    0.68
   9   5 -13   18.04    0.71
   9   5 -13   16.19    0.70
   8   5 -13    3.20    0.22
   8   5 -13    3.11    0.19
   7   5 -13    0.90    0.14
   7   5 -13    0.88    0.16
   6   5 -13    6.90    0.34
   6   5 -13    7.17    0.33
   5   5 -13    3.72    0.21
   5   5 -13    3.89    0.24
   4   5 -13    0.30    0.09
   4   5 -13    0.30    0.10
   3   5 -13    4.44    0.27
   3   5 -13    4.90    0.25
   3   5 -13    4.83    0.25
   2   5 -13   67.21    2.52
   2   5 -13   69.24    2.51
   2   5 -13   69.67    2.52
   1   5 -13    4.08    0.21
   1   5 -13    4.17    0.23
   1   5 -13    3.47    0.29
   0   5 -13    1.60    0.18
   0   5 -13    1.58    0.14
  -1   5 -13    0.29    0.11
  -1   5 -13    0.29    0.07
  -2   5 -13    0.18    0.11
  -2   5 -13    0.21    0.07
  -3   5 -13    1.29    0.14
  -3   5 -13    1.46    0.21
  -4   5 -13    0.06    0.07
  -4   5 -13    0.27    0.13
  -6   5 -13    0.08    0.08
  -7   5 -13   12.06    0.51
   8  -5  13    1.41    0.13
   9  -5  13    0.05    0.06
  11   4 -13    5.78    0.27
  10   4 -13    0.04    0.07
  10   4 -13    0.02    0.09
  10   4 -13   -0.03    0.10
   9   4 -13    0.55    0.14
   9   4 -13    1.04    0.17
   9   4 -13    0.33    0.13
   8   4 -13   15.39    0.63
   8   4 -13   14.82    0.61
   7   4 -13    0.56    0.14
   7   4 -13    1.01    0.17
   6   4 -13    0.87    0.16
   6   4 -13    0.55    0.09
   5   4 -13    5.28    0.27
   5   4 -13    5.37    0.28
  -5  -4  13    5.55    0.28
   4   4 -13    0.11    0.09
   4   4 -13    0.01    0.08
   3   4 -13    0.01    0.07
   3   4 -13   -0.07    0.10
   2   4 -13   74.01    2.82
   2   4 -13   81.27    2.82
   2   4 -13   75.85    2.81
   1   4 -13    0.41    0.11
   1   4 -13    0.59    0.14
   0   4 -13    1.43    0.13
   0   4 -13    1.86    0.18
  -1   4 -13   52.72    1.95
  -1   4 -13   52.73    1.94
  -2   4 -13    6.19    0.29
  -2   4 -13    6.02    0.31
  -3   4 -13    0.58    0.12
  -3   4 -13    0.45    0.09
  -4   4 -13    0.17    0.12
  -4   4 -13    0.18    0.08
  -5   4 -13    6.47    0.34
  -5   4 -13    6.63    0.32
  -6   4 -13    0.36    0.10
  -7   4 -13    0.29    0.12
   7  -4  13    0.22    0.09
   8  -4  13    9.04    0.39
   9  -4  13    0.21    0.06
  10   3 -13    0.85    0.17
  10   3 -13    0.66    0.14
  10   3 -13    0.81    0.18
   9   3 -13   -0.05    0.08
   9   3 -13    0.20    0.13
   9   3 -13    0.10    0.10
   8   3 -13    2.44    0.21
   8   3 -13    2.75    0.21
   7   3 -13    0.05    0.09
   7   3 -13    0.06    0.08
   6   3 -13    3.89    0.24
  -6  -3  13    4.19    0.24
   5   3 -13    1.27    0.16
   5   3 -13    1.14    0.17
  -5  -3  13    1.13    0.14
   4   3 -13    0.15    0.10
   4   3 -13    0.03    0.08
   3   3 -13    0.86    0.17
   3   3 -13    0.31    0.09
   2   3 -13    0.17    0.08
   2   3 -13    0.28    0.12
   2   3 -13    0.23    0.08
   1   3 -13    0.61    0.11
   1   3 -13    0.65    0.10
   0   3 -13    0.73    0.10
   0   3 -13    0.71    0.12
  -1   3 -13   17.59    0.69
  -1   3 -13   17.60    0.69
  -2   3 -13    1.40    0.19
  -2   3 -13    1.58    0.14
  -3   3 -13    1.10    0.18
  -3   3 -13    0.95    0.13
  -4   3 -13   15.22    0.62
  -4   3 -13   15.47    0.62
  -5   3 -13    0.18    0.11
  -5   3 -13    0.36    0.10
  -6   3 -13    0.21    0.12
  -6   3 -13   -0.08    0.09
   6  -3  13   -0.01    0.09
   7  -3  13    0.95    0.15
   8  -3  13    5.10    0.25
   9  -3  13    0.04    0.06
  11   2 -13    0.83    0.15
  10   2 -13    1.15    0.19
  10   2 -13    1.11    0.18
  10   2 -13    1.28    0.18
   9   2 -13    2.47    0.21
   9   2 -13    2.61    0.19
   9   2 -13    2.39    0.25
   8   2 -13    0.09    0.10
   8   2 -13    0.33    0.09
   7   2 -13   -0.03    0.09
   7   2 -13   -0.03    0.08
  -7  -2  13   -0.04    0.12
   6   2 -13    0.55    0.13
   6   2 -13    0.29    0.10
  -6  -2  13    0.33    0.09
   5   2 -13   27.67    1.05
   5   2 -13   27.79    1.04
  -5  -2  13   26.77    1.03
   4   2 -13    0.62    0.11
   4   2 -13    0.48    0.11
   3   2 -13    0.21    0.10
   3   2 -13    0.07    0.08
   2   2 -13  140.01    4.90
   2   2 -13  133.27    4.89
   2   2 -13  132.52    4.90
   1   2 -13    7.76    0.35
   1   2 -13    7.77    0.34
   0   2 -13   -0.05    0.06
   0   2 -13    0.08    0.09
  -1   2 -13    9.23    0.41
  -1   2 -13    9.47    0.40
  -2   2 -13    5.63    0.28
  -2   2 -13    5.71    0.29
  -3   2 -13    0.35    0.09
  -3   2 -13    0.33    0.10
  -4   2 -13    1.92    0.19
  -4   2 -13    2.13    0.17
  -5   2 -13    3.19    0.21
  -5   2 -13    2.84    0.21
   5  -2  13    2.68    0.23
  -6   2 -13    1.06    0.18
  -6   2 -13    0.97    0.20
   6  -2  13    1.11    0.16
  -7   2 -13   26.51    1.06
   7  -2  13   30.06    1.15
   8  -2  13    1.33    0.14
   9  -2  13    0.53    0.09
  11   1 -13    4.84    0.29
  10   1 -13    0.04    0.10
  10   1 -13    0.07    0.11
   9   1 -13    3.07    0.22
   9   1 -13    3.00    0.23
   8   1 -13   29.47    1.14
   8   1 -13   30.65    1.15
   7   1 -13    0.00    0.09
   7   1 -13    0.19    0.10
  -7  -1  13    0.02    0.09
   6   1 -13    0.32    0.10
   6   1 -13    0.11    0.09
  -6  -1  13    0.33    0.09
   5   1 -13   15.93    0.65
   5   1 -13   16.94    0.66
  -5  -1  13   16.39    0.64
   4   1 -13    1.06    0.17
   4   1 -13    1.01    0.16
   3   1 -13    0.63    0.16
   3   1 -13    0.59    0.10
   2   1 -13    1.98    0.14
   2   1 -13    1.77    0.20
   2   1 -13    1.71    0.17
   1   1 -13    1.40    0.16
   1   1 -13    1.61    0.13
   0   1 -13    1.26    0.12
   0   1 -13    1.00    0.16
  -1   1 -13    6.50    0.31
  -1   1 -13    6.97    0.31
  -2   1 -13    0.10    0.09
  -2   1 -13   -0.05    0.07
  -3   1 -13    3.57    0.21
  -3   1 -13    3.43    0.22
   3  -1  13    3.32    0.29
  -4   1 -13   29.35    1.12
  -4   1 -13   30.27    1.12
   4  -1  13   28.80    1.14
  -5   1 -13    7.39    0.34
  -5   1 -13    6.90    0.35
   5  -1  13    6.98    0.36
  -6   1 -13    0.06    0.09
   6  -1  13    0.19    0.10
  -7   1 -13   11.73    0.48
   8  -1  13    0.08    0.07
   9  -1  13    0.05    0.06
  10   0 -13    2.71    0.23
  10   0 -13    2.09    0.21
   9   0 -13    3.26    0.24
   9   0 -13    3.56    0.25
   8   0 -13   16.25    0.65
   8   0 -13   15.23    0.64
  -8   0  13   15.73    0.63
   7   0 -13    0.09    0.13
   7   0 -13    0.11    0.10
  -7   0  13    0.25    0.09
   6   0 -13    5.01    0.28
   6   0 -13    5.54    0.29
  -6   0  13    5.75    0.26
   5   0 -13   22.07    0.83
   5   0 -13   20.72    0.82
  -5   0  13   21.00    0.82
   4   0 -13    1.77    0.19
   4   0 -13    1.90    0.18
  -4   0  13    1.92    0.14
   3   0 -13    2.67    0.19
   3   0 -13    2.80    0.21
   2   0 -13   13.01    0.53
   2   0 -13   12.30    0.51
   1   0 -13    1.68    0.13
   1   0 -13    1.40    0.16
   1   0 -13    1.24    0.21
   0   0 -13    1.61    0.14
   0   0 -13    1.74    0.17
  -1   0 -13    2.40    0.30
  -1   0 -13    2.60    0.17
  -1   0 -13    2.46    0.18
  -2   0 -13    0.52    0.09
  -2   0 -13    0.61    0.13
  -3   0 -13    1.01    0.15
  -3   0 -13    1.03    0.15
   3   0  13    0.91    0.24
  -4   0 -13    4.86    0.26
  -4   0 -13    4.92    0.27
   4   0  13    5.22    0.31
  -5   0 -13    2.61    0.27
  -5   0 -13    2.34    0.19
   5   0  13    2.47    0.22
  -6   0 -13    2.18    0.18
   6   0  13    2.21    0.19
  -7   0 -13    3.34    0.20
   7   0  13    3.46    0.21
  -8   0 -13    0.99    0.15
   8   0  13    0.86    0.12
   9   0  13   -0.04    0.08
  10  -1 -13    0.34    0.13
  10  -1 -13    0.25    0.14
   9  -1 -13    6.85    0.33
  -9   1  13    6.12    0.41
   8  -1 -13   22.84    0.92
  -8   1  13   24.28    0.91
   7  -1 -13    0.01    0.18
   7  -1 -13   -0.16    0.10
  -7   1  13    0.15    0.08
   6  -1 -13    0.46    0.11
   6  -1 -13    0.45    0.12
  -6   1  13    0.63    0.11
   5  -1 -13   14.27    0.57
   5  -1 -13   14.09    0.58
  -5   1  13   14.01    0.56
   4  -1 -13    0.51    0.10
   4  -1 -13    0.96    0.13
  -4   1  13    0.84    0.11
   3  -1 -13    0.07    0.10
   3  -1 -13   -0.06    0.09
   2  -1 -13    0.96    0.16
   2  -1 -13    1.13    0.17
  -2   1  13    0.99    0.16
   1  -1 -13    0.12    0.10
   1  -1 -13    0.27    0.12
   0  -1 -13    4.20    0.21
   0  -1 -13    3.45    0.26
   0  -1 -13    3.95    0.22
  -1  -1 -13   13.93    0.54
  -1  -1 -13   12.81    0.57
  -1  -1 -13   13.25    0.54
  -2  -1 -13    5.08    0.26
  -2  -1 -13    5.06    0.26
  -3  -1 -13    5.99    0.28
   3   1  13    4.59    0.33
  -4  -1 -13   17.83    0.71
  -4  -1 -13   17.58    0.72
   4   1  13   18.57    0.74
  -5  -1 -13   11.11    0.46
   5   1  13   10.71    0.48
  -6  -1 -13    0.98    0.14
   6   1  13    0.75    0.16
  -7  -1 -13    0.63    0.12
   7   1  13    0.49    0.13
  -8  -1 -13    0.08    0.08
   8   1  13    0.00    0.06
   9   1  13    0.59    0.09
   9  -2 -13    6.45    0.32
  -9   2  13    5.71    0.30
   8  -2 -13    0.70    0.18
  -8   2  13    0.53    0.14
   7  -2 -13    1.40    0.18
  -7   2  13    1.00    0.14
   6  -2 -13    0.78    0.16
   6  -2 -13    0.65    0.14
  -6   2  13    0.85    0.12
   5  -2 -13  140.08    5.14
   5  -2 -13  144.05    5.15
  -5   2  13  142.18    5.15
   4  -2 -13    0.46    0.12
   4  -2 -13    0.24    0.09
  -4   2  13    0.30    0.07
   3  -2 -13    0.74    0.13
   3  -2 -13    0.97    0.15
  -3   2  13    0.90    0.11
   2  -2 -13    0.49    0.11
   2  -2 -13    0.74    0.15
  -2   2  13    0.89    0.18
   1  -2 -13    0.23    0.11
   1  -2 -13    0.15    0.09
  -1   2  13    0.20    0.16
   0  -2 -13    0.16    0.11
   0  -2 -13    0.12    0.09
  -1  -2 -13    1.95    0.17
  -1  -2 -13    2.05    0.24
  -2  -2 -13    4.11    0.31
  -2  -2 -13    4.62    0.24
   2   2  13    3.75    0.33
  -3  -2 -13    3.83    0.22
   3   2  13    4.00    0.29
  -4  -2 -13   16.99    0.69
   4   2  13   17.71    0.71
  -5  -2 -13    8.73    0.38
   5   2  13    8.48    0.40
  -6  -2 -13    0.88    0.13
   6   2  13    1.10    0.16
  -7  -2 -13    4.76    0.24
   7   2  13    4.91    0.25
  -8  -2 -13    1.49    0.13
   8   2  13    1.66    0.13
   9   2  13   -0.06    0.05
 -10   3  13    0.17    0.14
   9  -3 -13    3.64    0.26
  -9   3  13    3.44    0.22
   8  -3 -13   11.90    0.51
   7  -3 -13   -0.14    0.10
  -7   3  13    0.04    0.07
   6  -3 -13    3.06    0.22
  -6   3  13    3.17    0.19
   5  -3 -13   48.48    1.82
   5  -3 -13   50.22    1.83
  -5   3  13   49.01    1.82
   4  -3 -13    0.06    0.09
   4  -3 -13   -0.05    0.11
  -4   3  13   -0.01    0.06
   3  -3 -13    1.59    0.16
   3  -3 -13    1.64    0.20
  -3   3  13    1.59    0.13
   2  -3 -13   15.31    0.62
   2  -3 -13   15.75    0.62
   1  -3 -13    0.06    0.10
   1  -3 -13    0.12    0.09
   0  -3 -13   -0.04    0.11
   0  -3 -13    0.12    0.08
  -1  -3 -13   14.43    0.56
  -1  -3 -13   13.30    0.57
  -2  -3 -13    6.33    0.31
  -2  -3 -13    5.98    0.33
   2   3  13    6.22    0.38
  -3  -3 -13    0.67    0.13
   3   3  13    0.79    0.21
  -4  -3 -13   29.09    1.11
   4   3  13   29.18    1.13
  -5  -3 -13   27.93    1.06
   5   3  13   27.99    1.08
  -6  -3 -13   -0.02    0.09
  -7  -3 -13    0.01    0.06
   7   3  13    0.09    0.07
   8   3  13    1.59    0.13
 -10   4  13    2.69    0.21
   9  -4 -13   10.43    0.48
  -9   4  13   11.40    0.46
   8  -4 -13   16.44    0.66
  -8   4  13   16.22    0.65
   7  -4 -13    0.40    0.11
  -7   4  13    0.59    0.13
   6  -4 -13    1.38    0.19
  -6   4  13    1.38    0.14
   5  -4 -13   39.40    1.50
  -5   4  13   40.65    1.50
   4  -4 -13    0.55    0.14
   4  -4 -13    0.31    0.13
  -4   4  13    0.47    0.10
   3  -4 -13    3.62    0.26
   3  -4 -13    4.05    0.23
  -3   4  13    4.41    0.22
   2  -4 -13   46.66    1.71
   2  -4 -13   45.31    1.70
  -2   4  13   45.56    1.70
   1  -4 -13    1.63    0.17
   1  -4 -13    1.61    0.18
  -1   4  13    1.75    0.15
   0  -4 -13    1.13    0.15
   0  -4 -13    1.50    0.17
  -1  -4 -13    5.57    0.28
  -1  -4 -13    5.96    0.31
  -2  -4 -13    3.20    0.20
   2   4  13    3.05    0.29
  -3  -4 -13    0.23    0.08
  -3  -4 -13    0.02    0.13
   3   4  13    0.14    0.13
  -4  -4 -13    2.63    0.18
   4   4  13    2.52    0.23
  -5  -4 -13    0.25    0.08
   5   4  13    0.30    0.11
  -6  -4 -13    0.16    0.07
   6   4  13    0.04    0.08
  -7  -4 -13    0.28    0.06
   7   4  13    0.45    0.12
  -8  -4 -13   10.57    0.38
   8   4  13    8.53    0.42
 -10   5  13    0.23    0.09
  -9   5  13    2.88    0.19
   8  -5 -13    2.86    0.24
  -8   5  13    2.82    0.18
   7  -5 -13    0.18    0.10
  -7   5  13    0.16    0.08
   6  -5 -13    0.09    0.08
  -6   5  13    0.20    0.07
   5  -5 -13    5.10    0.28
  -5   5  13    5.63    0.27
   4  -5 -13    0.03    0.09
  -4   5  13   -0.09    0.06
   3  -5 -13    1.17    0.21
   3  -5 -13    0.73    0.15
  -3   5  13    0.77    0.12
   2  -5 -13    5.05    0.29
   2  -5 -13    5.26    0.27
  -2   5  13    4.89    0.25
   1  -5 -13    0.33    0.11
   1  -5 -13    0.39    0.10
  -1   5  13    0.38    0.09
   0  -5 -13    0.98    0.16
   0  -5 -13    1.09    0.17
   0   5  13    1.34    0.15
  -1  -5 -13    9.26    0.42
   1   5  13    9.66    0.42
  -2  -5 -13    1.82    0.17
  -2  -5 -13    1.62    0.20
   2   5  13    2.07    0.25
  -3  -5 -13    2.92    0.19
  -3  -5 -13    2.57    0.24
   3   5  13    2.93    0.25
  -4  -5 -13    8.92    0.40
   4   5  13    9.59    0.43
  -5  -5 -13   10.05    0.42
   5   5  13    9.95    0.45
  -6  -5 -13    0.59    0.10
   6   5  13    0.51    0.13
  -7  -5 -13    0.21    0.06
   7   5  13    0.17    0.07
  -8  -5 -13    1.85    0.11
   8   5  13    1.52    0.12
 -11   6  13    1.93    0.28
 -10   6  13    0.01    0.08
  -9   6  13    5.46    0.27
   8  -6 -13    0.34    0.13
  -8   6  13   -0.01    0.07
   7  -6 -13    0.09    0.10
  -7   6  13    0.19    0.09
   6  -6 -13    0.82    0.16
  -6   6  13    0.96    0.13
   5  -6 -13    0.08    0.09
  -5   6  13    0.15    0.07
  -4   6  13    0.79    0.12
   3  -6 -13    0.46    0.10
   3  -6 -13    0.48    0.14
  -3   6  13    0.26    0.07
   2  -6 -13    0.32    0.12
   2  -6 -13    0.15    0.10
  -2   6  13    0.22    0.08
   1  -6 -13    0.10    0.10
   1  -6 -13    0.17    0.11
  -1   6  13    0.10    0.09
   0  -6 -13    0.60    0.15
   0   6  13    0.90    0.15
  -1  -6 -13    6.98    0.34
  -1  -6 -13    7.48    0.35
   1   6  13    7.69    0.39
  -2  -6 -13    3.51    0.23
  -2  -6 -13    3.46    0.21
   2   6  13    3.15    0.28
  -3  -6 -13   -0.04    0.11
  -3  -6 -13    0.05    0.07
   3   6  13   -0.01    0.11
  -4  -6 -13    0.75    0.13
  -4  -6 -13    0.77    0.19
   4   6  13    0.76    0.12
  -5  -6 -13    3.11    0.18
   5   6  13    2.89    0.21
  -6  -6 -13    0.05    0.05
   6   6  13    0.05    0.08
  -7  -6 -13   -0.05    0.04
   7   6  13   -0.10    0.06
 -11   7  13    2.83    0.25
 -10   7  13    1.68    0.18
  -9   7  13    6.00    0.29
   8  -7 -13    7.58    0.37
  -8   7  13    7.92    0.35
   7  -7 -13    1.29    0.18
  -7   7  13    0.98    0.13
   6  -7 -13    3.93    0.25
  -6   7  13    4.38    0.25
   5  -7 -13   32.68    1.26
  -5   7  13   33.78    1.26
   4  -7 -13    0.37    0.09
  -4   7  13    0.30    0.09
   3  -7 -13    0.16    0.10
  -3   7  13    0.19    0.08
   2  -7 -13    5.00    0.31
   2  -7 -13    5.83    0.29
  -2   7  13    5.74    0.28
   1  -7 -13    0.09    0.09
   1  -7 -13    0.11    0.11
  -1   7  13   -0.05    0.09
   0  -7 -13    0.14    0.09
   0  -7 -13    0.26    0.09
   0   7  13    0.32    0.12
  -1  -7 -13    4.85    0.26
  -1  -7 -13    4.41    0.25
   1   7  13    4.55    0.33
  -2  -7 -13   20.25    0.77
  -2  -7 -13   19.67    0.78
   2   7  13   19.29    0.80
  -3  -7 -13    2.68    0.21
  -3  -7 -13    3.24    0.19
   3   7  13    3.20    0.25
  -4  -7 -13    1.91    0.19
  -4  -7 -13    2.02    0.15
   4   7  13    2.40    0.23
  -5  -7 -13    0.70    0.10
   5   7  13    0.82    0.14
  -6  -7 -13    0.95    0.09
   6   7  13    0.83    0.13
  -7  -7 -13    6.95    0.28
   7   7  13    7.13    0.30
 -10   8  13    0.66    0.13
  -9   8  13   -0.01    0.06
  -8   8  13    4.17    0.23
   7  -8 -13    0.05    0.10
  -7   8  13    0.10    0.07
   6  -8 -13    0.26    0.09
  -6   8  13    0.35    0.09
   5  -8 -13    3.98    0.24
   4  -8 -13    0.19    0.09
  -4   8  13    0.15    0.08
   3  -8 -13    0.04    0.09
  -3   8  13    0.10    0.07
   2  -8 -13    0.09    0.08
   2  -8 -13    0.19    0.19
  -2   8  13    0.21    0.09
   1  -8 -13    0.04    0.09
   1  -8 -13    0.29    0.12
  -1   8  13    0.23    0.10
   0  -8 -13    1.13    0.17
   0  -8 -13    1.30    0.16
  -1  -8 -13    1.32    0.16
  -1  -8 -13    1.04    0.16
   1   8  13    1.51    0.24
  -2  -8 -13    1.73    0.17
  -2  -8 -13    1.08    0.16
   2   8  13    1.54    0.21
  -3  -8 -13    0.55    0.12
  -3  -8 -13    0.59    0.15
   3   8  13    0.61    0.13
  -4  -8 -13    0.05    0.09
  -4  -8 -13   -0.02    0.06
   4   8  13    0.06    0.10
  -5  -8 -13    0.03    0.05
   5   8  13   -0.07    0.08
  -6  -8 -13    0.06    0.05
   6   8  13   -0.05    0.07
 -10   9  13    0.13    0.08
  -9   9  13    0.24    0.07
  -8   9  13   10.60    0.45
   7  -9 -13   -0.01    0.10
  -7   9  13    0.13    0.07
   6  -9 -13    0.36    0.10
  -6   9  13    0.26    0.08
   5  -9 -13   22.54    0.84
  -5   9  13   20.39    0.84
   4  -9 -13    0.16    0.08
  -4   9  13    0.23    0.09
   3  -9 -13    0.63    0.11
  -3   9  13    0.23    0.14
   2  -9 -13   16.50    0.67
   1  -9 -13    0.48    0.13
   1  -9 -13    0.40    0.09
  -1   9  13    0.76    0.14
   0  -9 -13    0.10    0.08
   0  -9 -13    0.19    0.10
   0   9  13    0.01    0.15
  -1  -9 -13   12.30    0.52
  -1  -9 -13   12.52    0.53
   1   9  13   13.04    0.55
  -2  -9 -13    4.11    0.23
  -2  -9 -13    3.93    0.24
   2   9  13    4.38    0.27
  -3  -9 -13    0.05    0.06
  -3  -9 -13    0.01    0.08
   3   9  13    0.07    0.10
  -4  -9 -13    4.99    0.23
  -4  -9 -13    4.40    0.24
   4   9  13    4.96    0.26
  -5  -9 -13    2.34    0.13
   5   9  13    2.29    0.16
  -6  -9 -13    0.79    0.08
   6   9  13    0.65    0.11
 -10  10  13    0.04    0.08
  -9  10  13    1.08    0.12
  -8  10  13    0.08    0.07
   7 -10 -13    1.35    0.19
  -7  10  13    1.29    0.14
   6 -10 -13    0.07    0.08
  -6  10  13    0.01    0.08
   5 -10 -13    0.07    0.09
  -5  10  13    0.11    0.08
   4 -10 -13    1.02    0.15
  -4  10  13    0.68    0.14
   3 -10 -13    1.63    0.17
  -3  10  13    1.55    0.17
   2 -10 -13   10.64    0.45
  -2  10  13    9.79    0.44
   1 -10 -13    7.91    0.37
   0 -10 -13    3.19    0.22
   0 -10 -13    3.01    0.20
   0  10  13    2.27    0.26
  -1 -10 -13   51.89    1.91
  -1 -10 -13   50.71    1.89
  -2 -10 -13    0.06    0.08
  -2 -10 -13    0.03    0.07
   2  10  13   -0.11    0.10
  -3 -10 -13    0.14    0.07
  -3 -10 -13    0.05    0.07
   3  10  13    0.00    0.09
  -4 -10 -13    0.31    0.06
  -4 -10 -13    0.47    0.09
   4  10  13    0.50    0.13
  -5 -10 -13    3.85    0.22
   5  10  13    3.24    0.19
  -9  11  13    0.71    0.12
  -8  11  13    0.31    0.11
   7 -11 -13    0.52    0.12
  -7  11  13    0.71    0.13
   6 -11 -13    0.33    0.09
  -6  11  13    0.47    0.12
   5 -11 -13    4.47    0.24
  -5  11  13    3.72    0.23
   4 -11 -13   -0.01    0.07
  -4  11  13   -0.03    0.09
   3 -11 -13    0.32    0.09
  -3  11  13    0.22    0.11
   2 -11 -13    4.69    0.25
   1 -11 -13    0.15    0.08
   0 -11 -13    0.05    0.07
   0  11  13    0.07    0.14
  -1 -11 -13    2.45    0.17
  -1 -11 -13    2.16    0.19
   1  11  13    2.31    0.21
  -2 -11 -13   -0.08    0.06
  -2 -11 -13   -0.01    0.07
   2  11  13   -0.12    0.10
  -3 -11 -13    0.03    0.06
  -3 -11 -13   -0.06    0.06
   3  11  13    0.03    0.09
  -4 -11 -13    3.26    0.18
   4  11  13    3.36    0.19
  -9  12  13    2.64    0.17
  -8  12  13    0.00    0.07
  -7  12  13    0.40    0.09
   6 -12 -13    1.79    0.17
  -6  12  13    2.19    0.16
   5 -12 -13    8.21    0.36
  -5  12  13    7.77    0.36
   4 -12 -13    0.35    0.09
  -4  12  13    0.31    0.11
   1 -12 -13    1.68    0.15
   0 -12 -13    0.76    0.12
   0  12  13    0.62    0.14
  -1 -12 -13    0.93    0.12
   1  12  13    1.04    0.19
  -2 -12 -13    8.42    0.35
  -2 -12 -13    7.85    0.36
   2  12  13    8.28    0.36
  -3 -12 -13    0.85    0.16
  -3 -12 -13    0.93    0.13
   3  12  13    0.84    0.14
  -8  13  13    3.57    0.20
  -7  13  13    0.09    0.09
   6 -13 -13    1.89    0.18
  -6  13  13    1.75    0.17
   5 -13 -13    0.05    0.07
  -5  13  13    0.08    0.11
   4 -13 -13   -0.06    0.07
   3 -13 -13    0.03    0.06
   2 -13 -13    1.96    0.15
   1 -13 -13    0.15    0.07
   0 -13 -13    1.52    0.12
  -1 -13 -13    0.16    0.06
   1  13  13    0.33    0.12
  -2 -13 -13    0.49    0.09
   2  13  13    0.46    0.12
  -3 -13 -13    0.15    0.06
   5 -14 -13    5.12    0.24
   4 -14 -13   -0.13    0.06
   3 -14 -13    0.16    0.06
   2 -14 -13    0.27    0.06
   1 -14 -13    0.15    0.06
   0 -14 -13   -0.03    0.05
   4 -15 -13    0.13    0.07
   3 -15 -13    0.03    0.09
   2 -15 -13    9.38    0.39
   1 -15 -13    0.73    0.09
   0 -15 -13    1.77    0.11
   6  15 -14    0.81    0.10
   5  15 -14    0.17    0.07
   4  15 -14    0.61    0.16
   3  15 -14    0.80    0.19
  -3  15 -14    1.49    0.21
  -4  15 -14   -0.02    0.11
   6  14 -14    0.01    0.06
   6  14 -14    0.07    0.06
   5  14 -14    2.25    0.15
   5  14 -14    2.23    0.16
   4  14 -14    8.93    0.38
   4  14 -14    8.24    0.36
   3  14 -14    1.73    0.20
   3  14 -14    1.63    0.19
  -3  14 -14    0.16    0.10
  -4  14 -14    1.54    0.16
  -4  14 -14    1.26    0.18
  -5  14 -14    4.03    0.22
   7  13 -14    7.57    0.32
   6  13 -14    0.05    0.07
   6  13 -14    0.07    0.06
   5  13 -14   -0.01    0.07
   5  13 -14   -0.04    0.08
   4  13 -14    0.71    0.15
   4  13 -14    1.10    0.14
   3  13 -14    0.15    0.09
   3  13 -14    0.22    0.11
   2  13 -14    0.16    0.11
   2  13 -14   -0.06    0.13
  -1  13 -14    0.05    0.11
  -2  13 -14    4.83    0.27
  -3  13 -14    0.26    0.13
  -3  13 -14    0.12    0.09
  -4  13 -14    0.13    0.08
  -4  13 -14    0.20    0.11
  -5  13 -14    0.21    0.08
  -6  13 -14    0.32    0.09
   8  12 -14    0.32    0.08
   8  12 -14    0.43    0.07
   7  12 -14   24.11    0.90
   7  12 -14   23.50    0.89
   6  12 -14    0.34    0.08
   6  12 -14    0.20    0.07
   5  12 -14    6.71    0.31
   5  12 -14    7.01    0.33
   4  12 -14   10.45    0.50
   3  12 -14    0.01    0.09
   3  12 -14    0.09    0.11
   2  12 -14    1.08    0.22
   2  12 -14    0.86    0.18
   1  12 -14    2.37    0.27
   0  12 -14    0.08    0.12
  -1  12 -14    0.17    0.10
  -2  12 -14    2.65    0.19
  -3  12 -14    0.10    0.13
  -3  12 -14    0.19    0.09
  -4  12 -14    0.45    0.12
  -4  12 -14    0.50    0.13
  -5  12 -14    2.32    0.17
  -6  12 -14    2.24    0.15
  -7  12 -14    0.06    0.08
   9  11 -14    0.10    0.04
   9  11 -14    0.01    0.05
   8  11 -14    3.60    0.18
   8  11 -14    3.69    0.19
   7  11 -14    7.31    0.33
   7  11 -14    7.19    0.31
   6  11 -14    1.12    0.14
   6  11 -14    1.17    0.12
   5  11 -14   -0.03    0.07
   5  11 -14   -0.07    0.09
   4  11 -14    0.66    0.16
   4  11 -14    0.72    0.14
   3  11 -14    0.92    0.16
   3  11 -14    1.31    0.20
   2  11 -14    4.65    0.30
   2  11 -14    4.39    0.26
   1  11 -14    0.38    0.14
   1  11 -14   -0.06    0.11
   0  11 -14    0.14    0.09
  -1  11 -14    2.84    0.20
  -2  11 -14    3.49    0.22
  -3  11 -14    1.17    0.15
  -3  11 -14    0.79    0.15
  -4  11 -14    0.03    0.08
  -5  11 -14    0.75    0.13
  -6  11 -14    0.75    0.13
  -7  11 -14    0.06    0.08
   8 -11  14    0.01    0.06
   9  10 -14    0.02    0.05
   9  10 -14   -0.01    0.06
   8  10 -14    1.23    0.13
   8  10 -14    1.21    0.11
   7  10 -14    3.20    0.20
   7  10 -14    3.20    0.18
   6  10 -14    1.74    0.15
   6  10 -14    1.57    0.17
   5  10 -14    0.80    0.14
   5  10 -14    0.30    0.11
   4  10 -14    0.76    0.14
   4  10 -14    0.74    0.13
   3  10 -14    0.00    0.11
   3  10 -14   -0.02    0.08
   2  10 -14   -0.05    0.13
   2  10 -14    0.09    0.10
   1  10 -14   13.51    0.56
   1  10 -14   13.46    0.56
   0  10 -14    1.49    0.16
   0  10 -14    1.59    0.21
  -2  10 -14    4.50    0.25
  -3  10 -14    2.86    0.19
  -3  10 -14    2.68    0.26
  -4  10 -14    0.19    0.08
  -4  10 -14    0.00    0.11
  -5  10 -14    4.40    0.24
  -6  10 -14    3.86    0.22
  -7  10 -14    0.30    0.08
   8 -10  14    0.05    0.06
  10   9 -14    0.08    0.05
  10   9 -14    0.10    0.06
   9   9 -14    0.05    0.06
   9   9 -14    0.00    0.05
   8   9 -14    0.07    0.07
   8   9 -14    0.18    0.06
   7   9 -14    0.35    0.11
   7   9 -14    0.54    0.11
   6   9 -14    0.02    0.07
   6   9 -14    0.16    0.09
   5   9 -14    1.97    0.16
   5   9 -14    1.84    0.19
   4   9 -14   12.52    0.53
   4   9 -14   12.31    0.51
   3   9 -14    0.38    0.09
   3   9 -14    0.50    0.13
   2   9 -14    0.09    0.14
   2   9 -14    0.12    0.09
   2   9 -14    0.02    0.12
   1   9 -14    0.74    0.12
   1   9 -14    0.85    0.16
   1   9 -14    0.94    0.19
   0   9 -14    0.09    0.11
   0   9 -14    0.01    0.08
  -1   9 -14   -0.20    0.13
  -1   9 -14    0.13    0.08
  -2   9 -14    0.98    0.14
  -3   9 -14    1.39    0.15
  -3   9 -14    1.59    0.24
  -4   9 -14    0.54    0.13
  -4   9 -14    0.66    0.13
  -5   9 -14    0.07    0.08
  -6   9 -14    1.08    0.14
  -7   9 -14   -0.03    0.08
   8  -9  14    2.30    0.14
  10   8 -14    0.67    0.14
  10   8 -14    0.70    0.08
   9   8 -14    0.45    0.11
   9   8 -14    0.52    0.10
   8   8 -14    9.00    0.38
   8   8 -14    8.59    0.39
   7   8 -14    0.83    0.13
   7   8 -14    1.08    0.16
   6   8 -14    0.43    0.11
   6   8 -14    0.39    0.09
   5   8 -14    0.91    0.14
   5   8 -14    0.79    0.17
   4   8 -14    1.75    0.20
   4   8 -14    1.83    0.16
   3   8 -14    0.94    0.14
   3   8 -14    1.08    0.19
   2   8 -14   -0.05    0.10
   2   8 -14    0.06    0.09
   1   8 -14    8.43    0.37
   1   8 -14    7.17    0.44
   1   8 -14    8.76    0.43
   0   8 -14    4.88    0.25
   0   8 -14    4.53    0.27
  -1   8 -14    1.14    0.13
  -2   8 -14    1.30    0.14
  -3   8 -14    0.51    0.16
  -3   8 -14    0.69    0.13
  -4   8 -14   -0.01    0.07
  -5   8 -14    9.04    0.40
  -6   8 -14    0.00    0.08
  -7   8 -14    0.03    0.18
  -8   8 -14    0.11    0.12
   8  -8  14   -0.06    0.06
  10   7 -14    1.38    0.13
  10   7 -14    1.45    0.11
   9   7 -14    0.53    0.10
   9   7 -14    0.45    0.12
   8   7 -14    1.44    0.14
   8   7 -14    1.42    0.17
   7   7 -14    6.04    0.32
   7   7 -14    6.33    0.30
   6   7 -14   -0.02    0.09
   6   7 -14    0.09    0.07
   5   7 -14    0.74    0.14
   5   7 -14    0.83    0.16
   4   7 -14   14.09    0.58
   4   7 -14   14.53    0.60
   3   7 -14    0.42    0.12
   2   7 -14    3.03    0.20
   2   7 -14    2.53    0.25
   2   7 -14    2.79    0.20
   1   7 -14    0.31    0.15
   1   7 -14    0.08    0.08
   1   7 -14   -0.02    0.08
   0   7 -14    0.46    0.11
   0   7 -14    0.59    0.13
  -1   7 -14    2.42    0.17
  -1   7 -14    2.61    0.21
  -2   7 -14   16.33    0.66
  -3   7 -14    0.51    0.12
  -4   7 -14    0.83    0.13
  -5   7 -14    5.57    0.28
  -6   7 -14    5.22    0.27
  -7   7 -14    0.17    0.09
  -8   7 -14    0.96    0.21
   8  -7  14    1.27    0.12
   9  -7  14    4.13    0.19
  10   6 -14    0.93    0.11
  10   6 -14    0.82    0.13
   9   6 -14   -0.03    0.06
   9   6 -14    0.06    0.08
   8   6 -14    6.81    0.33
   8   6 -14    6.70    0.31
   7   6 -14    1.18    0.14
   7   6 -14    0.87    0.16
   6   6 -14    0.62    0.16
   6   6 -14    0.63    0.13
   5   6 -14    7.78    0.35
   5   6 -14    7.77    0.37
   4   6 -14    9.48    0.41
   4   6 -14    9.14    0.49
   3   6 -14    0.14    0.11
   3   6 -14    0.13    0.08
   2   6 -14    0.05    0.08
   2   6 -14    0.02    0.08
   2   6 -14   -0.05    0.12
   1   6 -14   20.68    0.80
   1   6 -14   20.21    0.83
   1   6 -14   21.26    0.81
   0   6 -14    0.30    0.08
   0   6 -14    0.32    0.10
  -1   6 -14    0.11    0.08
  -1   6 -14    0.04    0.10
  -2   6 -14    0.86    0.19
  -2   6 -14    0.93    0.13
  -3   6 -14    0.95    0.22
  -3   6 -14    1.11    0.14
  -4   6 -14    0.39    0.12
  -5   6 -14    5.67    0.29
  -6   6 -14    0.67    0.14
  -7   6 -14   -0.01    0.09
   7  -6  14    0.02    0.07
   8  -6  14    2.64    0.16
   9  -6  14    1.42    0.11
  11   5 -14    0.41    0.08
  11   5 -14    0.54    0.11
  10   5 -14    1.45    0.13
  10   5 -14    1.34    0.14
   9   5 -14    0.12    0.08
   9   5 -14   -0.05    0.07
   8   5 -14    0.07    0.07
   8   5 -14    0.10    0.09
   7   5 -14    8.19    0.37
   7   5 -14    8.22    0.38
   6   5 -14    0.08    0.08
   6   5 -14    0.03    0.09
   5   5 -14    1.40    0.17
   5   5 -14    1.21    0.14
  -5  -5  14    1.57    0.19
   4   5 -14   10.64    0.44
   4   5 -14   10.07    0.45
   3   5 -14    1.64    0.19
   3   5 -14    1.33    0.15
   2   5 -14    0.78    0.13
   2   5 -14    0.73    0.19
   2   5 -14    0.47    0.09
   1   5 -14    0.85    0.12
   1   5 -14    0.73    0.16
   1   5 -14    0.77    0.16
   0   5 -14    0.07    0.09
   0   5 -14    0.08    0.06
  -1   5 -14    0.48    0.11
  -1   5 -14    0.41    0.11
  -2   5 -14   19.45    0.76
  -2   5 -14   19.32    0.76
  -3   5 -14    5.89    0.31
  -3   5 -14    6.24    0.30
  -4   5 -14   -0.10    0.07
  -4   5 -14    0.04    0.11
  -5   5 -14    0.35    0.09
  -6   5 -14    3.76    0.23
  -7   5 -14    0.20    0.11
   7  -5  14    0.20    0.08
   8  -5  14    0.89    0.12
   9  -5  14    0.13    0.06
  11   4 -14   -0.18    0.11
  11   4 -14    0.04    0.09
  10   4 -14   -0.09    0.08
  10   4 -14    0.02    0.07
   9   4 -14    0.75    0.17
   8   4 -14    9.19    0.41
   8   4 -14    9.54    0.42
   7   4 -14   10.84    0.47
   7   4 -14   10.32    0.45
   6   4 -14    1.77    0.19
   6   4 -14    2.17    0.17
  -5  -4  14    3.29    0.21
   4   4 -14    1.47    0.17
   4   4 -14    1.29    0.15
   3   4 -14    0.89    0.13
   3   4 -14    0.80    0.14
   2   4 -14    0.48    0.10
   2   4 -14    0.38    0.09
   2   4 -14    0.38    0.13
   1   4 -14    8.18    0.44
   1   4 -14    9.55    0.39
   1   4 -14    9.17    0.39
   0   4 -14    3.63    0.23
   0   4 -14    4.06    0.21
  -1   4 -14    0.01    0.06
  -1   4 -14    0.02    0.09
  -2   4 -14    2.69    0.21
  -2   4 -14    2.63    0.18
  -3   4 -14    6.75    0.34
  -3   4 -14    6.82    0.32
  -4   4 -14    1.68    0.19
  -4   4 -14    1.32    0.15
  -5   4 -14    9.69    0.44
  -5   4 -14   10.22    0.44
  -6   4 -14   -0.01    0.09
   6  -4  14    0.06    0.09
  -7   4 -14    2.80    0.25
   7  -4  14    2.68    0.18
   8  -4  14    6.23    0.28
   9  -4  14    1.01    0.10
  10   3 -14    0.71    0.14
  10   3 -14    0.78    0.15
   9   3 -14    0.83    0.16
   9   3 -14    1.31    0.15
   8   3 -14    2.24    0.18
   8   3 -14    2.35    0.20
   7   3 -14    2.94    0.21
   7   3 -14    2.73    0.19
   6   3 -14    0.94    0.14
   6   3 -14    0.95    0.15
  -6  -3  14    1.44    0.17
   5   3 -14    0.27    0.09
   5   3 -14    0.16    0.09
  -5  -3  14    0.11    0.08
   4   3 -14    5.81    0.28
   4   3 -14    6.18    0.31
   3   3 -14    0.98    0.15
   3   3 -14    1.29    0.18
   2   3 -14    2.86    0.18
   2   3 -14    3.00    0.18
   2   3 -14    2.56    0.23
   1   3 -14   13.72    0.55
   1   3 -14   13.85    0.55
   1   3 -14   13.50    0.58
   0   3 -14    0.24    0.09
   0   3 -14    0.07    0.18
   0   3 -14    0.24    0.08
  -1   3 -14    1.09    0.16
  -1   3 -14    1.07    0.12
  -2   3 -14    0.00    0.09
  -2   3 -14    0.03    0.07
  -3   3 -14    2.24    0.17
  -3   3 -14    2.07    0.20
  -4   3 -14    0.11    0.08
  -4   3 -14   -0.05    0.10
  -5   3 -14    2.94    0.23
  -5   3 -14    2.66    0.21
   5  -3  14    3.60    0.23
  -6   3 -14    1.10    0.18
  -6   3 -14    1.23    0.19
   6  -3  14    1.09    0.16
   7  -3  14    0.57    0.13
   8  -3  14    0.26    0.07
   9  -3  14    0.11    0.06
  10   2 -14    9.40    0.41
  10   2 -14    9.16    0.40
   9   2 -14    4.05    0.24
   9   2 -14    3.69    0.23
   8   2 -14   11.89    0.50
   8   2 -14   11.87    0.51
   7   2 -14   13.86    0.58
   7   2 -14   13.76    0.56
  -7  -2  14   13.85    0.57
   6   2 -14    0.73    0.15
   6   2 -14    0.59    0.11
  -6  -2  14    0.61    0.14
   5   2 -14    0.60    0.14
   5   2 -14    0.83    0.16
  -5  -2  14    0.89    0.13
   4   2 -14   20.39    0.81
   4   2 -14   21.05    0.80
   3   2 -14    2.96    0.22
   3   2 -14    3.14    0.20
   2   2 -14    0.12    0.07
   2   2 -14   -0.21    0.11
   2   2 -14   -0.05    0.06
   1   2 -14   16.36    0.63
   1   2 -14   15.25    0.64
   1   2 -14   15.54    0.62
   0   2 -14    0.80    0.12
   0   2 -14    0.87    0.14
   0   2 -14    0.48    0.16
  -1   2 -14    1.10    0.16
  -1   2 -14    1.30    0.14
  -2   2 -14   28.15    1.06
  -2   2 -14   27.33    1.05
  -3   2 -14    0.12    0.09
  -3   2 -14    0.09    0.09
   3  -2  14    0.12    0.16
  -4   2 -14    1.70    0.17
  -4   2 -14    1.75    0.18
   4  -2  14    1.71    0.23
  -5   2 -14    3.76    0.24
  -5   2 -14    3.66    0.24
   5  -2  14    4.10    0.25
  -6   2 -14    4.19    0.30
  -6   2 -14    5.20    0.27
   6  -2  14    5.47    0.28
  -7   2 -14    2.53    0.19
   7  -2  14    2.39    0.18
   8  -2  14    6.89    0.30
   9  -2  14    0.86    0.10
  10   1 -14    2.40    0.20
   9   1 -14    0.18    0.10
   9   1 -14    0.17    0.10
   8   1 -14    1.18    0.17
   8   1 -14    0.83    0.17
   7   1 -14    2.50    0.20
   7   1 -14    2.14    0.20
  -7  -1  14    2.67    0.19
   6   1 -14    0.19    0.13
   6   1 -14    0.26    0.09
  -6  -1  14    0.14    0.08
   5   1 -14    0.24    0.09
   5   1 -14    0.26    0.10
  -5  -1  14    0.21    0.08
   4   1 -14   17.53    0.72
   4   1 -14   19.51    0.74
   3   1 -14    0.96    0.17
   3   1 -14    0.92    0.14
   2   1 -14    1.09    0.18
   2   1 -14    1.24    0.15
   1   1 -14    1.16    0.20
   1   1 -14    1.23    0.13
   1   1 -14    1.38    0.16
   0   1 -14   -0.02    0.08
   0   1 -14    0.03    0.07
   0   1 -14    0.10    0.13
  -1   1 -14    0.10    0.07
  -1   1 -14    0.04    0.08
  -2   1 -14    2.31    0.17
  -2   1 -14    2.36    0.18
  -3   1 -14    2.12    0.18
  -3   1 -14    2.08    0.18
   3  -1  14    2.53    0.27
  -4   1 -14    0.22    0.09
  -4   1 -14    0.14    0.10
   4  -1  14    0.26    0.12
  -5   1 -14    5.36    0.28
  -5   1 -14    5.22    0.30
   5  -1  14    6.22    0.31
  -6   1 -14   26.72    1.00
   6  -1  14   26.20    1.02
  -7   1 -14    0.10    0.09
   7  -1  14   -0.01    0.08
   8  -1  14    0.07    0.06
   9  -1  14    0.01    0.06
  10   0 -14   -0.12    0.10
   9   0 -14    0.24    0.12
   9   0 -14   -0.08    0.10
   8   0 -14    0.23    0.11
   8   0 -14    0.35    0.10
  -8   0  14    0.34    0.12
   7   0 -14    1.48    0.18
   7   0 -14    1.59    0.19
  -7   0  14    1.64    0.16
   6   0 -14    0.32    0.10
   6   0 -14    0.33    0.10
  -6   0  14    0.21    0.08
   5   0 -14    0.76    0.15
   5   0 -14    0.44    0.09
  -5   0  14    0.74    0.11
   4   0 -14    0.83    0.15
   4   0 -14    0.75    0.16
  -4   0  14    0.61    0.11
   3   0 -14   -0.02    0.09
   3   0 -14    0.07    0.08
   2   0 -14    1.70    0.19
   2   0 -14    2.22    0.17
   1   0 -14    5.53    0.27
   1   0 -14    5.38    0.27
   1   0 -14    5.60    0.29
   0   0 -14    0.16    0.07
   0   0 -14    0.33    0.09
   0   0 -14    0.37    0.13
  -1   0 -14    1.07    0.24
  -1   0 -14    0.88    0.13
  -1   0 -14    1.07    0.15
  -2   0 -14   33.14    1.24
  -2   0 -14   31.98    1.22
  -3   0 -14    1.05    0.15
  -3   0 -14    1.23    0.16
   3   0  14    0.91    0.17
  -4   0 -14    0.12    0.11
  -4   0 -14    0.03    0.08
   4   0  14    0.31    0.13
  -5   0 -14    3.35    0.21
  -5   0 -14    3.30    0.25
   5   0  14    3.53    0.25
  -6   0 -14   15.06    0.59
   6   0  14   14.32    0.60
  -7   0 -14    0.39    0.08
   7   0  14    0.31    0.08
   8   0  14    1.44    0.13
  10  -1 -14    0.75    0.20
   9  -1 -14    1.32    0.17
  -9   1  14    0.94    0.20
   8  -1 -14    1.92    0.19
   8  -1 -14    1.95    0.23
  -8   1  14    2.17    0.19
   7  -1 -14    2.13    0.19
   7  -1 -14    2.51    0.22
  -7   1  14    2.31    0.17
   6  -1 -14    0.39    0.11
   6  -1 -14    0.36    0.11
  -6   1  14    0.21    0.08
   5  -1 -14    1.95    0.18
   5  -1 -14    1.90    0.18
  -5   1  14    1.81    0.14
   4  -1 -14   37.77    1.45
   4  -1 -14   38.95    1.45
  -4   1  14   39.71    1.45
   3  -1 -14    0.58    0.11
   3  -1 -14    0.50    0.10
   2  -1 -14    3.24    0.21
   2  -1 -14    2.94    0.21
   1  -1 -14  111.07    4.10
   1  -1 -14  114.98    4.11
   0  -1 -14    3.88    0.22
   0  -1 -14    3.69    0.26
  -1  -1 -14    0.51    0.09
  -1  -1 -14    0.90    0.22
  -1  -1 -14    0.65    0.12
  -2  -1 -14   81.69    2.99
  -3  -1 -14   11.17    0.47
  -3  -1 -14   11.35    0.46
   3   1  14   10.16    0.50
  -4  -1 -14   -0.02    0.08
   4   1  14    0.04    0.12
  -5  -1 -14    4.22    0.23
   5   1  14    4.27    0.26
  -7  -1 -14    0.08    0.07
   7   1  14    0.09    0.07
  -8  -1 -14    0.08    0.08
   8   1  14    0.15    0.07
  10  -2 -14    3.22    0.26
   9  -2 -14    0.02    0.10
  -9   2  14    0.14    0.10
   8  -2 -14    3.20    0.23
  -8   2  14    3.48    0.21
   7  -2 -14    6.59    0.43
   7  -2 -14    7.43    0.35
  -7   2  14    7.46    0.33
   6  -2 -14    1.02    0.21
   6  -2 -14    1.40    0.17
  -6   2  14    1.28    0.13
   5  -2 -14    0.22    0.09
   5  -2 -14    0.28    0.11
  -5   2  14    0.13    0.07
   4  -2 -14   -0.03    0.10
   4  -2 -14    0.19    0.09
  -4   2  14    0.18    0.07
   3  -2 -14    1.99    0.19
   3  -2 -14    1.75    0.17
  -3   2  14    2.03    0.14
   2  -2 -14    1.03    0.16
   2  -2 -14    1.16    0.16
   1  -2 -14   19.22    0.73
   1  -2 -14   17.91    0.73
   0  -2 -14    0.35    0.11
   0  -2 -14    0.38    0.09
  -1  -2 -14    1.38    0.21
  -1  -2 -14    1.58    0.15
  -2  -2 -14    0.25    0.08
  -2  -2 -14    0.38    0.14
  -3  -2 -14    6.16    0.29
   3   2  14    5.78    0.34
  -4  -2 -14    0.83    0.13
   4   2  14    0.77    0.20
  -5  -2 -14    0.53    0.13
   5   2  14    0.46    0.11
  -6  -2 -14    7.28    0.32
   6   2  14    7.07    0.34
  -7  -2 -14    1.40    0.12
   7   2  14    1.47    0.14
  -8  -2 -14    3.87    0.19
 -10   3  14    6.54    0.39
   9  -3 -14    1.87    0.20
  -9   3  14    1.35    0.17
   8  -3 -14    0.74    0.17
  -8   3  14    0.57    0.14
   7  -3 -14    0.59    0.12
  -7   3  14    0.83    0.13
   6  -3 -14    0.27    0.10
  -6   3  14    0.10    0.07
   5  -3 -14    0.38    0.10
   5  -3 -14    0.67    0.13
  -5   3  14    0.44    0.11
   4  -3 -14    0.14    0.09
   4  -3 -14   -0.16    0.10
  -4   3  14    0.02    0.06
   3  -3 -14    0.21    0.11
   3  -3 -14    0.23    0.10
  -3   3  14    0.16    0.07
   2  -3 -14   -0.03    0.09
   2  -3 -14    0.15    0.09
  -2   3  14    0.09    0.06
   1  -3 -14    4.57    0.26
   1  -3 -14    4.61    0.25
   0  -3 -14    0.88    0.18
   0  -3 -14    0.66    0.14
  -1  -3 -14    0.44    0.11
  -1  -3 -14    0.26    0.12
  -2  -3 -14    0.54    0.14
  -2  -3 -14    0.48    0.10
  -3  -3 -14    4.32    0.23
   3   3  14    4.02    0.29
  -4  -3 -14    0.73    0.13
   4   3  14    0.63    0.13
  -5  -3 -14   21.38    0.83
   5   3  14   21.27    0.84
  -6  -3 -14    2.71    0.17
   6   3  14    2.70    0.19
  -7  -3 -14    0.40    0.09
   7   3  14    0.34    0.08
  -8  -3 -14    1.28    0.11
   8   3  14    1.30    0.12
 -10   4  14   30.58    1.16
   9  -4 -14    0.51    0.12
  -9   4  14    0.38    0.09
   8  -4 -14    2.27    0.21
  -8   4  14    2.77    0.18
   7  -4 -14    0.70    0.16
  -7   4  14    0.41    0.10
   6  -4 -14    0.91    0.16
  -6   4  14    1.19    0.14
   5  -4 -14    0.78    0.15
  -5   4  14    1.32    0.13
   4  -4 -14    3.42    0.21
   4  -4 -14    2.98    0.24
  -4   4  14    3.21    0.19
   3  -4 -14    0.06    0.08
   3  -4 -14    0.36    0.11
  -3   4  14    0.24    0.07
   2  -4 -14    3.21    0.22
   2  -4 -14    3.82    0.23
  -2   4  14    3.85    0.21
   1  -4 -14   10.11    0.44
   1  -4 -14   10.30    0.45
  -1   4  14   10.49    0.44
   0  -4 -14    0.24    0.10
   0  -4 -14    0.16    0.08
   0   4  14    0.16    0.08
  -1  -4 -14    4.62    0.27
  -1  -4 -14    4.75    0.25
  -2  -4 -14   18.86    0.73
  -2  -4 -14   18.31    0.74
   2   4  14   18.17    0.77
   2   4  14   19.05    0.74
  -3  -4 -14    5.60    0.33
  -3  -4 -14    5.94    0.28
   3   4  14    5.68    0.34
  -4  -4 -14    0.32    0.08
   4   4  14    0.33    0.12
  -5  -4 -14    3.98    0.21
  -6  -4 -14    7.83    0.33
   6   4  14    7.85    0.35
  -7  -4 -14    0.11    0.05
   7   4  14    0.09    0.07
  -8  -4 -14    0.00    0.06
   8   4  14   -0.01    0.07
 -10   5  14    7.72    0.39
   9  -5 -14    2.09    0.23
  -9   5  14    2.14    0.17
   8  -5 -14   -0.02    0.11
  -8   5  14    0.03    0.07
   7  -5 -14    2.91    0.22
  -7   5  14    2.94    0.19
   6  -5 -14    0.05    0.09
  -6   5  14    0.15    0.08
   5  -5 -14    0.10    0.09
  -5   5  14    0.15    0.07
   4  -5 -14    0.30    0.09
   4  -5 -14    0.38    0.13
  -4   5  14    0.43    0.08
   3  -5 -14    0.03    0.11
  -3   5  14   -0.01    0.07
   2  -5 -14    0.41    0.12
   2  -5 -14    0.45    0.11
  -2   5  14    0.49    0.10
   1  -5 -14    0.45    0.10
  -1   5  14    0.20    0.09
   0  -5 -14    0.10    0.08
   0  -5 -14   -0.09    0.09
   0   5  14    0.11    0.09
  -1  -5 -14    0.12    0.10
  -1  -5 -14    0.17    0.08
   1   5  14    0.09    0.10
  -2  -5 -14    0.77    0.18
  -2  -5 -14    0.90    0.14
   2   5  14    0.95    0.25
  -3  -5 -14    1.80    0.20
  -3  -5 -14    1.76    0.15
   3   5  14    1.09    0.22
  -4  -5 -14   -0.08    0.06
   4   5  14    0.08    0.10
  -5  -5 -14    1.41    0.13
   5   5  14    1.42    0.17
  -6  -5 -14    0.04    0.05
   6   5  14    0.00    0.08
  -7  -5 -14    0.10    0.05
 -10   6  14   17.47    0.69
  -9   6  14   -0.01    0.08
   8  -6 -14    1.22    0.19
  -8   6  14    0.88    0.13
   7  -6 -14    5.17    0.27
  -7   6  14    4.23    0.24
   6  -6 -14    1.20    0.16
   5  -6 -14    0.08    0.08
  -5   6  14   -0.05    0.07
   4  -6 -14   30.10    1.16
  -4   6  14   30.61    1.16
   3  -6 -14    0.48    0.11
   3  -6 -14    0.40    0.13
  -3   6  14    0.49    0.12
   2  -6 -14    1.12    0.16
  -2   6  14    1.02    0.14
   1  -6 -14   23.69    0.93
   1  -6 -14   24.69    0.94
  -1   6  14   24.30    0.94
   0  -6 -14    2.84    0.19
   0  -6 -14    2.66    0.20
   0   6  14    2.40    0.20
  -1  -6 -14    0.26    0.10
  -1  -6 -14    0.05    0.08
  -2  -6 -14   17.78    0.71
  -2  -6 -14   18.18    0.71
   2   6  14   17.65    0.74
  -3  -6 -14    1.20    0.14
  -3  -6 -14    1.22    0.18
   3   6  14    0.95    0.21
  -4  -6 -14    0.14    0.07
  -5  -6 -14    7.80    0.34
   5   6  14    7.72    0.36
  -6  -6 -14    0.96    0.10
   6   6  14    0.86    0.13
  -7  -6 -14    0.79    0.08
   7   6  14    0.80    0.11
 -10   7  14    1.26    0.14
  -9   7  14   -0.02    0.07
   8  -7 -14    1.29    0.19
  -8   7  14    1.06    0.13
   7  -7 -14    1.60    0.18
  -7   7  14    1.59    0.14
   6  -7 -14    0.13    0.09
  -6   7  14    0.09    0.08
   5  -7 -14    0.16    0.09
  -5   7  14    0.18    0.11
   4  -7 -14    1.74    0.17
  -4   7  14    1.63    0.16
   3  -7 -14    0.14    0.09
  -3   7  14    0.19    0.08
   2  -7 -14   -0.06    0.08
   2  -7 -14    0.05    0.11
  -2   7  14    0.03    0.08
   1  -7 -14    7.19    0.35
   1  -7 -14    7.21    0.35
  -1   7  14    7.64    0.35
   0  -7 -14    0.40    0.10
   0  -7 -14    0.36    0.09
   0   7  14    0.29    0.11
  -1  -7 -14    2.51    0.20
  -1  -7 -14    2.31    0.18
  -2  -7 -14   48.53    1.79
  -2  -7 -14   46.41    1.78
   2   7  14   49.02    1.80
  -3  -7 -14    0.00    0.10
  -3  -7 -14    0.08    0.07
   3   7  14    0.44    0.13
  -4  -7 -14    0.14    0.11
  -4  -7 -14    0.10    0.06
   4   7  14   -0.05    0.10
  -5  -7 -14    2.55    0.15
   5   7  14    2.45    0.18
  -6  -7 -14    0.83    0.09
 -10   8  14    3.57    0.20
  -9   8  14   -0.01    0.07
   8  -8 -14    3.62    0.25
  -8   8  14    3.66    0.21
   7  -8 -14    1.60    0.18
  -7   8  14    1.43    0.14
   6  -8 -14   -0.01    0.08
  -6   8  14    0.05    0.07
   5  -8 -14    0.05    0.09
  -5   8  14    0.10    0.08
   4  -8 -14    2.42    0.19
  -4   8  14    2.55    0.18
   3  -8 -14   -0.03    0.08
   2  -8 -14    0.21    0.08
   2  -8 -14    0.12    0.12
   1  -8 -14   54.94    1.99
   1  -8 -14   54.43    2.01
  -1   8  14   52.79    2.00
   0  -8 -14    0.49    0.10
   0  -8 -14    0.36    0.10
  -1  -8 -14    1.60    0.16
  -1  -8 -14    1.59    0.17
   1   8  14    2.06    0.26
  -2  -8 -14    9.95    0.42
  -2  -8 -14    9.39    0.41
   2   8  14    9.58    0.44
  -3  -8 -14    0.09    0.08
  -3  -8 -14    0.06    0.06
   3   8  14   -0.10    0.10
  -4  -8 -14    0.22    0.06
  -4  -8 -14    0.69    0.16
   4   8  14    0.30    0.09
  -5  -8 -14    3.66    0.18
   5   8  14    4.14    0.21
  -6  -8 -14    0.80    0.08
   6   8  14    0.64    0.12
 -10   9  14    4.61    0.23
  -8   9  14    7.49    0.34
  -7   9  14   32.77    1.24
   6  -9 -14    0.00    0.08
  -6   9  14    0.01    0.07
   5  -9 -14    3.52    0.22
  -5   9  14    3.20    0.21
   4  -9 -14    2.27    0.18
  -4   9  14    2.15    0.18
   3  -9 -14   -0.03    0.08
  -3   9  14    0.14    0.10
   2  -9 -14    0.02    0.08
  -2   9  14    0.05    0.10
   1  -9 -14    7.28    0.34
   1  -9 -14    7.16    0.35
   0  -9 -14    4.42    0.25
   0  -9 -14    4.45    0.25
  -1  -9 -14   10.62    0.45
  -1  -9 -14   10.63    0.46
   1   9  14   11.84    0.74
  -2  -9 -14    1.16    0.14
  -2  -9 -14    1.11    0.14
   2   9  14    0.79    0.19
  -3  -9 -14    8.29    0.35
  -3  -9 -14    7.90    0.35
   3   9  14    8.30    0.38
  -4  -9 -14   -0.01    0.05
  -4  -9 -14   -0.03    0.09
   4   9  14   -0.05    0.08
  -5  -9 -14    0.02    0.05
   5   9  14   -0.05    0.08
 -10  10  14    0.24    0.08
  -9  10  14    1.25    0.13
  -8  10  14    0.45    0.11
   7 -10 -14    3.45    0.22
  -7  10  14    3.37    0.20
  -6  10  14    0.30    0.09
   5 -10 -14    0.00    0.08
  -5  10  14    0.02    0.08
   4 -10 -14    5.07    0.26
  -4  10  14    4.42    0.25
   3 -10 -14    0.44    0.10
  -3  10  14    0.22    0.10
   2 -10 -14    0.57    0.13
  -2  10  14    0.70    0.18
   1 -10 -14    1.49    0.15
   0 -10 -14    4.26    0.34
   0 -10 -14    3.88    0.23
  -1 -10 -14   -0.04    0.06
  -1 -10 -14   -0.13    0.08
   1  10  14    0.18    0.13
  -2 -10 -14    0.88    0.12
  -2 -10 -14    0.57    0.13
   2  10  14    0.74    0.19
  -3 -10 -14    1.89    0.15
  -3 -10 -14    1.95    0.14
   3  10  14    1.86    0.18
  -4 -10 -14    1.16    0.15
  -4 -10 -14    1.29    0.11
   4  10  14    1.30    0.15
  -5 -10 -14    1.43    0.10
  -9  11  14    0.41    0.08
  -8  11  14    3.24    0.19
   7 -11 -14    0.06    0.10
  -7  11  14    0.40    0.09
   6 -11 -14    0.14    0.08
  -6  11  14    0.28    0.08
   5 -11 -14    0.77    0.14
  -5  11  14    0.93    0.14
   4 -11 -14   11.18    0.50
  -4  11  14   10.93    0.47
   3 -11 -14   -0.02    0.07
  -3  11  14    0.01    0.12
   2 -11 -14    0.03    0.08
   0 -11 -14    1.50    0.14
  -1 -11 -14    0.13    0.10
  -1 -11 -14    0.19    0.07
  -2 -11 -14    7.76    0.33
  -2 -11 -14    7.46    0.32
   2  11  14    7.73    0.36
  -3 -11 -14    5.11    0.23
  -3 -11 -14    4.76    0.26
   3  11  14    4.91    0.26
  -4 -11 -14    0.00    0.06
  -8  12  14    0.60    0.12
  -7  12  14    5.32    0.26
   6 -12 -14    0.00    0.08
  -6  12  14    0.10    0.08
   5 -12 -14    0.30    0.08
  -5  12  14    0.41    0.13
   4 -12 -14    5.94    0.28
  -4  12  14    5.64    0.31
   3 -12 -14    0.27    0.07
   2 -12 -14    0.18    0.07
   1 -12 -14    1.40    0.13
   0 -12 -14    1.40    0.13
  -1 -12 -14    0.51    0.10
  -2 -12 -14    2.19    0.14
  -3 -12 -14    0.59    0.10
  -7  13  14    0.33    0.10
   6 -13 -14    0.41    0.13
  -6  13  14    0.30    0.11
   5 -13 -14    0.09    0.07
  -5  13  14    0.04    0.13
   4 -13 -14    0.56    0.11
   3 -13 -14   -0.04    0.06
   2 -13 -14    0.26    0.06
   1 -13 -14    2.65    0.16
   0 -13 -14   -0.01    0.05
  -1 -13 -14    0.21    0.06
  -2 -13 -14    2.15    0.12
   5 -14 -14    0.54    0.12
   4 -14 -14   -0.02    0.06
   3 -14 -14    0.27    0.06
   2 -14 -14    0.00    0.05
   1 -14 -14    2.98    0.15
   4 -15 -14    6.39    0.27
   3 -15 -14   -0.04    0.05
   2 -15 -14    0.04    0.05
   5  15 -15    0.12    0.08
   4  15 -15    1.47    0.17
   6  14 -15    4.10    0.20
   6  14 -15    4.87    0.21
   5  14 -15    1.32    0.14
   5  14 -15    1.10    0.15
   4  14 -15    0.90    0.14
   4  14 -15    1.24    0.15
   3  14 -15    0.20    0.11
  -2  14 -15    0.16    0.13
  -3  14 -15    3.17    0.21
  -4  14 -15    0.04    0.09
  -5  14 -15    0.04    0.10
   7  13 -15    3.99    0.18
   7  13 -15    3.98    0.19
   6  13 -15    6.82    0.30
   6  13 -15    6.69    0.28
   5  13 -15    0.17    0.08
   5  13 -15    0.14    0.07
   4  13 -15    1.51    0.14
   4  13 -15    1.30    0.16
   3  13 -15    2.44    0.21
   3  13 -15    2.37    0.18
   2  13 -15    1.26    0.18
  -1  13 -15    0.02    0.12
  -2  13 -15    0.06    0.09
  -3  13 -15    3.51    0.22
  -4  13 -15    0.03    0.08
  -5  13 -15    0.08    0.08
  -6  13 -15    1.71    0.17
   8  12 -15    1.21    0.09
   8  12 -15    1.20    0.10
   7  12 -15    1.05    0.11
   7  12 -15    1.13    0.10
   6  12 -15    0.67    0.12
   6  12 -15    0.45    0.10
   5  12 -15    0.33    0.09
   5  12 -15    0.09    0.07
   4  12 -15    0.46    0.09
   4  12 -15    0.51    0.11
   3  12 -15    0.27    0.16
   2  12 -15    0.62    0.11
   1  12 -15    0.47    0.13
   0  12 -15    9.67    0.44
  -1  12 -15    0.12    0.09
  -2  12 -15    0.03    0.09
  -3  12 -15    1.41    0.15
  -4  12 -15    1.32    0.14
  -5  12 -15    0.06    0.07
  -6  12 -15    0.51    0.12
   8  11 -15   -0.04    0.05
   8  11 -15    0.03    0.05
   7  11 -15    0.46    0.11
   7  11 -15    0.63    0.10
   6  11 -15    0.07    0.07
   6  11 -15    0.06    0.06
   5  11 -15    1.13    0.15
   5  11 -15    1.11    0.17
   4  11 -15    0.23    0.09
   4  11 -15    0.37    0.10
   3  11 -15    0.44    0.12
   3  11 -15    0.67    0.14
   2  11 -15    0.09    0.13
   2  11 -15    0.03    0.09
   1  11 -15    0.43    0.14
   1  11 -15    0.33    0.11
   0  11 -15   11.85    0.51
  -1  11 -15    0.78    0.14
  -2  11 -15    0.45    0.10
  -3  11 -15    0.08    0.08
  -4  11 -15    1.83    0.16
  -5  11 -15    0.05    0.07
  -6  11 -15    5.90    0.28
  -7  11 -15    0.77    0.13
   7 -11  15    0.83    0.12
   9  10 -15   -0.08    0.07
   8  10 -15    0.20    0.06
   8  10 -15    0.33    0.07
   7  10 -15    1.68    0.13
   7  10 -15    1.76    0.15
   6  10 -15    4.45    0.29
   5  10 -15   -0.02    0.09
   5  10 -15    0.07    0.07
   4  10 -15    0.05    0.08
   4  10 -15   -0.01    0.10
   3  10 -15    6.35    0.30
   3  10 -15    6.29    0.33
   2  10 -15   -0.02    0.13
   2  10 -15    0.11    0.09
   1  10 -15    2.11    0.20
   1  10 -15    2.22    0.20
   0  10 -15   63.76    2.40
   0  10 -15   66.43    2.39
  -1  10 -15    2.54    0.19
  -2  10 -15    0.04    0.08
  -3  10 -15   -0.03    0.08
  -4  10 -15    0.78    0.13
  -5  10 -15    0.20    0.08
  -6  10 -15    0.69    0.15
  -7  10 -15    1.12    0.13
   9   9 -15    0.24    0.05
   9   9 -15    0.05    0.06
   8   9 -15   -0.01    0.06
   8   9 -15    0.00    0.07
   7   9 -15    5.32    0.26
   7   9 -15    5.33    0.27
   6   9 -15    0.39    0.08
   6   9 -15    0.52    0.11
   5   9 -15    0.38    0.08
   5   9 -15    0.33    0.10
   4   9 -15    0.88    0.18
   4   9 -15    1.09    0.14
   3   9 -15    1.93    0.17
   3   9 -15    1.97    0.21
   2   9 -15   -0.09    0.12
   2   9 -15    0.11    0.14
   2   9 -15   -0.02    0.08
   1   9 -15    1.27    0.17
   1   9 -15    1.39    0.17
   0   9 -15    0.04    0.08
   0   9 -15    0.34    0.11
  -1   9 -15    1.12    0.21
  -2   9 -15    0.20    0.08
  -3   9 -15    1.46    0.15
  -4   9 -15   -0.05    0.07
  -5   9 -15    0.31    0.08
  -6   9 -15    1.20    0.14
  -7   9 -15    2.67    0.18
   7  -9  15    2.70    0.17
   8  -9  15    0.19    0.07
  10   8 -15   -0.01    0.05
  10   8 -15    0.12    0.06
   9   8 -15    1.69    0.14
   9   8 -15    1.77    0.12
   8   8 -15   -0.02    0.07
   8   8 -15    0.06    0.06
   7   8 -15    0.73    0.12
   7   8 -15    0.55    0.14
   6   8 -15   16.65    0.67
   6   8 -15   17.05    0.69
   5   8 -15    0.13    0.08
   5   8 -15    0.18    0.10
   4   8 -15    0.07    0.08
   4   8 -15    0.07    0.10
   3   8 -15    7.15    0.36
   2   8 -15    0.08    0.09
   2   8 -15    0.10    0.13
   2   8 -15   -0.06    0.10
   1   8 -15    0.53    0.11
   1   8 -15    0.43    0.10
   1   8 -15    0.51    0.17
   0   8 -15    0.07    0.07
   0   8 -15    0.26    0.10
  -1   8 -15    0.83    0.13
  -1   8 -15    0.89    0.14
  -2   8 -15    0.07    0.12
  -2   8 -15   -0.05    0.12
  -3   8 -15    1.44    0.15
  -4   8 -15    0.23    0.08
  -5   8 -15    0.99    0.14
  -6   8 -15    1.11    0.14
  -7   8 -15    2.35    0.17
   7  -8  15    2.06    0.16
   8  -8  15   -0.04    0.07
  10   7 -15    0.03    0.06
  10   7 -15    0.09    0.05
   9   7 -15    5.00    0.26
   9   7 -15    5.46    0.24
   8   7 -15    2.79    0.18
   8   7 -15    2.91    0.20
   7   7 -15    0.29    0.09
   7   7 -15    0.08    0.07
   6   7 -15    0.49    0.09
   6   7 -15    0.44    0.11
   5   7 -15    1.52    0.17
   5   7 -15    1.53    0.16
   4   7 -15    0.05    0.06
   4   7 -15    0.00    0.11
   3   7 -15    1.71    0.17
   3   7 -15    2.08    0.21
   2   7 -15    0.70    0.14
   2   7 -15    0.89    0.16
   2   7 -15    0.71    0.19
   1   7 -15    5.43    0.27
   1   7 -15    4.91    0.26
   1   7 -15    4.70    0.34
   0   7 -15   75.97    2.73
   0   7 -15   72.40    2.71
  -1   7 -15    4.43    0.25
  -1   7 -15    4.61    0.26
  -2   7 -15    0.10    0.11
  -2   7 -15    0.05    0.07
  -4   7 -15    0.74    0.13
  -5   7 -15    0.23    0.09
  -6   7 -15    1.32    0.15
  -7   7 -15    6.40    0.30
   7  -7  15    6.13    0.29
   8  -7  15    0.82    0.11
  10   6 -15    0.20    0.06
  10   6 -15    0.22    0.07
   9   6 -15    8.42    0.37
   9   6 -15    8.45    0.36
   8   6 -15    0.06    0.07
   8   6 -15    0.07    0.09
   7   6 -15    6.47    0.30
   7   6 -15    6.15    0.32
   6   6 -15    0.02    0.07
   6   6 -15    0.12    0.09
   5   6 -15    0.93    0.16
   5   6 -15    1.01    0.14
   4   6 -15    3.70    0.22
   4   6 -15    3.93    0.24
   3   6 -15   13.11    0.52
   3   6 -15   11.77    0.58
   2   6 -15   -0.01    0.11
   2   6 -15   -0.04    0.09
   2   6 -15   -0.03    0.09
   1   6 -15    0.26    0.15
   1   6 -15    0.58    0.14
   1   6 -15    0.31    0.09
   0   6 -15   20.75    0.80
   0   6 -15   20.52    0.81
  -1   6 -15    2.09    0.20
  -1   6 -15    1.69    0.16
  -2   6 -15    3.88    0.25
  -2   6 -15    4.45    0.24
  -3   6 -15    0.13    0.12
  -3   6 -15    0.08    0.08
  -4   6 -15    0.32    0.09
  -5   6 -15    0.03    0.08
  -6   6 -15    0.50    0.13
   6  -6  15    0.57    0.15
  -7   6 -15    6.88    0.33
   7  -6  15    6.59    0.30
  11   5 -15    0.76    0.16
  10   5 -15    0.07    0.07
  10   5 -15   -0.09    0.06
   9   5 -15    0.89    0.14
   9   5 -15    0.76    0.12
   8   5 -15    1.08    0.14
   8   5 -15    1.02    0.15
   7   5 -15    0.10    0.07
   7   5 -15    0.24    0.09
   6   5 -15   13.54    0.56
   6   5 -15   14.11    0.58
   5   5 -15    0.77    0.12
   5   5 -15    0.82    0.16
  -5  -5  15    1.14    0.18
   4   5 -15    0.06    0.08
   4   5 -15    0.13    0.10
   3   5 -15    5.06    0.28
   3   5 -15    5.22    0.26
   2   5 -15    0.46    0.12
   2   5 -15    0.48    0.10
   2   5 -15    0.51    0.10
   1   5 -15    0.30    0.14
   1   5 -15    0.28    0.09
   1   5 -15    0.28    0.09
   0   5 -15   12.84    0.53
   0   5 -15   12.62    0.52
  -1   5 -15    3.91    0.24
  -1   5 -15    4.32    0.23
  -2   5 -15    0.16    0.10
  -2   5 -15    0.20    0.08
  -3   5 -15    2.37    0.18
  -3   5 -15    1.87    0.20
  -4   5 -15    0.36    0.10
  -4   5 -15    0.22    0.11
  -5   5 -15    0.06    0.08
  -6   5 -15    0.22    0.09
   6  -5  15    0.07    0.09
  -7   5 -15    1.45    0.19
   7  -5  15    1.40    0.14
   8  -5  15    0.94    0.11
  11   4 -15    1.23    0.17
  10   4 -15    3.85    0.22
  10   4 -15    4.05    0.21
   9   4 -15    4.70    0.25
   9   4 -15    5.21    0.26
   8   4 -15    0.12    0.08
   8   4 -15    0.04    0.08
   7   4 -15    3.86    0.24
   7   4 -15    4.42    0.23
   6   4 -15   26.81    1.03
   6   4 -15   25.03    1.01
  -6  -4  15   27.88    1.10
   5   4 -15    0.81    0.15
   5   4 -15    0.95    0.15
  -5  -4  15    0.88    0.16
   4   4 -15    1.05    0.20
   3   4 -15    2.95    0.19
   3   4 -15    2.58    0.21
   2   4 -15    0.22    0.09
   2   4 -15    0.35    0.12
   2   4 -15    0.14    0.08
   1   4 -15    0.28    0.08
   1   4 -15    0.31    0.15
   1   4 -15    0.19    0.07
   0   4 -15    1.10    0.15
   0   4 -15    0.77    0.12
  -1   4 -15    3.23    0.21
  -1   4 -15    3.25    0.20
  -2   4 -15    2.91    0.20
  -2   4 -15    3.04    0.19
  -3   4 -15    7.43    0.35
  -3   4 -15    7.58    0.35
  -4   4 -15    3.41    0.22
  -4   4 -15    3.51    0.24
  -5   4 -15    0.28    0.09
  -5   4 -15    0.02    0.10
   5  -4  15    0.12    0.11
  -6   4 -15    0.20    0.10
   6  -4  15    0.12    0.09
   7  -4  15    7.31    0.33
   8  -4  15    0.03    0.06
  11   3 -15   -0.08    0.11
  10   3 -15    0.09    0.08
  10   3 -15    0.13    0.09
   9   3 -15    0.10    0.08
   8   3 -15    0.05    0.09
   8   3 -15   -0.07    0.08
   7   3 -15    0.13    0.08
   7   3 -15    0.08    0.09
   6   3 -15    2.84    0.21
   6   3 -15    3.03    0.19
  -6  -3  15    3.10    0.21
   5   3 -15   -0.06    0.09
   5   3 -15   -0.08    0.09
  -5  -3  15    0.01    0.08
   4   3 -15    0.05    0.08
   4   3 -15   -0.11    0.10
   3   3 -15   11.72    0.48
   3   3 -15   11.54    0.50
   2   3 -15    1.73    0.20
   2   3 -15    1.30    0.15
   2   3 -15    1.64    0.14
   1   3 -15    3.42    0.20
   1   3 -15    3.17    0.20
   1   3 -15    2.87    0.26
   0   3 -15    9.58    0.41
   0   3 -15    9.59    0.41
   0   3 -15    9.12    0.46
  -1   3 -15    0.13    0.08
  -1   3 -15    0.25    0.09
  -2   3 -15    0.78    0.15
  -2   3 -15    0.75    0.13
  -3   3 -15    4.93    0.27
  -3   3 -15    4.94    0.27
  -4   3 -15    0.90    0.16
  -4   3 -15    1.03    0.15
   4  -3  15    0.70    0.15
  -5   3 -15   -0.14    0.09
  -5   3 -15    0.07    0.10
   5  -3  15    0.13    0.11
  -6   3 -15    1.32    0.19
  -6   3 -15    1.40    0.18
   6  -3  15    1.07    0.16
   7  -3  15    0.36    0.09
   8  -3  15    0.10    0.07
  10   2 -15    3.73    0.23
  10   2 -15    4.07    0.23
   9   2 -15    9.72    0.42
   8   2 -15    2.00    0.18
   8   2 -15    1.93    0.18
   7   2 -15    1.46    0.17
   7   2 -15    1.64    0.17
  -7  -2  15    1.50    0.19
   6   2 -15   10.93    0.46
   6   2 -15   10.80    0.48
  -6  -2  15   11.19    0.47
   5   2 -15    0.21    0.10
  -5  -2  15    0.19    0.08
   4   2 -15    0.13    0.08
   4   2 -15    0.35    0.10
   3   2 -15    8.03    0.35
   3   2 -15    7.69    0.37
   2   2 -15    0.72    0.12
   2   2 -15    0.73    0.17
   1   2 -15    0.87    0.20
   1   2 -15    0.77    0.12
   1   2 -15    1.12    0.15
   0   2 -15   16.35    0.68
   0   2 -15   16.61    0.66
   0   2 -15   16.85    0.67
  -1   2 -15    2.68    0.19
  -1   2 -15    2.83    0.19
  -2   2 -15    0.71    0.16
  -2   2 -15    0.95    0.14
  -3   2 -15    9.27    0.40
  -3   2 -15    8.66    0.40
  -4   2 -15    9.17    0.41
  -4   2 -15    9.46    0.40
   4  -2  15    8.83    0.43
  -5   2 -15   -0.14    0.10
  -5   2 -15   -0.09    0.09
   5  -2  15    0.08    0.11
  -6   2 -15    0.13    0.09
  -6   2 -15    0.04    0.19
   6  -2  15    0.10    0.09
   7  -2  15    6.29    0.29
   8  -2  15    0.01    0.06
  10   1 -15    2.80    0.20
   9   1 -15    1.71    0.18
   8   1 -15    1.24    0.18
   8   1 -15    1.35    0.17
   7   1 -15   -0.06    0.09
   7   1 -15   -0.03    0.09
  -7  -1  15    0.15    0.10
   6   1 -15    0.36    0.10
   6   1 -15    0.34    0.10
  -6  -1  15    0.33    0.09
   5   1 -15    0.62    0.14
   5   1 -15    0.48    0.10
  -5  -1  15    0.48    0.12
   4   1 -15    2.60    0.19
   4   1 -15    2.57    0.20
   3   1 -15    1.02    0.16
   3   1 -15    0.64    0.14
   2   1 -15    1.07    0.17
   2   1 -15    0.87    0.15
   1   1 -15    0.18    0.08
   1   1 -15    0.02    0.11
   1   1 -15    0.02    0.06
   0   1 -15    6.01    0.28
   0   1 -15    5.34    0.33
   0   1 -15    5.74    0.28
  -1   1 -15    1.34    0.16
  -1   1 -15    1.54    0.15
  -2   1 -15   -0.11    0.08
  -2   1 -15    0.18    0.08
  -3   1 -15    0.13    0.09
  -3   1 -15    0.11    0.08
  -4   1 -15    2.18    0.19
  -4   1 -15    1.98    0.17
   4  -1  15    2.01    0.24
  -5   1 -15   -0.07    0.08
  -5   1 -15   -0.09    0.12
   5  -1  15    0.25    0.11
  -6   1 -15    6.65    0.30
   6  -1  15    6.25    0.31
  -7   1 -15    0.18    0.08
   7  -1  15    0.03    0.07
  10   0 -15    0.13    0.10
   9   0 -15    6.80    0.33
   8   0 -15    0.18    0.09
   8   0 -15    0.12    0.11
  -8   0  15    0.31    0.11
   7   0 -15    0.47    0.10
   7   0 -15    0.72    0.17
  -7   0  15    0.81    0.15
   6   0 -15    3.00    0.21
   6   0 -15    2.82    0.21
  -6   0  15    2.77    0.19
   5   0 -15    0.13    0.13
   5   0 -15   -0.03    0.08
  -5   0  15    0.04    0.07
   4   0 -15    0.74    0.15
   4   0 -15    0.74    0.15
  -4   0  15    0.87    0.12
   3   0 -15    0.09    0.09
   3   0 -15    0.38    0.09
   2   0 -15    4.26    0.24
   2   0 -15    4.41    0.25
   1   0 -15    1.24    0.15
   1   0 -15    1.28    0.18
   0   0 -15    2.95    0.18
   0   0 -15    2.83    0.23
   0   0 -15    2.77    0.19
  -1   0 -15    1.09    0.15
  -1   0 -15    1.01    0.14
  -1   0 -15    1.34    0.23
  -2   0 -15    0.06    0.07
  -2   0 -15    0.23    0.09
  -3   0 -15   34.59    1.29
  -3   0 -15   35.58    1.30
   3   0  15   32.81    1.31
  -4   0 -15    2.20    0.17
  -4   0 -15    1.91    0.19
   4   0  15    2.02    0.23
  -5   0 -15    0.18    0.08
   5   0  15    0.10    0.10
  -6   0 -15    2.10    0.16
   6   0  15    2.06    0.18
  -7   0 -15    0.22    0.07
   7   0  15    0.14    0.08
   8   0  15    0.82    0.11
  10  -1 -15    0.46    0.11
   9  -1 -15   11.64    0.48
  -9   1  15   10.66    0.48
   8  -1 -15    0.01    0.12
   8  -1 -15    0.19    0.09
  -8   1  15    0.45    0.11
   7  -1 -15    2.96    0.21
   7  -1 -15    2.82    0.23
  -7   1  15    3.36    0.20
   6  -1 -15   26.47    1.01
   6  -1 -15   27.16    1.02
  -6   1  15   25.63    1.01
   5  -1 -15    0.98    0.15
   5  -1 -15    1.33    0.16
  -5   1  15    1.08    0.13
   4  -1 -15    3.62    0.23
   4  -1 -15    3.65    0.23
  -4   1  15    4.04    0.21
   3  -1 -15   -0.03    0.09
   3  -1 -15    0.67    0.15
   2  -1 -15    4.29    0.24
   2  -1 -15    4.34    0.24
   1  -1 -15    2.94    0.22
   1  -1 -15    3.06    0.20
   0  -1 -15   67.72    2.45
   0  -1 -15   66.16    2.46
  -1  -1 -15    1.46    0.20
  -1  -1 -15    0.96    0.15
  -2  -1 -15    9.78    0.42
  -3  -1 -15   81.97    2.91
   3   1  15   76.90    2.92
  -4  -1 -15    1.27    0.15
   4   1  15    1.51    0.22
  -5  -1 -15    5.95    0.28
   5   1  15    5.82    0.31
  -6  -1 -15    2.17    0.15
   6   1  15    2.51    0.19
  -7  -1 -15    4.88    0.22
   7   1  15    4.61    0.24
   8   1  15    0.07    0.07
  10  -2 -15    0.77    0.13
   9  -2 -15   10.97    0.45
  -9   2  15    9.68    0.44
   8  -2 -15    2.89    0.21
  -8   2  15    2.26    0.19
   7  -2 -15    3.98    0.24
   7  -2 -15    3.25    0.26
   6  -2 -15    0.76    0.16
   6  -2 -15    0.89    0.20
  -6   2  15    0.75    0.13
   5  -2 -15    0.69    0.12
   5  -2 -15    0.67    0.14
  -5   2  15    0.43    0.09
   4  -2 -15    0.07    0.10
   4  -2 -15    0.15    0.08
  -4   2  15    0.11    0.07
   3  -2 -15   19.23    0.76
   3  -2 -15   19.69    0.76
  -3   2  15   19.27    0.76
   2  -2 -15    2.66    0.19
   2  -2 -15    2.41    0.19
   1  -2 -15    0.03    0.08
   1  -2 -15    0.16    0.10
   0  -2 -15    0.16    0.11
   0  -2 -15    0.22    0.08
  -1  -2 -15    2.01    0.17
  -2  -2 -15    0.30    0.14
  -2  -2 -15    0.31    0.09
  -3  -2 -15    3.64    0.22
   3   2  15    3.76    0.29
  -4  -2 -15    2.42    0.17
   4   2  15    2.30    0.23
  -5  -2 -15    0.55    0.12
  -6  -2 -15    6.74    0.30
   6   2  15    6.73    0.32
  -7  -2 -15    0.31    0.07
   7   2  15    0.46    0.12
   8   2  15    0.48    0.11
  10  -3 -15    0.42    0.20
  -9   3  15   32.00    1.21
   8  -3 -15    2.17    0.19
  -8   3  15    1.86    0.17
   7  -3 -15    2.19    0.20
  -7   3  15    2.53    0.18
   6  -3 -15   16.70    0.65
   6  -3 -15   14.47    0.65
  -6   3  15   16.65    0.64
   5  -3 -15    0.26    0.09
   5  -3 -15    0.17    0.19
  -5   3  15    0.21    0.07
   4  -3 -15    0.20    0.10
   4  -3 -15    0.05    0.08
  -4   3  15    0.08    0.07
   3  -3 -15   26.84    1.01
   3  -3 -15   25.80    1.00
  -3   3  15   26.15    1.01
   2  -3 -15    0.91    0.15
   2  -3 -15    0.70    0.16
  -2   3  15    0.99    0.13
   1  -3 -15    0.62    0.15
   1  -3 -15    0.72    0.15
   0  -3 -15    3.98    0.23
  -1  -3 -15    0.37    0.12
  -1  -3 -15    0.48    0.09
  -2  -3 -15    1.10    0.20
  -2  -3 -15    0.90    0.14
  -3  -3 -15    0.55    0.13
   3   3  15    0.45    0.16
  -4  -3 -15    1.18    0.13
   4   3  15    1.16    0.20
  -5  -3 -15    0.04    0.07
   5   3  15   -0.01    0.10
  -6  -3 -15    0.00    0.06
   6   3  15    0.02    0.08
  -7  -3 -15    1.12    0.10
   7   3  15    0.91    0.14
 -10   4  15    3.19    0.22
   9  -4 -15    0.49    0.11
  -9   4  15    0.70    0.14
   8  -4 -15    0.03    0.09
  -8   4  15    0.13    0.08
   7  -4 -15    1.66    0.18
  -7   4  15    1.28    0.15
   6  -4 -15    2.42    0.19
  -6   4  15    2.59    0.18
   5  -4 -15   -0.05    0.08
   5  -4 -15    0.06    0.13
  -5   4  15    0.01    0.07
   4  -4 -15    0.82    0.19
   4  -4 -15    0.77    0.14
  -4   4  15    0.75    0.12
   3  -4 -15   77.23    2.81
   3  -4 -15   73.50    2.80
  -3   4  15   79.34    2.82
   2  -4 -15    0.71    0.14
   2  -4 -15    0.68    0.16
  -2   4  15    0.63    0.12
   1  -4 -15    0.67    0.15
   1  -4 -15    0.61    0.15
  -1   4  15    0.81    0.13
   0  -4 -15    4.67    0.27
   0  -4 -15    4.57    0.25
   0   4  15    5.01    0.26
  -1  -4 -15    6.87    0.32
  -1  -4 -15    6.92    0.34
   1   4  15    6.86    0.33
  -2  -4 -15    1.39    0.20
  -2  -4 -15    1.67    0.15
  -3  -4 -15    3.82    0.37
  -3  -4 -15    3.61    0.22
   3   4  15    4.07    0.29
  -4  -4 -15    1.78    0.15
   4   4  15    1.89    0.20
  -5  -4 -15    2.49    0.16
   5   4  15    2.57    0.20
  -6  -4 -15    1.42    0.11
   6   4  15    1.27    0.15
   7   4  15    0.45    0.12
 -10   5  15    2.68    0.19
   9  -5 -15    1.09    0.18
  -9   5  15    1.15    0.14
   8  -5 -15    1.87    0.19
  -8   5  15    1.77    0.15
   7  -5 -15    2.68    0.20
  -7   5  15    2.54    0.18
   6  -5 -15    0.13    0.08
  -6   5  15    0.18    0.09
   5  -5 -15    1.08    0.15
  -5   5  15    1.12    0.13
   4  -5 -15    0.12    0.08
   4  -5 -15    0.37    0.12
  -4   5  15    0.12    0.07
   3  -5 -15    6.88    0.33
   3  -5 -15    6.91    0.34
  -3   5  15    7.36    0.33
   2  -5 -15    0.15    0.09
   2  -5 -15    0.11    0.08
  -2   5  15    0.16    0.08
   1  -5 -15    0.09    0.08
   1  -5 -15    0.03    0.09
  -1   5  15    0.17    0.09
   0  -5 -15   23.50    0.92
   0  -5 -15   24.40    0.94
   0   5  15   24.28    0.93
  -1  -5 -15    5.63    0.28
  -1  -5 -15    5.72    0.30
   1   5  15    6.04    0.35
  -2  -5 -15    0.22    0.08
  -2  -5 -15    0.24    0.11
  -3  -5 -15    0.97    0.13
  -3  -5 -15    0.70    0.13
   3   5  15    0.87    0.22
  -4  -5 -15    0.50    0.12
   4   5  15    0.46    0.12
  -5  -5 -15    0.01    0.06
   5   5  15    0.15    0.09
  -6  -5 -15    0.05    0.05
   6   5  15    0.18    0.08
  -7  -5 -15    0.12    0.05
   7   5  15    0.03    0.08
 -10   6  15    9.75    0.41
   9  -6 -15    9.96    0.43
  -9   6  15    9.57    0.42
   8  -6 -15    0.16    0.11
  -8   6  15    0.06    0.08
   7  -6 -15    3.48    0.22
  -7   6  15    3.24    0.21
   6  -6 -15  107.11    3.74
  -6   6  15   97.80    3.74
   5  -6 -15    0.03    0.08
   4  -6 -15    0.92    0.14
  -4   6  15    0.80    0.13
   3  -6 -15   26.35    1.04
   3  -6 -15   26.55    1.03
  -3   6  15   28.46    1.05
   2  -6 -15    3.24    0.22
   2  -6 -15    3.38    0.22
  -2   6  15    3.75    0.21
   1  -6 -15    0.03    0.09
   1  -6 -15    0.08    0.09
  -1   6  15   -0.06    0.09
   0  -6 -15    0.16    0.09
   0  -6 -15    0.02    0.08
  -1  -6 -15    2.00    0.19
  -1  -6 -15    2.16    0.17
  -2  -6 -15    2.05    0.19
  -2  -6 -15    2.43    0.17
   2   6  15    1.57    0.38
  -3  -6 -15    8.22    0.46
  -3  -6 -15    9.85    0.39
  -4  -6 -15    0.20    0.07
   4   6  15    0.14    0.11
  -5  -6 -15    1.19    0.11
   5   6  15    0.96    0.16
  -6  -6 -15    4.76    0.21
   6   6  15    4.84    0.23
 -10   7  15   -0.03    0.08
  -9   7  15    4.86    0.25
   8  -7 -15    0.05    0.10
  -8   7  15    0.02    0.07
   7  -7 -15    0.06    0.09
  -7   7  15    0.23    0.08
   6  -7 -15    7.21    0.33
  -6   7  15    6.60    0.32
   5  -7 -15    0.26    0.09
  -5   7  15    0.08    0.07
   4  -7 -15    1.68    0.17
  -4   7  15    1.66    0.15
   3  -7 -15    0.16    0.08
   3  -7 -15    0.05    0.13
   2  -7 -15    0.28    0.11
   2  -7 -15    0.01    0.08
   1  -7 -15    0.91    0.15
   1  -7 -15    0.84    0.17
  -1   7  15    0.83    0.16
   0  -7 -15   23.55    0.89
   0  -7 -15   23.07    0.88
   0   7  15   22.05    0.89
  -1  -7 -15    6.01    0.29
  -1  -7 -15    5.94    0.30
  -2  -7 -15    0.63    0.13
  -2  -7 -15    0.54    0.14
   2   7  15    0.21    0.19
  -3  -7 -15    0.98    0.16
  -3  -7 -15    0.79    0.12
   3   7  15    0.94    0.20
  -4  -7 -15    3.12    0.17
   4   7  15    2.74    0.21
  -5  -7 -15    0.21    0.05
   5   7  15    0.26    0.09
  -6  -7 -15    0.05    0.04
   6   7  15    0.06    0.10
 -10   8  15    0.27    0.09
   8  -8 -15    0.52    0.12
  -8   8  15    0.42    0.11
   7  -8 -15    0.94    0.20
  -7   8  15    0.64    0.12
   6  -8 -15    6.06    0.29
  -6   8  15    5.55    0.28
   5  -8 -15   -0.02    0.07
  -5   8  15   -0.12    0.08
   4  -8 -15    0.19    0.09
  -4   8  15    0.06    0.08
   3  -8 -15   20.34    0.78
  -3   8  15   19.16    0.78
   2  -8 -15    1.54    0.21
   2  -8 -15    1.53    0.16
  -2   8  15    1.39    0.16
   1  -8 -15    0.24    0.10
   1  -8 -15    0.22    0.09
  -1   8  15    0.21    0.11
   0  -8 -15    0.43    0.10
  -1  -8 -15    1.62    0.16
  -1  -8 -15    1.51    0.16
  -2  -8 -15    0.48    0.10
  -2  -8 -15    0.30    0.09
   2   8  15    0.14    0.14
  -3  -8 -15    1.93    0.14
  -3  -8 -15    1.63    0.16
   3   8  15    1.62    0.20
  -4  -8 -15    6.36    0.27
   4   8  15    5.94    0.29
  -5  -8 -15   -0.09    0.05
   5   8  15    0.12    0.09
 -10   9  15   -0.03    0.08
  -9   9  15    0.51    0.11
   8  -9 -15    0.85    0.19
  -8   9  15    0.68    0.12
   7  -9 -15    0.08    0.08
  -7   9  15    0.04    0.07
   6  -9 -15    2.36    0.18
  -6   9  15    2.28    0.17
   5  -9 -15    1.11    0.15
  -5   9  15    0.97    0.13
   4  -9 -15    0.36    0.09
  -4   9  15    0.24    0.09
   3  -9 -15   97.97    3.43
  -3   9  15   89.82    3.42
   2  -9 -15    1.43    0.16
  -2   9  15    1.28    0.19
   1  -9 -15   -0.01    0.08
   1  -9 -15    0.14    0.10
   0  -9 -15   63.17    2.32
   0  -9 -15   62.36    2.31
  -1  -9 -15   11.13    0.47
  -1  -9 -15   11.11    0.46
  -2  -9 -15    0.13    0.07
  -2  -9 -15    0.06    0.08
  -3  -9 -15    2.45    0.17
  -3  -9 -15    2.54    0.15
   3   9  15    2.49    0.21
  -4  -9 -15    3.79    0.18
   4   9  15    3.88    0.23
  -5  -9 -15    0.24    0.05
  -9  10  15    0.17    0.07
  -8  10  15    0.10    0.06
   7 -10 -15    0.01    0.08
  -7  10  15   -0.02    0.08
   6 -10 -15    0.35    0.08
  -6  10  15    0.29    0.08
  -5  10  15    0.07    0.08
   4 -10 -15    0.11    0.08
  -4  10  15    0.14    0.09
   3 -10 -15   18.94    0.71
  -3  10  15   16.78    0.71
   2 -10 -15    0.79    0.13
   1 -10 -15    0.38    0.09
   0 -10 -15    3.42    0.21
   0 -10 -15    3.46    0.22
  -1 -10 -15    1.75    0.15
  -1 -10 -15    1.84    0.15
  -2 -10 -15    0.23    0.07
  -2 -10 -15    0.28    0.07
  -3 -10 -15    2.81    0.16
  -4 -10 -15    0.03    0.05
  -9  11  15    1.23    0.19
  -8  11  15    0.50    0.11
   7 -11 -15    0.00    0.09
  -7  11  15    0.03    0.07
   6 -11 -15   14.51    0.56
  -6  11  15   13.80    0.60
   5 -11 -15    0.25    0.07
  -5  11  15    0.39    0.10
   4 -11 -15    0.04    0.07
  -4  11  15    0.03    0.10
   3 -11 -15   16.75    0.66
   2 -11 -15    0.01    0.06
   1 -11 -15    0.00    0.06
   0 -11 -15    3.07    0.18
  -1 -11 -15    1.97    0.17
  -1 -11 -15    2.09    0.14
  -2 -11 -15    2.03    0.14
  -2 -11 -15    2.35    0.16
  -3 -11 -15    1.37    0.13
  -3 -11 -15    1.16    0.11
  -8  12  15    0.38    0.13
  -7  12  15    1.27    0.14
   6 -12 -15    3.57    0.20
  -6  12  15    3.63    0.21
   5 -12 -15    0.12    0.07
  -5  12  15    0.07    0.10
   4 -12 -15    0.63    0.11
  -4  12  15    0.52    0.18
   3 -12 -15    4.71    0.23
   2 -12 -15    0.04    0.06
   1 -12 -15    1.05    0.11
   0 -12 -15    4.12    0.21
  -1 -12 -15    0.17    0.05
  -2 -12 -15    0.62    0.09
   6 -13 -15    2.96    0.19
   5 -13 -15    0.11    0.06
   4 -13 -15   -0.01    0.06
   3 -13 -15    1.23    0.12
   2 -13 -15   -0.04    0.05
   1 -13 -15    0.02    0.05
   0 -13 -15    2.42    0.14
  -1 -13 -15    0.18    0.05
   5 -14 -15    0.06    0.08
   4 -14 -15    0.84    0.10
   3 -14 -15    8.06    0.37
   2 -14 -15    0.39    0.10
   1 -14 -15    0.33    0.08
   6  14 -16    0.17    0.07
   6  14 -16    0.26    0.08
   5  14 -16    4.40    0.21
   5  14 -16    4.10    0.20
   4  14 -16    3.45    0.20
  -2  14 -16   -0.12    0.14
  -3  14 -16    0.32    0.12
  -4  14 -16    9.56    0.47
   7  13 -16    1.48    0.11
   7  13 -16    1.45    0.10
   6  13 -16    1.35    0.14
   6  13 -16    1.13    0.12
   5  13 -16    0.91    0.11
   5  13 -16    0.82    0.13
   4  13 -16   -0.06    0.09
   4  13 -16    0.17    0.08
   3  13 -16   -0.02    0.11
   3  13 -16   -0.07    0.08
   2  13 -16    3.52    0.23
  -2  13 -16    0.69    0.16
  -3  13 -16    1.12    0.16
  -4  13 -16    7.55    0.34
  -5  13 -16    2.14    0.16
   7  12 -16    0.16    0.06
   7  12 -16    0.09    0.05
   6  12 -16    3.74    0.20
   6  12 -16    3.63    0.18
   5  12 -16   20.86    0.79
   5  12 -16   20.76    0.81
   4  12 -16    1.06    0.13
   4  12 -16    0.89    0.15
   3  12 -16    2.40    0.21
   3  12 -16    2.50    0.18
   2  12 -16    0.03    0.09
   1  12 -16    0.49    0.13
   0  12 -16    0.72    0.14
  -1  12 -16    3.96    0.24
  -2  12 -16    1.03    0.15
  -3  12 -16    0.05    0.08
  -4  12 -16   -0.05    0.07
  -5  12 -16    0.61    0.12
  -6  12 -16   -0.04    0.11
   8  11 -16    4.79    0.21
   8  11 -16    4.75    0.22
   7  11 -16    0.04    0.06
   7  11 -16   -0.13    0.05
   6  11 -16    0.14    0.07
   6  11 -16    0.15    0.06
   5  11 -16    6.75    0.30
   5  11 -16    6.87    0.32
   4  11 -16   -0.01    0.11
   3  11 -16    0.12    0.11
   3  11 -16    0.07    0.08
   2  11 -16    0.04    0.09
   2  11 -16    0.21    0.14
   1  11 -16    1.67    0.23
   1  11 -16    2.18    0.19
   0  11 -16    1.34    0.18
  -1  11 -16    0.08    0.09
  -2  11 -16    0.59    0.13
  -3  11 -16    0.07    0.08
  -4  11 -16    0.31    0.09
  -5  11 -16    1.20    0.13
  -6  11 -16    0.11    0.08
   6 -11  16    0.20    0.11
   9  10 -16    0.35    0.07
   9  10 -16    0.33    0.09
   8  10 -16    4.60    0.22
   8  10 -16    4.32    0.20
   7  10 -16    0.18    0.07
   7  10 -16    0.11    0.06
   6  10 -16    1.95    0.17
   6  10 -16    2.23    0.15
   5  10 -16    3.08    0.19
   5  10 -16    3.42    0.22
   4  10 -16    0.17    0.10
   4  10 -16    0.00    0.07
   3  10 -16    0.03    0.08
   3  10 -16    0.05    0.11
   2  10 -16    1.23    0.23
   2  10 -16    1.50    0.16
   1  10 -16    3.01    0.21
   1  10 -16    2.70    0.23
   0  10 -16    0.20    0.09
   0  10 -16    0.21    0.10
  -1  10 -16   10.71    0.46
  -2  10 -16    0.26    0.09
  -3  10 -16    0.28    0.08
  -4  10 -16    2.71    0.19
  -5  10 -16    0.16    0.08
  -6  10 -16    0.33    0.09
   7 -10  16    0.13    0.10
   9   9 -16    0.09    0.05
   9   9 -16    0.02    0.05
   8   9 -16    5.82    0.26
   8   9 -16    6.19    0.28
   7   9 -16    0.00    0.07
   7   9 -16   -0.06    0.06
   6   9 -16    5.10    0.25
   6   9 -16    4.86    0.29
   5   9 -16    2.08    0.16
   5   9 -16    2.10    0.19
   4   9 -16    0.26    0.09
   4   9 -16    0.13    0.10
   3   9 -16    0.74    0.19
   3   9 -16    0.85    0.14
   2   9 -16    0.24    0.14
   2   9 -16    0.25    0.08
   2   9 -16    0.06    0.11
   1   9 -16    2.44    0.19
   1   9 -16    2.35    0.20
   0   9 -16    0.08    0.09
   0   9 -16    0.07    0.10
  -1   9 -16    0.17    0.12
  -1   9 -16    0.07    0.08
  -2   9 -16    0.16    0.09
  -3   9 -16    0.13    0.08
  -4   9 -16    0.39    0.10
  -5   9 -16   -0.02    0.08
  -6   9 -16    0.04    0.07
   6  -9  16    0.07    0.09
  -7   9 -16    3.21    0.22
   7  -9  16    3.08    0.18
  10   8 -16    0.11    0.06
  10   8 -16    0.04    0.05
   9   8 -16    4.81    0.23
   9   8 -16    4.93    0.22
   8   8 -16    2.26    0.14
   8   8 -16    2.00    0.16
   7   8 -16    0.25    0.08
   7   8 -16    0.21    0.07
   6   8 -16    0.94    0.16
   6   8 -16    1.01    0.13
   5   8 -16    0.82    0.16
   5   8 -16    0.71    0.13
   4   8 -16    0.15    0.08
   4   8 -16    0.10    0.11
   3   8 -16    0.33    0.12
   3   8 -16    0.11    0.07
   2   8 -16    6.19    0.31
   2   8 -16    6.70    0.33
   2   8 -16    6.67    0.35
   1   8 -16    0.13    0.09
   1   8 -16    0.21    0.09
   0   8 -16    0.15    0.10
   0   8 -16    0.18    0.08
  -1   8 -16   14.62    0.62
  -1   8 -16   15.47    0.61
  -2   8 -16    4.90    0.27
  -2   8 -16    5.23    0.29
  -3   8 -16    0.05    0.08
  -4   8 -16    9.91    0.44
  -5   8 -16    1.57    0.14
  -6   8 -16    0.02    0.09
   6  -8  16   -0.02    0.09
  -7   8 -16    2.21    0.19
   7  -8  16    2.17    0.16
  10   7 -16    0.34    0.08
  10   7 -16    0.28    0.07
   9   7 -16    0.74    0.10
   9   7 -16    0.87    0.12
   8   7 -16    2.68    0.17
   8   7 -16    2.59    0.18
   7   7 -16    0.26    0.09
   7   7 -16    0.19    0.07
   6   7 -16    0.08    0.09
   6   7 -16   -0.06    0.07
   5   7 -16   34.68    1.32
   5   7 -16   34.94    1.31
   4   7 -16    0.01    0.10
   4   7 -16    0.10    0.07
   3   7 -16    0.60    0.14
   3   7 -16    0.48    0.12
   2   7 -16    4.48    0.25
   2   7 -16    5.32    0.27
   2   7 -16    4.53    0.30
   1   7 -16    0.73    0.14
   1   7 -16    0.71    0.14
   1   7 -16    0.81    0.17
   0   7 -16    1.90    0.18
   0   7 -16    2.28    0.17
  -1   7 -16   10.73    0.46
  -1   7 -16   10.59    0.46
  -2   7 -16    4.58    0.26
  -2   7 -16    5.52    0.28
  -3   7 -16    2.97    0.21
  -3   7 -16    3.34    0.25
  -4   7 -16    0.89    0.14
  -5   7 -16    0.11    0.07
  -6   7 -16    0.12    0.09
   6  -7  16    0.21    0.10
  -7   7 -16    0.13    0.11
   7  -7  16   -0.01    0.08
  10   6 -16    0.12    0.06
  10   6 -16    0.00    0.06
   9   6 -16    0.76    0.12
   9   6 -16    0.74    0.11
   8   6 -16   -0.14    0.06
   8   6 -16    0.00    0.08
   7   6 -16    0.09    0.07
   7   6 -16    0.12    0.08
   6   6 -16    0.02    0.09
   6   6 -16   -0.06    0.07
   5   6 -16   18.39    0.75
   5   6 -16   18.96    0.74
   4   6 -16    0.40    0.11
   4   6 -16    0.19    0.08
   3   6 -16   -0.10    0.08
   3   6 -16    0.00    0.10
   2   6 -16   10.92    0.46
   2   6 -16   10.52    0.48
   2   6 -16   10.62    0.45
   1   6 -16    4.69    0.26
   1   6 -16    5.41    0.27
   0   6 -16    0.72    0.11
   0   6 -16    0.88    0.14
  -1   6 -16   19.55    0.77
  -1   6 -16   19.01    0.76
  -2   6 -16    1.23    0.16
  -2   6 -16    0.70    0.12
  -3   6 -16    0.53    0.12
  -3   6 -16    0.90    0.13
  -4   6 -16    0.29    0.13
  -4   6 -16   -0.04    0.07
  -5   6 -16    0.13    0.08
   5  -6  16    0.15    0.11
  -6   6 -16    0.01    0.09
   6  -6  16    0.09    0.09
  -7   6 -16    0.03    0.12
   7  -6  16    0.17    0.08
   8  -6  16    0.36    0.08
  10   5 -16    0.05    0.07
  10   5 -16   -0.03    0.06
   9   5 -16    3.13    0.18
   9   5 -16    3.20    0.20
   8   5 -16   20.74    0.80
   8   5 -16   19.52    0.78
   7   5 -16    0.14    0.07
   7   5 -16    0.22    0.09
   6   5 -16    0.14    0.08
   6   5 -16    0.12    0.09
   5   5 -16   44.70    1.73
   5   5 -16   48.63    1.72
  -5  -5  16   45.38    1.72
   4   5 -16   -0.07    0.09
   4   5 -16   -0.09    0.08
   3   5 -16    0.28    0.10
   3   5 -16    0.01    0.08
   2   5 -16    0.60    0.13
   2   5 -16    0.98    0.14
   1   5 -16   -0.01    0.14
   1   5 -16   -0.07    0.08
   1   5 -16    0.10    0.08
   0   5 -16    0.11    0.08
   0   5 -16    0.22    0.09
  -1   5 -16    0.05    0.09
  -1   5 -16    0.17    0.09
  -2   5 -16    0.73    0.13
  -2   5 -16    0.52    0.11
  -3   5 -16    1.48    0.15
  -3   5 -16    1.67    0.19
  -4   5 -16    1.88    0.17
  -4   5 -16    1.91    0.21
   4  -5  16    1.90    0.24
  -5   5 -16    0.36    0.10
  -6   5 -16    1.35    0.17
   6  -5  16    1.20    0.16
   7  -5  16   14.07    0.55
   8  -5  16    2.26    0.15
  11   4 -16    0.72    0.16
  10   4 -16    0.57    0.12
  10   4 -16    0.36    0.08
   9   4 -16    0.62    0.14
   9   4 -16    0.49    0.08
   8   4 -16   10.50    0.45
   8   4 -16   10.36    0.44
   7   4 -16    0.39    0.09
   7   4 -16    0.28    0.09
   6   4 -16    0.11    0.09
   6   4 -16    0.20    0.07
  -6  -4  16    0.24    0.13
   5   4 -16   -0.05    0.09
   5   4 -16    0.15    0.09
  -5  -4  16   -0.01    0.09
   4   4 -16   -0.07    0.07
   4   4 -16    0.00    0.09
   3   4 -16    0.17    0.12
   3   4 -16    0.05    0.08
   2   4 -16    2.85    0.24
   2   4 -16    3.12    0.20
   1   4 -16    3.28    0.20
   1   4 -16    2.78    0.26
   0   4 -16    0.13    0.08
   0   4 -16    0.41    0.08
  -1   4 -16    0.97    0.15
  -1   4 -16    1.04    0.14
  -2   4 -16    0.59    0.14
  -2   4 -16    0.58    0.11
  -3   4 -16   -0.03    0.08
  -3   4 -16    0.21    0.09
  -4   4 -16    4.74    0.26
  -4   4 -16    4.61    0.25
   4  -4  16    4.45    0.30
  -5   4 -16    0.07    0.09
  -5   4 -16   -0.04    0.11
  -6   4 -16   -0.12    0.10
   6  -4  16    0.09    0.09
   7  -4  16    3.39    0.19
   8  -4  16    2.36    0.16
  11   3 -16    2.26    0.19
  10   3 -16    0.23    0.08
  10   3 -16    0.26    0.08
   9   3 -16    6.55    0.29
   9   3 -16    6.19    0.31
   8   3 -16   18.78    0.75
   8   3 -16   18.76    0.73
   7   3 -16    0.04    0.09
   7   3 -16    0.01    0.08
   6   3 -16    0.45    0.10
   6   3 -16    0.53    0.09
  -6  -3  16    0.62    0.16
   5   3 -16    0.24    0.10
   5   3 -16    0.10    0.08
  -5  -3  16    0.35    0.09
   4   3 -16    0.43    0.08
   4   3 -16    0.46    0.10
   3   3 -16    0.22    0.13
   2   3 -16    3.95    0.25
   2   3 -16    3.71    0.21
   1   3 -16    0.11    0.08
   1   3 -16    0.12    0.13
   1   3 -16    0.01    0.07
   0   3 -16    0.84    0.13
   0   3 -16    0.51    0.17
   0   3 -16    0.57    0.10
  -1   3 -16    1.09    0.14
  -1   3 -16    0.81    0.14
  -2   3 -16    4.38    0.24
  -2   3 -16    4.29    0.25
  -3   3 -16    0.04    0.13
  -3   3 -16   -0.05    0.09
  -4   3 -16    1.86    0.18
  -4   3 -16    1.86    0.18
   4  -3  16    1.80    0.24
  -5   3 -16    1.89    0.18
  -6   3 -16    0.28    0.10
   6  -3  16    0.41    0.10
   7  -3  16    0.12    0.08
   8  -3  16    2.78    0.16
  10   2 -16    1.67    0.16
  10   2 -16    1.33    0.17
   9   2 -16    0.15    0.09
   9   2 -16    0.28    0.09
   8   2 -16    0.58    0.14
   8   2 -16    0.67    0.15
   7   2 -16    0.90    0.15
   7   2 -16    0.79    0.15
  -7  -2  16    0.72    0.19
   6   2 -16    0.84    0.15
   6   2 -16    0.91    0.16
  -6  -2  16    1.13    0.15
   5   2 -16   14.19    0.60
   5   2 -16   14.18    0.59
  -5  -2  16   15.51    0.59
   4   2 -16    0.08    0.08
   4   2 -16    0.08    0.09
   3   2 -16    2.16    0.19
   3   2 -16    2.19    0.19
   2   2 -16   48.43    1.79
   2   2 -16   47.88    1.78
   1   2 -16    2.95    0.19
   1   2 -16    2.56    0.23
   1   2 -16    2.65    0.18
   0   2 -16    1.07    0.19
   0   2 -16    1.11    0.14
   0   2 -16    0.79    0.15
  -1   2 -16    3.19    0.21
  -1   2 -16    3.23    0.21
  -2   2 -16    7.63    0.35
  -2   2 -16    7.40    0.35
  -3   2 -16    3.05    0.20
  -4   2 -16    3.17    0.20
  -4   2 -16    2.90    0.21
   4  -2  16    3.30    0.27
  -5   2 -16    0.19    0.11
  -5   2 -16    0.43    0.12
  -6   2 -16    1.11    0.15
   6  -2  16    1.21    0.16
   7  -2  16    8.67    0.37
   8  -2  16    1.59    0.14
  10   1 -16    0.17    0.09
   9   1 -16    0.31    0.10
   9   1 -16    0.28    0.10
   8   1 -16    0.79    0.15
   8   1 -16    0.70    0.11
  -8  -1  16    0.69    0.18
   7   1 -16    0.07    0.09
   7   1 -16    0.06    0.09
  -7  -1  16    0.02    0.10
   6   1 -16    0.07    0.09
   6   1 -16    0.15    0.09
  -6  -1  16    0.15    0.09
   5   1 -16    0.72    0.14
   5   1 -16    0.38    0.10
  -5  -1  16    0.24    0.08
   4   1 -16    0.14    0.09
   4   1 -16    0.27    0.09
  -4  -1  16    0.14    0.08
   3   1 -16    1.52    0.17
   3   1 -16    1.51    0.15
   2   1 -16    6.56    0.32
   2   1 -16    6.26    0.30
   1   1 -16   -0.03    0.08
   1   1 -16    0.19    0.11
   0   1 -16    0.03    0.08
   0   1 -16    0.17    0.13
   0   1 -16    0.05    0.07
  -1   1 -16    9.34    0.40
  -1   1 -16    9.37    0.42
  -2   1 -16   10.62    0.45
  -2   1 -16   10.82    0.47
  -3   1 -16    1.83    0.17
  -3   1 -16    1.38    0.20
  -4   1 -16    0.86    0.15
  -4   1 -16    0.37    0.11
   4  -1  16    0.41    0.14
   5  -1  16   -0.03    0.17
  -6   1 -16    0.62    0.12
   6  -1  16    0.43    0.10
  -7   1 -16    8.08    0.35
   7  -1  16    8.67    0.36
   8  -1  16    0.08    0.09
  10   0 -16    0.08    0.09
   9   0 -16    4.44    0.30
   9   0 -16    4.21    0.26
   8   0 -16    5.33    0.28
   8   0 -16    5.13    0.28
  -8   0  16    5.05    0.28
   7   0 -16    0.88    0.17
   7   0 -16    0.88    0.15
  -7   0  16    0.62    0.14
   6   0 -16    0.89    0.17
   6   0 -16    1.35    0.17
  -6   0  16    1.50    0.15
   5   0 -16   49.53    1.89
   5   0 -16   48.78    1.88
  -5   0  16   54.11    1.89
   4   0 -16   -0.06    0.12
   4   0 -16    0.00    0.08
  -4   0  16   -0.01    0.07
   3   0 -16    0.47    0.09
   3   0 -16    0.61    0.12
   2   0 -16   26.66    1.01
   2   0 -16   26.30    1.02
   1   0 -16    1.77    0.16
   1   0 -16    1.84    0.19
   0   0 -16    0.05    0.08
   0   0 -16    0.13    0.12
  -1   0 -16    0.67    0.14
  -1   0 -16    0.84    0.21
  -1   0 -16    0.65    0.13
  -2   0 -16   12.05    0.49
  -2   0 -16   10.79    0.48
  -3   0 -16    0.62    0.15
  -3   0 -16    0.66    0.10
  -4   0 -16    2.91    0.19
   4   0  16    3.08    0.26
   5   0  16    0.13    0.10
  -6   0 -16    1.03    0.12
   6   0  16    1.02    0.15
  -7   0 -16    1.01    0.13
   7   0  16    1.33    0.14
  10  -1 -16    1.21    0.17
   9  -1 -16    0.25    0.09
  -9   1  16    0.19    0.12
   8  -1 -16    5.15    0.27
   8  -1 -16    4.71    0.28
  -8   1  16    4.57    0.26
   7  -1 -16    0.54    0.11
   7  -1 -16    0.46    0.10
  -7   1  16    0.52    0.13
   6  -1 -16    4.39    0.25
   6  -1 -16    3.95    0.25
  -6   1  16    4.75    0.24
   5  -1 -16    0.04    0.09
   5  -1 -16    0.06    0.08
  -5   1  16    0.05    0.07
   4  -1 -16    1.21    0.16
   4  -1 -16    1.29    0.17
  -4   1  16    1.32    0.14
   3  -1 -16    1.36    0.27
   3  -1 -16    0.92    0.15
   2  -1 -16   13.36    0.55
   2  -1 -16   13.42    0.56
   1  -1 -16    0.35    0.12
   1  -1 -16    0.37    0.11
   0  -1 -16    0.27    0.11
   0  -1 -16    0.34    0.08
  -1  -1 -16    0.42    0.13
  -1  -1 -16    0.26    0.08
  -2  -1 -16    3.68    0.21
  -3  -1 -16    1.65    0.15
  -4  -1 -16    7.92    0.35
   4   1  16    7.93    0.39
  -5  -1 -16    9.95    0.41
   5   1  16    9.93    0.44
  -6  -1 -16    0.96    0.12
   6   1  16    0.55    0.15
  -7  -1 -16    4.57    0.21
   7   1  16    4.66    0.23
  10  -2 -16    0.56    0.11
   9  -2 -16   -0.19    0.09
  -9   2  16    0.21    0.10
   8  -2 -16   15.66    0.63
  -8   2  16   15.10    0.62
   7  -2 -16    0.60    0.12
   7  -2 -16    0.39    0.10
  -7   2  16    0.60    0.13
   6  -2 -16    2.19    0.19
   6  -2 -16    2.18    0.21
  -6   2  16    2.41    0.17
   5  -2 -16    0.35    0.10
   5  -2 -16    0.52    0.10
  -5   2  16    0.50    0.09
   4  -2 -16    0.95    0.17
   4  -2 -16    0.76    0.14
  -4   2  16    0.95    0.12
   3  -2 -16    1.00    0.15
  -3   2  16    0.95    0.13
   2  -2 -16    0.14    0.11
   2  -2 -16    0.10    0.08
   1  -2 -16   -0.06    0.08
   1  -2 -16    0.10    0.09
   0  -2 -16    0.11    0.09
   0  -2 -16    0.18    0.10
  -1  -2 -16   35.25    1.30
  -1  -2 -16   33.91    1.31
  -2  -2 -16    4.59    0.25
  -3  -2 -16    0.69    0.13
  -4  -2 -16    0.12    0.07
   4   2  16    0.32    0.14
  -5  -2 -16    6.71    0.29
   5   2  16    6.30    0.32
  -6  -2 -16    0.27    0.06
   6   2  16    0.40    0.10
  -7  -2 -16    0.42    0.09
   7   2  16    0.35    0.09
  10  -3 -16    1.49    0.19
   9  -3 -16    4.65    0.26
  -9   3  16    4.70    0.25
   8  -3 -16   -0.13    0.08
  -8   3  16   -0.04    0.08
   7  -3 -16    3.55    0.22
  -7   3  16    2.87    0.20
   6  -3 -16    1.27    0.16
   6  -3 -16    0.87    0.21
   5  -3 -16   15.11    0.62
   5  -3 -16   15.29    0.62
  -5   3  16   15.37    0.62
   4  -3 -16    0.53    0.11
   4  -3 -16    0.73    0.14
  -4   3  16    0.68    0.12
   3  -3 -16    0.08    0.07
   3  -3 -16    0.13    0.09
  -3   3  16    0.10    0.08
   2  -3 -16    8.99    0.41
   2  -3 -16    8.98    0.40
  -2   3  16    9.47    0.41
   1  -3 -16    1.40    0.17
   1  -3 -16    1.26    0.15
  -1   3  16    1.33    0.15
   0  -3 -16    0.89    0.14
   0  -3 -16    0.74    0.17
  -1  -3 -16   29.93    1.15
  -1  -3 -16   30.74    1.16
  -2  -3 -16    5.15    0.26
  -2  -3 -16    4.55    0.30
  -3  -3 -16   -0.11    0.06
  -4  -3 -16    0.31    0.07
   4   3  16    0.53    0.13
  -5  -3 -16    2.50    0.16
   5   3  16    2.36    0.20
  -6  -3 -16    0.40    0.09
   6   3  16    0.25    0.09
  -7  -3 -16    0.72    0.09
   7   3  16    0.80    0.15
 -10   4  16    1.41    0.19
   9  -4 -16    1.18    0.17
  -9   4  16    1.30    0.15
   8  -4 -16    4.33    0.24
  -8   4  16    3.66    0.22
   7  -4 -16   -0.07    0.09
  -7   4  16    0.19    0.08
   6  -4 -16    2.78    0.20
  -6   4  16    3.03    0.19
   5  -4 -16    9.42    0.44
   5  -4 -16   10.56    0.44
  -5   4  16    9.90    0.43
   4  -4 -16   -0.18    0.07
   4  -4 -16   -0.19    0.19
  -4   4  16   -0.03    0.08
   3  -4 -16    0.03    0.09
   3  -4 -16   -0.06    0.08
  -3   4  16    0.02    0.07
   2  -4 -16    0.55    0.11
   2  -4 -16    0.51    0.10
  -2   4  16    0.71    0.13
   1  -4 -16    0.37    0.10
   1  -4 -16    0.49    0.09
   0  -4 -16    0.59    0.16
   0  -4 -16    0.19    0.08
   0   4  16    0.46    0.10
  -1  -4 -16    7.63    0.36
  -1  -4 -16    7.87    0.35
   1   4  16    7.34    0.36
  -2  -4 -16   -0.08    0.07
  -2  -4 -16    0.03    0.11
  -3  -4 -16    0.29    0.08
  -4  -4 -16    1.04    0.12
   4   4  16    1.15    0.21
  -5  -4 -16    2.08    0.14
   5   4  16    2.33    0.20
  -6  -4 -16    0.00    0.05
   6   4  16    0.20    0.09
 -10   5  16    0.61    0.15
   9  -5 -16    0.03    0.10
  -9   5  16    0.09    0.08
   8  -5 -16    4.28    0.30
  -8   5  16    3.68    0.21
   7  -5 -16    0.44    0.10
  -7   5  16    0.23    0.09
   6  -5 -16    3.39    0.21
  -6   5  16    3.03    0.20
   5  -5 -16   13.29    0.54
  -5   5  16   12.64    0.54
   4  -5 -16    1.35    0.20
   4  -5 -16    1.04    0.14
  -4   5  16    1.25    0.14
   3  -5 -16    0.07    0.08
   3  -5 -16    0.23    0.10
  -3   5  16    0.25    0.08
   2  -5 -16    0.18    0.10
   2  -5 -16    0.12    0.09
  -2   5  16    0.18    0.08
   1  -5 -16    2.61    0.19
   1  -5 -16    2.61    0.19
  -1   5  16    2.85    0.20
   0  -5 -16   -0.22    0.08
   0  -5 -16    0.04    0.08
   0   5  16    0.07    0.10
  -1  -5 -16    2.24    0.19
  -1  -5 -16    2.19    0.17
   1   5  16    1.97    0.21
  -2  -5 -16    3.42    0.20
  -2  -5 -16    3.27    0.22
  -3  -5 -16    0.13    0.07
  -3  -5 -16    0.02    0.13
  -4  -5 -16    0.13    0.06
   4   5  16    0.13    0.13
  -5  -5 -16    0.12    0.05
   5   5  16    0.01    0.10
  -6  -5 -16   -0.06    0.04
   6   5  16    0.04    0.10
 -10   6  16    0.41    0.10
   9  -6 -16    0.07    0.11
  -9   6  16    0.10    0.08
   8  -6 -16    0.32    0.10
  -8   6  16    0.27    0.08
   7  -6 -16    0.02    0.09
  -7   6  16   -0.02    0.07
   6  -6 -16   -0.01    0.08
  -6   6  16    0.01    0.08
   5  -6 -16    0.90    0.14
  -5   6  16    1.25    0.14
   4  -6 -16   -0.07    0.08
  -4   6  16    0.03    0.08
   3  -6 -16    0.42    0.10
   3  -6 -16    0.31    0.11
  -3   6  16    0.51    0.13
   2  -6 -16   27.85    1.05
   2  -6 -16   27.76    1.03
  -2   6  16   25.80    1.04
   1  -6 -16   -0.04    0.08
   1  -6 -16    0.05    0.08
  -1   6  16    0.06    0.09
   0  -6 -16    2.03    0.18
   0  -6 -16    2.58    0.19
   0   6  16    2.45    0.21
  -1  -6 -16   17.33    0.68
  -1  -6 -16   16.37    0.67
  -2  -6 -16   10.40    0.43
  -2  -6 -16    9.94    0.45
  -3  -6 -16    0.76    0.12
  -3  -6 -16    0.85    0.18
  -4  -6 -16    0.62    0.10
   4   6  16    0.86    0.19
  -5  -6 -16    6.47    0.27
   5   6  16    6.37    0.31
  -6  -6 -16    0.30    0.07
 -10   7  16    0.84    0.14
  -9   7  16    1.56    0.16
   8  -7 -16    0.51    0.11
  -8   7  16    0.53    0.11
   7  -7 -16    0.48    0.10
  -7   7  16    0.57    0.12
   6  -7 -16    0.90    0.14
  -6   7  16    1.15    0.14
   5  -7 -16    1.22    0.14
  -5   7  16    0.92    0.14
   4  -7 -16   -0.03    0.08
  -4   7  16    0.08    0.07
   3  -7 -16    0.05    0.08
   3  -7 -16   -0.05    0.12
  -3   7  16   -0.10    0.08
   2  -7 -16   22.03    0.84
   2  -7 -16   21.88    0.85
  -2   7  16   21.36    0.85
   1  -7 -16    1.27    0.15
   1  -7 -16    1.03    0.15
  -1   7  16    0.85    0.17
   0  -7 -16    2.19    0.17
   0  -7 -16    1.60    0.17
  -1  -7 -16    8.82    0.39
  -1  -7 -16    9.28    0.40
  -2  -7 -16    2.01    0.17
  -2  -7 -16    2.14    0.17
  -3  -7 -16    0.11    0.10
  -3  -7 -16    0.06    0.06
  -4  -7 -16    2.80    0.15
  -5  -7 -16    1.01    0.09
 -10   8  16    0.35    0.11
   8  -8 -16    5.22    0.27
  -8   8  16    5.01    0.25
   7  -8 -16    1.00    0.14
  -7   8  16    0.89    0.13
   6  -8 -16    0.92    0.13
  -6   8  16    1.03    0.13
   5  -8 -16   -0.03    0.07
  -5   8  16    0.09    0.08
   4  -8 -16    1.16    0.14
  -4   8  16    0.65    0.15
   3  -8 -16    1.03    0.14
  -3   8  16    0.72    0.15
   2  -8 -16    8.60    0.38
   2  -8 -16    8.58    0.38
  -2   8  16    8.00    0.38
   1  -8 -16    1.58    0.16
   1  -8 -16    1.58    0.17
  -1   8  16    1.60    0.21
   0  -8 -16    0.09    0.08
   0  -8 -16    0.08    0.08
  -1  -8 -16   60.33    2.23
  -1  -8 -16   60.53    2.22
  -2  -8 -16    0.13    0.08
  -2  -8 -16    0.05    0.06
  -3  -8 -16    0.74    0.14
  -3  -8 -16    0.67    0.10
  -4  -8 -16    0.04    0.05
  -5  -8 -16    4.26    0.18
  -9   9  16    0.61    0.12
   8  -9 -16   30.43    1.13
  -8   9  16   29.73    1.13
   7  -9 -16    0.74    0.13
  -7   9  16    0.91    0.12
   6  -9 -16    0.19    0.08
  -6   9  16    0.18    0.08
   5  -9 -16    3.31    0.23
  -5   9  16    3.47    0.20
   4  -9 -16    1.77    0.15
  -4   9  16    1.32    0.16
   3  -9 -16    1.31    0.15
  -3   9  16    1.28    0.17
   2  -9 -16    8.72    0.37
  -2   9  16    8.08    0.39
   1  -9 -16    0.29    0.11
   1  -9 -16    0.09    0.08
   0  -9 -16    4.40    0.24
   0  -9 -16    4.51    0.23
  -1  -9 -16    0.14    0.07
  -1  -9 -16    0.19    0.08
  -2  -9 -16    0.45    0.11
  -2  -9 -16    0.56    0.10
  -3  -9 -16    1.03    0.14
  -3  -9 -16    1.11    0.10
  -4  -9 -16    6.00    0.25
  -9  10  16    0.55    0.12
  -8  10  16    0.61    0.11
   7 -10 -16    0.40    0.09
  -7  10  16    0.21    0.07
   6 -10 -16    1.37    0.14
  -6  10  16    1.68    0.15
   5 -10 -16    0.03    0.07
  -5  10  16   -0.09    0.08
   4 -10 -16    0.79    0.13
  -4  10  16    0.73    0.15
   3 -10 -16    0.30    0.08
  -3  10  16    0.06    0.11
   2 -10 -16    0.63    0.12
   1 -10 -16    0.05    0.06
   0 -10 -16    0.30    0.10
   0 -10 -16    0.27    0.07
  -1 -10 -16    2.09    0.16
  -1 -10 -16    2.34    0.15
  -2 -10 -16    0.52    0.10
  -2 -10 -16    0.72    0.10
  -3 -10 -16    0.07    0.06
  -3 -10 -16    0.04    0.08
  -8  11  16   13.61    0.54
  -7  11  16    0.17    0.08
   6 -11 -16    0.04    0.07
  -6  11  16    0.02    0.08
   5 -11 -16    0.12    0.07
  -5  11  16    0.31    0.10
   4 -11 -16    0.14    0.06
  -4  11  16    0.19    0.12
   3 -11 -16    0.00    0.06
   2 -11 -16    7.03    0.31
   1 -11 -16    0.05    0.06
   0 -11 -16    1.22    0.11
  -1 -11 -16    2.80    0.15
  -2 -11 -16    1.62    0.16
  -2 -11 -16    2.00    0.13
  -6  12  16    0.04    0.10
   5 -12 -16    9.03    0.37
  -5  12  16    8.82    0.40
   4 -12 -16   -0.05    0.05
   3 -12 -16    0.07    0.06
   2 -12 -16   16.54    0.64
   1 -12 -16    0.61    0.09
   0 -12 -16    0.35    0.06
  -1 -12 -16    0.05    0.05
   5 -13 -16    2.74    0.16
   4 -13 -16    0.00    0.05
   3 -13 -16    0.07    0.05
   2 -13 -16    9.32    0.37
   0 -13 -16    0.34    0.07
   4 -14 -16    0.89    0.10
   3 -14 -16    0.09    0.05
   5  14 -17    0.07    0.09
   5  14 -17   -0.07    0.09
   4  14 -17    0.45    0.12
   4  14 -17    0.25    0.11
   6  13 -17    0.08    0.06
   6  13 -17    0.19    0.06
   5  13 -17    0.24    0.08
   5  13 -17    0.18    0.07
   4  13 -17   13.94    0.56
   4  13 -17   14.07    0.54
   3  13 -17   -0.08    0.08
   3  13 -17    0.16    0.15
  -1  13 -17    0.19    0.13
  -2  13 -17    2.19    0.19
  -3  13 -17    0.92    0.16
  -4  13 -17    0.19    0.10
   7  12 -17    3.81    0.17
   7  12 -17    3.56    0.18
   6  12 -17    0.09    0.07
   6  12 -17    0.04    0.05
   5  12 -17    0.87    0.11
   5  12 -17    1.13    0.14
   4  12 -17   -0.09    0.06
   4  12 -17    0.20    0.09
   3  12 -17    0.16    0.11
   3  12 -17    0.09    0.08
   2  12 -17    0.21    0.09
   1  12 -17    1.02    0.18
   0  12 -17    0.46    0.14
  -1  12 -17   -0.01    0.10
  -2  12 -17    1.89    0.18
  -3  12 -17    0.56    0.14
  -4  12 -17   -0.17    0.08
  -5  12 -17    3.80    0.21
   8  11 -17    8.06    0.33
   8  11 -17    8.42    0.33
   7  11 -17    4.75    0.21
   7  11 -17    4.57    0.22
   6  11 -17    1.10    0.11
   6  11 -17    1.13    0.13
   5  11 -17    2.41    0.18
   5  11 -17    2.39    0.15
   4  11 -17    7.02    0.32
   4  11 -17    7.26    0.34
   3  11 -17    1.04    0.19
   3  11 -17    1.13    0.14
   2  11 -17    0.13    0.13
   1  11 -17    0.04    0.10
   1  11 -17    0.06    0.12
   0  11 -17    0.16    0.11
  -1  11 -17    0.69    0.15
  -2  11 -17    0.15    0.09
  -3  11 -17    0.24    0.09
  -4  11 -17    0.08    0.08
  -5  11 -17    0.50    0.09
   8  10 -17    1.98    0.13
   8  10 -17    1.62    0.11
   7  10 -17    0.86    0.10
   7  10 -17    0.95    0.12
   6  10 -17   -0.03    0.06
   6  10 -17    0.00    0.07
   5  10 -17    1.46    0.16
   5  10 -17    1.47    0.13
   4  10 -17    3.99    0.22
   3  10 -17    0.06    0.08
   3  10 -17   -0.09    0.11
   2  10 -17   -0.32    0.14
   2  10 -17    0.10    0.08
   1  10 -17    0.65    0.15
   1  10 -17    0.63    0.13
   0  10 -17    0.10    0.10
   0  10 -17   -0.07    0.09
  -1  10 -17    1.50    0.17
  -2  10 -17    1.52    0.16
  -3  10 -17    1.79    0.16
  -4  10 -17    0.07    0.07
  -5  10 -17    0.62    0.12
  -6  10 -17    1.49    0.15
   9   9 -17    0.56    0.08
   9   9 -17    0.50    0.09
   8   9 -17    0.40    0.10
   8   9 -17    0.38    0.08
   7   9 -17    0.37    0.08
   7   9 -17    0.50    0.10
   6   9 -17    0.12    0.08
   6   9 -17   -0.13    0.06
   5   9 -17    0.82    0.16
   5   9 -17    0.60    0.12
   4   9 -17    2.97    0.18
   4   9 -17    2.94    0.22
   3   9 -17   -0.05    0.08
   3   9 -17   -0.07    0.11
   2   9 -17    0.03    0.07
   2   9 -17   -0.03    0.13
   1   9 -17    8.83    0.38
   1   9 -17    8.43    0.39
   0   9 -17    0.28    0.10
   0   9 -17    0.41    0.11
  -1   9 -17    0.13    0.11
  -1   9 -17    0.14    0.09
  -2   9 -17    0.27    0.08
  -3   9 -17    2.12    0.17
  -4   9 -17    0.01    0.08
  -6   9 -17    0.63    0.14
   9   8 -17    0.54    0.08
   9   8 -17    0.52    0.09
   8   8 -17    2.99    0.18
   8   8 -17    3.08    0.17
   7   8 -17    0.10    0.06
   7   8 -17    0.27    0.08
   6   8 -17    0.55    0.12
   6   8 -17    0.37    0.10
   5   8 -17    1.21    0.14
   5   8 -17    1.48    0.17
   4   8 -17   13.82    0.55
   4   8 -17   13.37    0.57
   3   8 -17    1.28    0.20
   3   8 -17    0.87    0.13
   2   8 -17    0.55    0.10
   2   8 -17    0.42    0.11
   2   8 -17    0.43    0.14
   1   8 -17    0.06    0.09
   1   8 -17   -0.08    0.09
   0   8 -17    0.71    0.15
   0   8 -17    0.67    0.15
  -1   8 -17    0.15    0.08
  -1   8 -17    0.01    0.10
  -2   8 -17    9.93    0.41
  -2   8 -17    8.33    0.41
  -3   8 -17    5.11    0.27
  -4   8 -17    0.58    0.13
  -5   8 -17    1.21    0.15
  -6   8 -17    0.55    0.10
  10   7 -17    0.48    0.09
  10   7 -17    0.38    0.08
   9   7 -17    0.00    0.05
   9   7 -17    0.04    0.06
   8   7 -17   -0.01    0.06
   8   7 -17   -0.03    0.07
   7   7 -17    0.08    0.09
   7   7 -17    0.04    0.07
   6   7 -17    1.01    0.13
   6   7 -17    1.09    0.16
   5   7 -17    0.08    0.09
   5   7 -17   -0.08    0.07
   4   7 -17   12.38    0.51
   4   7 -17   12.20    0.53
   3   7 -17    0.60    0.14
   3   7 -17    0.56    0.13
   2   7 -17    1.62    0.23
   2   7 -17    1.83    0.17
   1   7 -17   26.69    1.02
   0   7 -17    1.41    0.16
   0   7 -17    1.38    0.16
  -1   7 -17    0.30    0.08
  -1   7 -17    0.38    0.10
  -2   7 -17   29.88    1.08
  -2   7 -17   26.69    1.09
  -3   7 -17    0.66    0.13
  -3   7 -17    0.63    0.12
  -4   7 -17    0.05    0.08
  -5   7 -17    0.75    0.13
  -6   7 -17    0.18    0.09
   6  -7  17    0.21    0.14
  10   6 -17    1.32    0.11
  10   6 -17    1.18    0.12
   9   6 -17    0.57    0.10
   9   6 -17    0.53    0.11
   8   6 -17    0.58    0.12
   8   6 -17    0.63    0.10
   7   6 -17    2.21    0.16
   7   6 -17    2.13    0.18
   6   6 -17    0.68    0.12
   6   6 -17    1.11    0.16
   5   6 -17    0.15    0.09
   5   6 -17    0.09    0.07
   4   6 -17    9.00    0.39
   4   6 -17    8.54    0.40
   3   6 -17    1.45    0.19
   3   6 -17    1.36    0.15
   2   6 -17    1.59    0.15
   2   6 -17    1.73    0.22
   2   6 -17    1.55    0.16
   1   6 -17   56.50    2.01
   1   6 -17   54.39    1.99
   1   6 -17   50.94    2.00
   0   6 -17    0.72    0.14
   0   6 -17    0.70    0.14
  -1   6 -17    0.21    0.09
  -1   6 -17    0.03    0.08
  -2   6 -17    6.26    0.30
  -2   6 -17    5.71    0.30
  -3   6 -17   -0.03    0.10
  -3   6 -17    0.18    0.09
  -4   6 -17    0.09    0.12
  -4   6 -17    0.06    0.08
  -5   6 -17    1.01    0.15
  -6   6 -17    1.22    0.16
   6  -6  17    1.40    0.18
   7  -6  17    0.37    0.15
  10   5 -17   -0.10    0.06
   9   5 -17    0.64    0.13
   9   5 -17    0.66    0.11
   8   5 -17    0.27    0.09
   8   5 -17    0.15    0.07
   7   5 -17    1.45    0.14
   7   5 -17    1.44    0.16
   6   5 -17    0.03    0.07
   6   5 -17    0.06    0.08
   5   5 -17    0.00    0.08
   5   5 -17    0.07    0.09
  -5  -5  17    0.15    0.11
   4   5 -17   11.37    0.48
   4   5 -17   11.52    0.50
   3   5 -17    0.03    0.10
   3   5 -17    0.00    0.07
   2   5 -17    5.11    0.29
   2   5 -17    5.32    0.27
   2   5 -17    4.97    0.26
   1   5 -17   65.45    2.35
   1   5 -17   62.39    2.35
   1   5 -17   62.93    2.34
   0   5 -17    0.94    0.14
   0   5 -17    0.86    0.14
  -1   5 -17    0.48    0.09
  -1   5 -17    0.64    0.15
  -2   5 -17   11.81    0.52
  -2   5 -17   12.44    0.50
  -3   5 -17    4.16    0.24
  -3   5 -17    4.40    0.25
  -4   5 -17    0.11    0.09
  -5   5 -17    0.84    0.14
   5  -5  17    0.96    0.21
  -6   5 -17    8.47    0.39
   6  -5  17    8.92    0.38
   7  -5  17    0.12    0.10
  10   4 -17    0.21    0.07
  10   4 -17    0.35    0.08
   9   4 -17    0.00    0.07
   9   4 -17    0.03    0.07
   8   4 -17    2.91    0.23
   7   4 -17    0.49    0.10
   7   4 -17    0.35    0.08
   6   4 -17   -0.06    0.07
   6   4 -17    0.11    0.09
  -6  -4  17    0.01    0.12
   5   4 -17    0.39    0.10
   5   4 -17    0.63    0.14
  -5  -4  17    0.84    0.15
   4   4 -17    0.22    0.10
   4   4 -17   -0.11    0.07
   3   4 -17    0.25    0.10
   3   4 -17   -0.07    0.07
   2   4 -17    0.08    0.07
   2   4 -17    0.16    0.11
   1   4 -17   10.03    0.46
   1   4 -17    9.65    0.42
   1   4 -17   10.24    0.44
   0   4 -17    0.10    0.08
   0   4 -17    0.04    0.08
  -1   4 -17    0.60    0.13
  -1   4 -17    0.90    0.15
  -2   4 -17    3.11    0.20
  -2   4 -17    2.56    0.20
  -3   4 -17    2.57    0.19
  -3   4 -17    2.42    0.19
  -4   4 -17    0.09    0.09
  -4   4 -17    0.03    0.08
  -5   4 -17    3.19    0.21
  -5   4 -17    3.20    0.21
   5  -4  17    3.00    0.25
  -6   4 -17    0.65    0.12
   6  -4  17    0.68    0.17
   7  -4  17    0.04    0.10
  10   3 -17    1.86    0.15
  10   3 -17    1.95    0.15
   9   3 -17   -0.02    0.07
   9   3 -17    0.11    0.07
   8   3 -17    2.58    0.20
   8   3 -17    2.69    0.20
   7   3 -17    1.80    0.17
   7   3 -17    1.68    0.15
   6   3 -17    0.48    0.10
   6   3 -17    0.54    0.09
  -6  -3  17    0.62    0.16
   5   3 -17    0.34    0.09
   5   3 -17    0.62    0.15
  -5  -3  17    0.42    0.10
   4   3 -17    3.37    0.20
   4   3 -17    3.32    0.22
   3   3 -17    0.08    0.10
   3   3 -17    0.02    0.08
   2   3 -17   -0.01    0.08
   2   3 -17   -0.01    0.11
   1   3 -17   11.18    0.48
   1   3 -17   12.33    0.49
   1   3 -17   10.76    0.50
   0   3 -17    2.82    0.19
   0   3 -17    2.55    0.19
  -1   3 -17    0.39    0.09
  -1   3 -17    0.57    0.13
  -2   3 -17   10.06    0.43
  -2   3 -17    9.93    0.44
  -3   3 -17    4.20    0.23
  -3   3 -17    3.68    0.23
  -4   3 -17   -0.04    0.09
  -4   3 -17   -0.05    0.08
  -5   3 -17    0.54    0.12
  -5   3 -17    0.47    0.09
   5  -3  17    0.68    0.13
  -6   3 -17    1.93    0.19
   6  -3  17    1.27    0.18
   7  -3  17    0.12    0.10
  10   2 -17    5.54    0.27
   9   2 -17    1.32    0.15
   9   2 -17    1.22    0.15
   8   2 -17   -0.01    0.08
   8   2 -17    0.26    0.08
   7   2 -17   14.08    0.58
   7   2 -17   14.32    0.56
  -7  -2  17   13.11    0.57
   6   2 -17    0.12    0.09
   6   2 -17   -0.08    0.08
  -6  -2  17   -0.06    0.09
   5   2 -17    0.90    0.16
   5   2 -17    1.10    0.15
  -5  -2  17    1.10    0.15
   4   2 -17    4.52    0.26
   4   2 -17    4.24    0.24
   3   2 -17    0.68    0.14
   3   2 -17    0.50    0.11
   2   2 -17    0.25    0.08
   2   2 -17    0.17    0.11
   1   2 -17   36.94    1.42
   1   2 -17   38.56    1.41
   0   2 -17    1.80    0.16
   0   2 -17    1.85    0.16
   0   2 -17    1.63    0.24
  -1   2 -17    1.94    0.17
  -1   2 -17    1.80    0.16
  -2   2 -17    0.77    0.14
  -2   2 -17    0.56    0.15
  -3   2 -17    0.22    0.08
  -3   2 -17    0.24    0.10
  -4   2 -17   -0.11    0.08
  -4   2 -17    0.08    0.10
  -5   2 -17    2.16    0.16
   5  -2  17    2.02    0.22
  -6   2 -17    2.25    0.17
   6  -2  17    2.39    0.19
   7  -2  17    1.17    0.16
  10   1 -17    1.09    0.14
   9   1 -17    0.06    0.08
   9   1 -17    0.00    0.09
   8   1 -17    0.20    0.09
   8   1 -17    0.17    0.09
  -8  -1  17   -0.05    0.15
   7   1 -17    2.93    0.20
   7   1 -17    3.01    0.20
  -7  -1  17    2.51    0.21
   6   1 -17    1.12    0.15
   6   1 -17    0.98    0.15
  -6  -1  17    0.84    0.14
   5   1 -17    5.75    0.30
   5   1 -17    5.49    0.28
  -5  -1  17    5.97    0.29
   4   1 -17    4.02    0.23
   4   1 -17    4.01    0.25
  -4  -1  17    4.22    0.23
   3   1 -17    2.22    0.18
   3   1 -17    2.34    0.19
   2   1 -17    0.52    0.12
   2   1 -17    0.91    0.17
   1   1 -17    3.23    0.19
   1   1 -17    2.52    0.23
   0   1 -17    0.65    0.14
   0   1 -17    0.59    0.10
  -1   1 -17    0.18    0.08
  -1   1 -17    0.32    0.09
  -2   1 -17    5.23    0.26
  -2   1 -17    4.86    0.26
  -3   1 -17    0.18    0.08
  -3   1 -17    0.09    0.08
  -4   1 -17    1.47    0.15
  -5   1 -17    1.63    0.14
   5  -1  17    1.50    0.21
  -6   1 -17    0.53    0.12
   6  -1  17    0.38    0.11
   7  -1  17    0.63    0.11
  10   0 -17    5.45    0.27
   9   0 -17    0.27    0.09
   8   0 -17    0.35    0.09
   8   0 -17    0.19    0.10
  -8   0  17    0.16    0.12
   7   0 -17   10.19    0.43
   7   0 -17    9.66    0.43
  -7   0  17    9.71    0.43
   6   0 -17    0.13    0.09
   6   0 -17   -0.05    0.09
  -6   0  17   -0.01    0.07
   5   0 -17    0.16    0.08
   5   0 -17    0.12    0.09
  -5   0  17   -0.06    0.07
   4   0 -17   15.29    0.62
   4   0 -17   15.28    0.61
  -4   0  17   15.14    0.62
   3   0 -17   -0.06    0.08
   3   0 -17    0.01    0.08
   2   0 -17    0.26    0.08
   2   0 -17    0.19    0.09
   1   0 -17   71.34    2.61
   1   0 -17   70.77    2.60
   0   0 -17    0.62    0.13
   0   0 -17    0.51    0.10
  -1   0 -17    2.97    0.31
  -1   0 -17    3.06    0.19
  -2   0 -17   39.10    1.46
  -3   0 -17    3.47    0.21
  -4   0 -17    0.21    0.08
  -5   0 -17   33.04    1.25
   5   0  17   34.29    1.27
  -6   0 -17    1.11    0.12
   6   0  17    1.17    0.18
  -7   0 -17    0.48    0.09
  10  -1 -17    0.40    0.10
   9  -1 -17    4.63    0.24
  -9   1  17    4.82    0.36
   8  -1 -17    0.35    0.09
  -8   1  17    0.59    0.15
   7  -1 -17   17.03    0.68
   7  -1 -17   16.67    0.67
  -7   1  17   16.62    0.67
   6  -1 -17    0.47    0.11
   6  -1 -17    0.57    0.15
  -6   1  17    0.49    0.13
   5  -1 -17    0.24    0.09
   5  -1 -17    0.40    0.10
  -5   1  17    0.54    0.12
   4  -1 -17    0.50    0.10
   4  -1 -17    0.29    0.09
  -4   1  17    0.46    0.11
   3  -1 -17   -0.03    0.07
   3  -1 -17    0.06    0.08
  -3   1  17   -0.01    0.07
   2  -1 -17    3.12    0.20
   2  -1 -17    3.08    0.22
   1  -1 -17   14.15    0.59
   1  -1 -17   14.27    0.57
   0  -1 -17    0.27    0.11
   0  -1 -17    0.21    0.07
  -1  -1 -17    0.07    0.07
  -1  -1 -17    0.11    0.12
  -2  -1 -17   12.24    0.51
  -3  -1 -17    0.03    0.07
  -4  -1 -17    0.03    0.08
  -5  -1 -17    4.72    0.22
   5   1  17    4.06    0.27
  -6  -1 -17    1.34    0.11
   6   1  17    0.92    0.20
  -7  -1 -17    0.05    0.07
  10  -2 -17    0.12    0.09
   9  -2 -17    0.02    0.08
  -9   2  17    0.07    0.10
   8  -2 -17    0.54    0.14
  -8   2  17    0.24    0.10
   7  -2 -17    0.01    0.11
   7  -2 -17   -0.05    0.08
  -7   2  17    0.03    0.08
   6  -2 -17    0.70    0.17
   6  -2 -17    0.66    0.14
  -6   2  17    0.60    0.12
   5  -2 -17    0.29    0.09
   5  -2 -17    0.35    0.09
  -5   2  17    0.25    0.12
   4  -2 -17    1.76    0.17
   4  -2 -17    1.79    0.18
  -4   2  17    1.93    0.16
   3  -2 -17    2.30    0.18
   3  -2 -17    2.12    0.18
  -3   2  17    2.46    0.17
   2  -2 -17   -0.12    0.08
   2  -2 -17   -0.01    0.08
  -2   2  17    0.10    0.08
   1  -2 -17    0.20    0.09
   1  -2 -17    0.10    0.08
   0  -2 -17    2.25    0.17
   0  -2 -17    2.39    0.20
  -1  -2 -17    0.08    0.08
  -1  -2 -17    0.02    0.11
  -2  -2 -17    0.56    0.13
  -3  -2 -17    0.94    0.13
  -4  -2 -17    0.02    0.07
  -5  -2 -17    1.81    0.13
   5   2  17    1.81    0.21
  -6  -2 -17    0.64    0.09
   6   2  17    0.95    0.24
  10  -3 -17    2.14    0.19
   9  -3 -17    0.19    0.09
  -9   3  17    0.16    0.09
   8  -3 -17    9.16    0.40
  -8   3  17    8.89    0.39
   7  -3 -17   52.53    1.87
  -7   3  17   47.86    1.86
   6  -3 -17    0.19    0.09
   6  -3 -17   -0.05    0.11
  -6   3  17    0.00    0.08
   5  -3 -17    2.78    0.21
   5  -3 -17    2.92    0.20
  -5   3  17    2.88    0.19
   4  -3 -17    1.05    0.17
   4  -3 -17    0.63    0.14
  -4   3  17    0.80    0.13
   3  -3 -17    0.03    0.08
   3  -3 -17    0.05    0.08
  -3   3  17    0.02    0.07
   2  -3 -17   -0.03    0.07
   2  -3 -17    0.07    0.08
  -2   3  17   -0.04    0.07
   1  -3 -17    7.83    0.36
   1  -3 -17    8.28    0.38
  -1   3  17    8.44    0.38
   0  -3 -17    3.06    0.22
   0  -3 -17    3.25    0.20
   0   3  17    2.91    0.23
  -1  -3 -17    2.84    0.22
  -1  -3 -17    3.39    0.20
   1   3  17    3.11    0.22
  -2  -3 -17    0.56    0.12
  -2  -3 -17    0.39    0.12
   2   3  17    0.56    0.12
  -3  -3 -17    0.00    0.07
  -4  -3 -17    0.65    0.11
  -5  -3 -17    3.96    0.20
  -6  -3 -17    0.77    0.09
 -10   4  17    2.43    0.22
   9  -4 -17    0.13    0.09
  -9   4  17    0.18    0.09
   8  -4 -17    1.75    0.19
  -8   4  17    2.10    0.16
   7  -4 -17    0.60    0.14
  -7   4  17    0.29    0.09
   6  -4 -17    0.62    0.14
  -6   4  17    0.54    0.13
   5  -4 -17    2.97    0.20
   5  -4 -17    2.78    0.22
  -5   4  17    3.17    0.19
   4  -4 -17    1.10    0.15
   4  -4 -17    0.88    0.18
  -4   4  17    0.90    0.13
   3  -4 -17    0.09    0.08
   3  -4 -17    0.13    0.09
   2  -4 -17    0.46    0.10
   2  -4 -17    0.50    0.10
   1  -4 -17   11.54    0.50
   1  -4 -17   12.09    0.50
  -1   4  17   12.45    0.51
   0  -4 -17    0.44    0.09
   0  -4 -17    0.52    0.11
   0   4  17    0.73    0.14
  -1  -4 -17    0.05    0.07
  -1  -4 -17    0.09    0.10
   1   4  17    0.07    0.11
  -2  -4 -17    2.30    0.21
  -2  -4 -17    2.45    0.17
  -4  -4 -17    0.73    0.11
  -5  -4 -17    0.57    0.09
  -6  -4 -17    1.07    0.09
 -10   5  17   10.44    0.44
   9  -5 -17    0.48    0.10
   8  -5 -17    0.08    0.08
  -8   5  17   -0.06    0.07
   7  -5 -17    6.99    0.32
  -7   5  17    6.22    0.31
   6  -5 -17    1.15    0.15
  -6   5  17    1.36    0.15
   5  -5 -17    1.61    0.16
  -5   5  17    1.63    0.15
   4  -5 -17   11.92    0.49
   4  -5 -17   10.89    0.48
  -4   5  17   11.58    0.49
   3  -5 -17    0.30    0.09
   3  -5 -17    0.09    0.09
  -3   5  17    0.17    0.08
   2  -5 -17    0.98    0.15
   2  -5 -17    0.83    0.14
  -2   5  17    0.80    0.14
   1  -5 -17    4.34    0.24
   1  -5 -17    4.69    0.25
  -1   5  17    4.35    0.25
   0  -5 -17    0.08    0.08
   0  -5 -17    0.15    0.09
   0   5  17    0.11    0.10
  -1  -5 -17    1.79    0.18
  -1  -5 -17    2.13    0.16
   1   5  17    2.22    0.22
  -2  -5 -17   17.39    0.74
  -2  -5 -17   20.50    0.74
  -3  -5 -17    3.35    0.18
  -4  -5 -17    0.15    0.06
  -5  -5 -17    0.32    0.08
  -6  -5 -17    6.59    0.26
 -10   6  17    1.94    0.18
   9  -6 -17    1.04    0.15
  -9   6  17    0.83    0.13
   8  -6 -17    0.63    0.14
  -8   6  17    0.68    0.12
  -7   6  17    1.08    0.13
   6  -6 -17    1.88    0.16
  -6   6  17    1.83    0.17
   5  -6 -17    0.59    0.13
  -5   6  17    0.68    0.13
   4  -6 -17    2.64    0.18
   4  -6 -17    2.93    0.25
  -4   6  17    2.06    0.18
   3  -6 -17    0.04    0.10
   3  -6 -17    0.16    0.08
  -3   6  17    0.10    0.08
   2  -6 -17    0.67    0.11
   2  -6 -17    0.50    0.10
  -2   6  17    0.82    0.14
   1  -6 -17    0.07    0.08
   1  -6 -17    0.14    0.08
  -1   6  17    0.13    0.09
   0  -6 -17    0.40    0.09
   0  -6 -17    0.30    0.08
   0   6  17    0.40    0.12
  -1  -6 -17    1.26    0.15
  -1  -6 -17    0.95    0.13
  -2  -6 -17    1.25    0.16
  -2  -6 -17    1.33    0.13
  -3  -6 -17    3.25    0.18
  -4  -6 -17    0.72    0.10
  -5  -6 -17    2.20    0.12
   8  -7 -17    0.10    0.08
  -8   7  17    0.20    0.07
   7  -7 -17    4.46    0.24
  -7   7  17    4.55    0.24
   6  -7 -17    0.06    0.07
  -6   7  17    0.18    0.08
   5  -7 -17    0.85    0.13
  -5   7  17    0.67    0.14
   4  -7 -17    0.36    0.08
  -4   7  17    0.36    0.09
   3  -7 -17    0.34    0.12
   3  -7 -17    0.30    0.08
  -3   7  17    0.20    0.09
   2  -7 -17    0.35    0.09
   2  -7 -17    0.37    0.10
  -2   7  17    0.35    0.11
   1  -7 -17    2.46    0.19
   1  -7 -17    2.74    0.19
  -1   7  17    2.50    0.22
   0  -7 -17   -0.05    0.07
   0  -7 -17    0.10    0.08
  -1  -7 -17    0.73    0.13
  -1  -7 -17    0.88    0.13
  -2  -7 -17    0.59    0.14
  -2  -7 -17    0.45    0.11
  -3  -7 -17   -0.01    0.05
  -4  -7 -17    0.28    0.05
  -5  -7 -17    0.93    0.08
  -9   8  17   -0.01    0.07
   8  -8 -17    0.26    0.08
  -8   8  17    0.16    0.07
   7  -8 -17   26.00    0.97
  -7   8  17   24.79    0.97
   6  -8 -17    0.75    0.12
  -6   8  17    0.85    0.13
   5  -8 -17    1.23    0.19
  -5   8  17    1.32    0.15
   4  -8 -17    9.16    0.38
  -4   8  17    8.18    0.38
   3  -8 -17    4.41    0.23
  -3   8  17    4.08    0.24
   2  -8 -17    0.68    0.13
   2  -8 -17    0.74    0.12
  -2   8  17    0.71    0.17
   1  -8 -17   13.34    0.53
   1  -8 -17   12.71    0.59
   0  -8 -17    5.09    0.25
   0  -8 -17    4.84    0.25
  -1  -8 -17    0.16    0.07
  -1  -8 -17    0.06    0.07
  -2  -8 -17    2.12    0.14
  -2  -8 -17    2.17    0.16
  -3  -8 -17    0.98    0.10
  -4  -8 -17    1.34    0.09
  -9   9  17   -0.10    0.08
  -8   9  17    0.22    0.08
   7  -9 -17   14.61    0.58
  -7   9  17   15.16    0.61
   6  -9 -17    0.10    0.06
  -6   9  17    0.09    0.07
   5  -9 -17    0.14    0.07
  -5   9  17    0.27    0.08
   4  -9 -17    0.21    0.07
  -4   9  17    0.32    0.10
   3  -9 -17    0.49    0.12
  -3   9  17    0.67    0.16
   2  -9 -17    0.52    0.11
  -2   9  17    0.44    0.15
   1  -9 -17    5.61    0.27
   1  -9 -17    5.57    0.28
   0  -9 -17    0.27    0.07
   0  -9 -17    0.25    0.08
  -1  -9 -17    1.84    0.14
  -1  -9 -17    2.05    0.15
  -2  -9 -17    0.50    0.11
  -2  -9 -17    0.50    0.09
  -3  -9 -17    3.69    0.17
  -8  10  17    0.54    0.11
   7 -10 -17    0.28    0.08
  -7  10  17    0.23    0.08
   6 -10 -17    0.28    0.07
  -6  10  17    0.37    0.09
   5 -10 -17    0.94    0.12
  -5  10  17    0.98    0.14
   4 -10 -17    2.29    0.15
  -4  10  17    2.36    0.19
   3 -10 -17    1.49    0.13
  -3  10  17    1.55    0.20
   2 -10 -17    0.00    0.06
   1 -10 -17    5.19    0.25
   0 -10 -17    0.23    0.11
   0 -10 -17    0.06    0.06
  -1 -10 -17    0.08    0.06
  -1 -10 -17   -0.02    0.08
  -2 -10 -17   11.99    0.47
  -2 -10 -17   12.17    0.47
   7 -11 -17    0.00    0.09
  -7  11  17    0.24    0.09
   6 -11 -17    0.54    0.11
  -6  11  17    0.42    0.10
   5 -11 -17    0.08    0.06
  -5  11  17   -0.14    0.10
   4 -11 -17    7.38    0.31
  -4  11  17    6.64    0.34
   3 -11 -17    0.11    0.06
   2 -11 -17    0.58    0.10
   1 -11 -17    6.10    0.27
   0 -11 -17    1.81    0.12
  -1 -11 -17    0.04    0.05
   6 -12 -17   -0.01    0.07
   5 -12 -17    0.05    0.06
   4 -12 -17    0.26    0.06
   3 -12 -17    0.02    0.05
   2 -12 -17    0.18    0.05
   1 -12 -17    0.56    0.08
   0 -12 -17    1.54    0.11
   5 -13 -17    0.07    0.06
   4 -13 -17   23.75    0.88
   3 -13 -17    0.23    0.05
   2 -13 -17    0.00    0.04
   6  13 -18    0.16    0.06
   6  13 -18    0.15    0.07
   5  13 -18    1.14    0.11
   5  13 -18    1.06    0.14
   4  13 -18    0.00    0.08
   4  13 -18    0.06    0.10
  -1  13 -18    0.10    0.17
  -2  13 -18    0.89    0.19
  -3  13 -18    7.36    0.38
   7  12 -18    0.35    0.09
   7  12 -18    0.42    0.08
   6  12 -18    1.58    0.15
   5  12 -18    0.31    0.08
   5  12 -18    0.26    0.06
   4  12 -18    2.22    0.19
   4  12 -18    2.32    0.15
   3  12 -18    0.22    0.12
   3  12 -18    0.34    0.08
   2  12 -18    1.45    0.16
   0  12 -18    1.00    0.20
  -1  12 -18    0.26    0.11
  -2  12 -18    0.09    0.10
  -3  12 -18    0.14    0.08
  -4  12 -18    0.14    0.09
   7  11 -18    0.40    0.09
   7  11 -18    0.09    0.05
   6  11 -18    5.50    0.24
   6  11 -18    5.55    0.26
   5  11 -18   -0.14    0.06
   5  11 -18    0.14    0.08
   4  11 -18   -0.06    0.07
   4  11 -18    0.13    0.09
   3  11 -18    0.10    0.07
   3  11 -18    0.23    0.12
   2  11 -18    0.03    0.08
   1  11 -18    1.31    0.17
   0  11 -18   14.83    0.61
  -1  11 -18    0.15    0.10
  -2  11 -18   -0.01    0.08
  -3  11 -18    0.06    0.08
  -4  11 -18    1.38    0.14
  -5  11 -18    0.09    0.08
   8  10 -18   -0.02    0.05
   8  10 -18    0.03    0.06
   7  10 -18    1.51    0.11
   7  10 -18    1.73    0.13
   6  10 -18   -0.01    0.07
   6  10 -18   -0.07    0.05
   5  10 -18    0.91    0.14
   5  10 -18    0.89    0.12
   4  10 -18    1.90    0.15
   4  10 -18    2.01    0.19
   3  10 -18    3.96    0.25
   3  10 -18    3.48    0.23
   1  10 -18    1.74    0.18
   0  10 -18    7.95    0.38
   0  10 -18    8.55    0.37
  -1  10 -18    1.30    0.15
  -2  10 -18    0.32    0.09
  -3  10 -18   10.79    0.46
  -4  10 -18    0.75    0.13
  -5  10 -18   -0.08    0.08
   9   9 -18    2.14    0.13
   8   9 -18    0.06    0.06
   8   9 -18    0.07    0.05
   7   9 -18    6.16    0.29
   7   9 -18    6.40    0.28
   6   9 -18    1.41    0.13
   6   9 -18    1.36    0.15
   5   9 -18    0.05    0.06
   5   9 -18    0.04    0.09
   4   9 -18    0.50    0.12
   3   9 -18    2.57    0.18
   3   9 -18    2.43    0.22
   2   9 -18    0.39    0.14
   2   9 -18    0.18    0.07
   1   9 -18    0.24    0.10
   1   9 -18    0.26    0.09
   0   9 -18   17.24    0.73
   0   9 -18   19.27    0.72
  -1   9 -18    0.97    0.15
  -2   9 -18    0.38    0.09
  -3   9 -18    2.06    0.16
  -4   9 -18    1.61    0.15
  -5   9 -18    0.08    0.08
   9   8 -18    0.84    0.09
   8   8 -18    0.00    0.06
   8   8 -18    0.04    0.05
   7   8 -18    1.39    0.13
   7   8 -18    1.06    0.11
   6   8 -18    9.85    0.42
   6   8 -18   10.08    0.43
   5   8 -18    0.20    0.07
   5   8 -18    0.15    0.09
   4   8 -18   -0.11    0.07
   4   8 -18   -0.09    0.10
   3   8 -18    2.16    0.21
   3   8 -18    2.10    0.16
   2   8 -18    0.10    0.08
   2   8 -18   -0.31    0.13
   1   8 -18    2.08    0.17
   1   8 -18    1.87    0.18
   0   8 -18   17.10    0.72
   0   8 -18   19.03    0.71
  -1   8 -18    0.07    0.09
  -1   8 -18    0.07    0.08
  -2   8 -18    0.10    0.08
  -2   8 -18    0.11    0.11
  -3   8 -18    2.96    0.20
  -4   8 -18    0.34    0.09
  -5   8 -18    0.14    0.08
  -6   8 -18    2.51    0.19
   9   7 -18    0.97    0.10
   9   7 -18    0.90    0.09
   8   7 -18    0.41    0.09
   8   7 -18    0.48    0.11
   7   7 -18    0.07    0.08
   7   7 -18   -0.01    0.06
   6   7 -18    1.56    0.14
   6   7 -18    1.43    0.21
   5   7 -18    0.04    0.07
   5   7 -18    0.22    0.09
   4   7 -18    0.08    0.07
   4   7 -18    0.20    0.10
  -4  -7  18    0.26    0.12
   3   7 -18    2.67    0.18
   3   7 -18    2.70    0.23
   2   7 -18    1.79    0.23
   2   7 -18    2.12    0.17
   1   7 -18    2.89    0.19
   1   7 -18    2.28    0.20
   0   7 -18   11.94    0.52
   0   7 -18   12.56    0.51
  -1   7 -18    0.18    0.08
  -1   7 -18    0.27    0.09
  -2   7 -18    0.20    0.10
  -2   7 -18    0.17    0.08
  -3   7 -18    2.76    0.21
  -3   7 -18    2.70    0.19
  -4   7 -18    1.03    0.14
  -5   7 -18    0.10    0.08
  -6   7 -18    1.33    0.17
  10   6 -18    5.83    0.25
  10   6 -18    5.62    0.24
   9   6 -18    6.42    0.28
   9   6 -18    6.59    0.29
   8   6 -18    0.58    0.10
   8   6 -18    0.70    0.13
   7   6 -18    0.28    0.07
   7   6 -18    0.07    0.08
   6   6 -18    6.83    0.32
   6   6 -18    6.23    0.30
   5   6 -18   -0.14    0.09
   5   6 -18   -0.05    0.07
   4   6 -18    0.08    0.09
   4   6 -18   -0.01    0.07
   3   6 -18    3.74    0.24
   3   6 -18    3.39    0.21
   2   6 -18    1.52    0.20
   2   6 -18    1.09    0.14
   1   6 -18    0.49    0.16
   1   6 -18    0.49    0.09
   1   6 -18    0.46    0.10
   0   6 -18    5.78    0.28
   0   6 -18    5.39    0.29
  -1   6 -18    1.30    0.15
  -1   6 -18    1.42    0.16
  -2   6 -18    0.63    0.14
  -2   6 -18    0.46    0.10
  -3   6 -18    5.76    0.29
  -4   6 -18    0.79    0.13
  -5   6 -18    0.14    0.09
  -6   6 -18    0.07    0.10
  10   5 -18    0.73    0.10
  10   5 -18    0.72    0.10
   9   5 -18    0.33    0.08
   9   5 -18    0.36    0.08
   8   5 -18    2.61    0.18
   8   5 -18    2.86    0.17
   7   5 -18    0.95    0.14
   7   5 -18    1.08    0.18
   6   5 -18    0.04    0.09
   6   5 -18   -0.10    0.07
   5   5 -18   -0.02    0.09
   5   5 -18   -0.02    0.06
  -5  -5  18    0.06    0.10
   4   5 -18    2.68    0.21
   4   5 -18    2.86    0.19
   3   5 -18    3.19    0.20
   3   5 -18    3.19    0.23
   2   5 -18    0.76    0.19
   2   5 -18    0.42    0.09
   1   5 -18    0.72    0.15
   1   5 -18    0.58    0.13
   0   5 -18    0.31    0.10
   0   5 -18    0.73    0.14
  -1   5 -18    1.52    0.16
  -1   5 -18    1.91    0.17
  -2   5 -18    0.10    0.08
  -2   5 -18    0.11    0.08
  -3   5 -18    4.01    0.22
  -3   5 -18    3.51    0.22
  -4   5 -18   -0.16    0.09
  -4   5 -18   -0.03    0.08
  -5   5 -18    0.35    0.15
  10   4 -18    1.68    0.14
  10   4 -18    1.83    0.14
   9   4 -18    2.31    0.16
   9   4 -18    2.07    0.14
   8   4 -18   -0.06    0.06
   8   4 -18   -0.07    0.07
   7   4 -18   -0.12    0.08
   7   4 -18   -0.01    0.07
   6   4 -18    2.57    0.17
   6   4 -18    2.56    0.19
  -6  -4  18    1.93    0.22
   5   4 -18    0.66    0.13
   5   4 -18    0.41    0.10
  -5  -4  18    0.39    0.10
   4   4 -18    0.05    0.09
   4   4 -18    0.10    0.07
   3   4 -18    7.58    0.34
   3   4 -18    7.06    0.36
   2   4 -18    3.71    0.21
   2   4 -18    3.61    0.25
   1   4 -18    0.39    0.09
   1   4 -18    0.32    0.10
   1   4 -18    0.35    0.14
   0   4 -18    5.86    0.28
   0   4 -18    5.55    0.34
  -1   4 -18    2.53    0.19
  -1   4 -18    2.71    0.19
  -2   4 -18    0.33    0.09
  -2   4 -18    0.18    0.08
  -3   4 -18    0.04    0.08
  -3   4 -18    0.05    0.08
  -4   4 -18    0.49    0.10
  -4   4 -18    0.56    0.14
  -5   4 -18   -0.03    0.10
  -5   4 -18    0.04    0.09
  10   3 -18    6.05    0.27
  10   3 -18    5.89    0.27
   9   3 -18    0.52    0.12
   9   3 -18    0.59    0.12
   8   3 -18    0.70    0.14
   8   3 -18    0.53    0.12
   7   3 -18    0.48    0.10
   7   3 -18    0.37    0.08
   6   3 -18    9.66    0.41
   6   3 -18    9.79    0.42
  -6  -3  18    8.94    0.42
   5   3 -18    0.04    0.08
   5   3 -18    0.20    0.09
  -5  -3  18    0.10    0.09
   4   3 -18    0.25    0.08
   4   3 -18    0.13    0.09
   3   3 -18    0.20    0.10
   3   3 -18    0.17    0.07
   2   3 -18    0.52    0.13
   2   3 -18    0.58    0.13
   1   3 -18    0.13    0.13
   1   3 -18    0.14    0.07
   0   3 -18   16.94    0.67
  -1   3 -18    0.23    0.08
  -1   3 -18    0.26    0.08
  -2   3 -18    1.04    0.14
  -2   3 -18    0.99    0.15
  -3   3 -18   10.52    0.42
  -3   3 -18    9.11    0.43
  -4   3 -18    0.17    0.08
  -4   3 -18    0.22    0.08
  -5   3 -18    1.27    0.15
  10   2 -18    1.55    0.14
   9   2 -18    5.90    0.27
   9   2 -18    5.94    0.28
   8   2 -18    0.58    0.14
   7   2 -18    0.06    0.08
   7   2 -18   -0.12    0.08
  -7  -2  18   -0.02    0.11
   6   2 -18    3.65    0.22
   6   2 -18    3.31    0.21
  -6  -2  18    3.20    0.22
   5   2 -18   -0.04    0.08
   5   2 -18    0.00    0.08
  -5  -2  18   -0.03    0.08
   4   2 -18    0.78    0.16
   4   2 -18    0.72    0.13
  -4  -2  18    0.97    0.15
   3   2 -18   26.15    1.00
   3   2 -18   26.21    1.01
   2   2 -18    1.16    0.14
   2   2 -18    0.98    0.19
   1   2 -18    2.84    0.18
   1   2 -18    2.55    0.24
   0   2 -18   23.56    0.92
   0   2 -18   23.41    0.90
  -1   2 -18    0.33    0.09
  -1   2 -18    0.53    0.12
  -2   2 -18    0.71    0.13
  -2   2 -18    0.88    0.13
  -3   2 -18    0.41    0.09
  -3   2 -18    0.61    0.13
  -4   2 -18    0.28    0.08
  -5   2 -18    0.93    0.13
  -6   2 -18    1.56    0.15
  10   1 -18    1.58    0.14
   9   1 -18    6.57    0.30
   9   1 -18    6.38    0.30
   8   1 -18    0.17    0.09
  -8  -1  18    0.11    0.21
   7   1 -18    0.04    0.08
   7   1 -18    0.07    0.08
  -7  -1  18   -0.26    0.09
   6   1 -18   19.96    0.78
   6   1 -18   19.74    0.77
  -6  -1  18   19.39    0.78
   5   1 -18    0.03    0.09
   5   1 -18   -0.02    0.08
  -5  -1  18    0.02    0.08
   4   1 -18    0.02    0.09
   4   1 -18    0.02    0.08
  -4  -1  18   -0.03    0.08
   3   1 -18   28.76    1.09
   3   1 -18   28.54    1.10
   2   1 -18    0.85    0.17
   2   1 -18    1.12    0.13
   1   1 -18   -0.01    0.07
   1   1 -18    0.17    0.11
   0   1 -18    0.08    0.08
   0   1 -18    0.31    0.13
  -1   1 -18    2.82    0.19
  -2   1 -18    0.20    0.08
  -3   1 -18    2.37    0.17
  -4   1 -18    0.56    0.12
  -5   1 -18    0.02    0.06
  -6   1 -18    1.15    0.13
  10   0 -18    4.12    0.22
   9   0 -18    0.17    0.08
   8   0 -18    0.30    0.10
  -8   0  18    0.46    0.12
   7   0 -18    3.79    0.22
   7   0 -18    4.01    0.23
  -7   0  18    3.62    0.23
   6   0 -18   15.27    0.60
   6   0 -18   15.03    0.61
  -6   0  18   13.90    0.60
   5   0 -18    0.67    0.13
   5   0 -18    0.69    0.14
  -5   0  18    0.69    0.13
   4   0 -18    5.56    0.28
   4   0 -18    5.22    0.27
   3   0 -18    2.58    0.18
   3   0 -18    2.51    0.20
  -3   0  18    2.93    0.19
   2   0 -18    0.08    0.08
   2   0 -18    0.18    0.10
   1   0 -18    1.18    0.18
   1   0 -18    0.97    0.14
   0   0 -18    1.04    0.20
   0   0 -18    1.05    0.14
  -1   0 -18   11.09    0.46
  -2   0 -18    0.77    0.13
  -3   0 -18    2.13    0.16
  -4   0 -18    3.38    0.19
  -5   0 -18    0.58    0.11
  -6   0 -18    2.86    0.16
  10  -1 -18    0.52    0.13
   9  -1 -18    4.55    0.24
   8  -1 -18    0.50    0.12
  -8   1  18    0.45    0.11
   7  -1 -18   -0.05    0.09
   7  -1 -18    0.10    0.08
  -7   1  18    0.08    0.08
   6  -1 -18   26.71    1.00
   6  -1 -18   26.03    0.99
  -6   1  18   24.79    1.00
   5  -1 -18    2.58    0.19
   5  -1 -18    2.60    0.19
  -5   1  18    2.54    0.18
   4  -1 -18    0.91    0.15
   4  -1 -18    0.92    0.14
  -4   1  18    0.66    0.14
   3  -1 -18   13.49    0.56
   3  -1 -18   14.34    0.57
  -3   1  18   13.63    0.60
   2  -1 -18    0.67    0.13
   2  -1 -18    0.26    0.09
   1  -1 -18   -0.08    0.07
   1  -1 -18    0.09    0.09
   0  -1 -18    7.61    0.37
   0  -1 -18    7.90    0.35
  -1  -1 -18    4.49    0.29
  -1  -1 -18    4.71    0.24
  -2  -1 -18    0.98    0.13
  -3  -1 -18    0.49    0.11
  -4  -1 -18    0.24    0.07
  -5  -1 -18    0.05    0.06
  -6  -1 -18   -0.01    0.06
  10  -2 -18    2.88    0.19
   9  -2 -18    0.05    0.07
  -9   2  18   -0.11    0.10
   8  -2 -18    0.78    0.14
  -8   2  18    0.55    0.10
   7  -2 -18   -0.06    0.08
   7  -2 -18   -0.01    0.11
  -7   2  18    0.10    0.08
   6  -2 -18   65.98    2.37
   6  -2 -18   64.39    2.35
  -6   2  18   61.76    2.36
   5  -2 -18    0.08    0.08
   5  -2 -18    0.10    0.09
  -5   2  18    0.15    0.08
   4  -2 -18    0.01    0.08
   4  -2 -18   -0.07    0.08
  -4   2  18    0.07    0.07
   3  -2 -18   45.61    1.68
   3  -2 -18   44.90    1.69
  -3   2  18   45.38    1.72
   2  -2 -18    1.94    0.16
   2  -2 -18    1.73    0.17
  -2   2  18    2.01    0.20
   1  -2 -18    0.23    0.08
   1  -2 -18    0.04    0.09
  -1   2  18    0.09    0.08
   0  -2 -18   10.18    0.45
   0  -2 -18   10.36    0.44
  -1  -2 -18    3.00    0.24
  -1  -2 -18    3.53    0.20
  -2  -2 -18    0.06    0.07
  -4  -2 -18    0.07    0.05
  -5  -2 -18    0.15    0.05
  -6  -2 -18    0.43    0.08
  10  -3 -18    3.86    0.22
   9  -3 -18    1.32    0.14
  -9   3  18    0.93    0.16
   8  -3 -18    0.17    0.08
  -8   3  18    0.23    0.09
   7  -3 -18    1.23    0.16
  -7   3  18    1.28    0.15
   6  -3 -18   11.22    0.48
   6  -3 -18   11.73    0.48
  -6   3  18   10.93    0.48
   5  -3 -18   -0.06    0.07
   5  -3 -18   -0.01    0.08
  -5   3  18    0.07    0.07
   4  -3 -18    6.10    0.30
   4  -3 -18    5.78    0.30
  -4   3  18    6.09    0.30
   3  -3 -18   42.78    1.59
   3  -3 -18   43.88    1.60
  -3   3  18   41.54    1.60
   2  -3 -18    0.20    0.08
   2  -3 -18    0.17    0.08
  -2   3  18    0.26    0.09
   1  -3 -18    0.83    0.15
   1  -3 -18    0.85    0.14
  -1   3  18    0.70    0.14
   0  -3 -18   10.37    0.43
   0  -3 -18    9.89    0.42
   0   3  18    9.24    0.43
  -1  -3 -18    0.95    0.17
  -1  -3 -18    0.76    0.13
   1   3  18    0.88    0.16
  -2  -3 -18    0.82    0.12
   2   3  18    0.55    0.13
  -3  -3 -18    2.17    0.15
  -4  -3 -18    4.02    0.20
  -5  -3 -18   -0.01    0.05
  -6  -3 -18    1.21    0.09
   9  -4 -18    1.68    0.15
  -9   4  18    1.49    0.16
   8  -4 -18    0.51    0.13
  -8   4  18    0.57    0.12
   7  -4 -18    2.08    0.17
  -7   4  18    2.17    0.17
   6  -4 -18   15.42    0.61
  -6   4  18   14.76    0.61
   5  -4 -18    0.36    0.10
   5  -4 -18    0.39    0.09
  -5   4  18    0.32    0.09
   4  -4 -18    1.58    0.15
   4  -4 -18    1.59    0.18
  -4   4  18    1.47    0.15
   3  -4 -18    4.41    0.25
   3  -4 -18    4.94    0.25
  -3   4  18    4.36    0.25
   2  -4 -18    0.60    0.14
   2  -4 -18    0.33    0.09
  -2   4  18    0.24    0.09
   1  -4 -18   -0.11    0.08
   1  -4 -18    0.03    0.08
  -1   4  18   -0.08    0.08
   0  -4 -18    0.37    0.10
   0  -4 -18    0.28    0.08
   0   4  18    0.31    0.10
  -1  -4 -18    0.34    0.10
  -1  -4 -18    0.13    0.07
   1   4  18    0.52    0.12
  -2  -4 -18    0.17    0.11
  -3  -4 -18    2.33    0.15
  -4  -4 -18    0.01    0.05
  -5  -4 -18    0.05    0.04
   9  -5 -18    0.09    0.08
  -9   5  18    0.09    0.08
   8  -5 -18    0.12    0.08
  -8   5  18    0.27    0.07
   7  -5 -18    1.11    0.14
  -7   5  18    1.27    0.14
   6  -5 -18    4.64    0.24
  -6   5  18    4.03    0.24
   5  -5 -18    0.09    0.07
  -5   5  18    0.13    0.07
   4  -5 -18   -0.01    0.07
   4  -5 -18    0.15    0.10
  -4   5  18    0.06    0.08
   3  -5 -18   24.15    0.91
   3  -5 -18   23.48    0.90
  -3   5  18   22.45    0.91
   2  -5 -18    0.14    0.08
   2  -5 -18    0.19    0.08
  -2   5  18    0.01    0.09
   1  -5 -18    0.70    0.14
   1  -5 -18    0.66    0.13
  -1   5  18    0.73    0.15
   0  -5 -18   25.01    0.95
   0  -5 -18   24.98    0.94
   0   5  18   23.70    0.95
  -1  -5 -18    5.91    0.30
  -1  -5 -18    6.36    0.29
  -2  -5 -18    0.59    0.11
  -2  -5 -18    0.85    0.16
  -3  -5 -18    0.07    0.05
  -4  -5 -18    0.71    0.09
  -5  -5 -18    0.05    0.04
   9  -6 -18    2.17    0.19
  -9   6  18    2.11    0.16
   8  -6 -18    0.04    0.07
  -8   6  18    0.09    0.07
   7  -6 -18    0.98    0.14
  -7   6  18    1.14    0.13
  -6   6  18   32.35    1.22
   5  -6 -18    0.11    0.07
  -5   6  18   -0.02    0.07
   4  -6 -18    0.02    0.07
   4  -6 -18    0.11    0.12
  -4   6  18   -0.11    0.08
   3  -6 -18   18.55    0.72
   3  -6 -18   18.96    0.73
  -3   6  18   17.65    0.73
   2  -6 -18    0.87    0.14
   2  -6 -18    0.79    0.13
  -2   6  18    0.82    0.14
   1  -6 -18    0.58    0.13
   1  -6 -18    0.49    0.13
  -1   6  18    0.35    0.10
   0   6  18    1.59    0.21
  -1  -6 -18    0.90    0.12
  -1  -6 -18    0.58    0.13
  -2  -6 -18    3.96    0.23
  -2  -6 -18    4.19    0.21
  -3  -6 -18    0.41    0.09
  -4  -6 -18    2.94    0.15
   9  -7 -18    1.36    0.23
  -9   7  18    1.01    0.13
   8  -7 -18    0.13    0.08
  -8   7  18    0.12    0.07
   7  -7 -18    1.37    0.14
  -7   7  18    1.36    0.14
   6  -7 -18    7.36    0.33
  -6   7  18    7.43    0.34
  -5   7  18    0.46    0.10
   4  -7 -18    0.67    0.12
  -4   7  18    0.97    0.14
   3  -7 -18    6.45    0.32
   3  -7 -18    6.60    0.31
  -3   7  18    6.78    0.32
   2  -7 -18    5.18    0.25
   2  -7 -18    4.23    0.25
  -2   7  18    4.70    0.26
   1  -7 -18    0.78    0.14
   1  -7 -18    0.54    0.13
  -1   7  18    0.64    0.13
   0  -7 -18    6.69    0.31
   0  -7 -18    7.02    0.31
  -1  -7 -18    7.21    0.33
  -1  -7 -18    7.71    0.32
  -2  -7 -18    0.01    0.08
  -2  -7 -18    0.08    0.05
  -3  -7 -18    4.84    0.21
  -4  -7 -18    1.51    0.10
  -9   8  18    2.74    0.17
   8  -8 -18    1.45    0.14
  -8   8  18    1.35    0.14
   7  -8 -18    0.59    0.12
  -7   8  18    0.71    0.12
   6  -8 -18   20.55    0.78
  -6   8  18   19.60    0.78
   5  -8 -18    0.22    0.07
  -5   8  18    0.09    0.08
   4  -8 -18    2.17    0.15
  -4   8  18    1.96    0.18
   3  -8 -18    0.90    0.12
  -3   8  18    0.66    0.11
   2  -8 -18    0.07    0.07
   2  -8 -18    0.24    0.10
  -2   8  18    0.10    0.11
   1  -8 -18    1.05    0.13
   1  -8 -18    0.92    0.14
   0  -8 -18   21.55    0.82
   0  -8 -18   21.17    0.81
  -1  -8 -18    1.61    0.13
  -1  -8 -18    1.75    0.14
  -2  -8 -18    0.95    0.13
  -2  -8 -18    0.78    0.10
  -3  -8 -18    2.90    0.15
   8  -9 -18    0.05    0.09
  -8   9  18    0.09    0.08
   7  -9 -18    0.54    0.11
  -7   9  18    0.21    0.08
   6  -9 -18    6.48    0.29
  -6   9  18    6.59    0.30
   5  -9 -18    0.10    0.06
  -5   9  18    0.06    0.08
   4  -9 -18    0.25    0.07
  -4   9  18    0.24    0.10
   3  -9 -18    2.12    0.15
  -3   9  18    2.43    0.20
   2  -9 -18    0.11    0.06
   1  -9 -18    0.26    0.07
   1  -9 -18    0.40    0.10
   0  -9 -18    1.12    0.11
   0  -9 -18    1.03    0.14
  -1  -9 -18    0.28    0.07
  -1  -9 -18    0.26    0.07
  -2  -9 -18   -0.07    0.08
  -2  -9 -18    0.09    0.06
   7 -10 -18    0.01    0.07
  -7  10  18   -0.02    0.08
   6 -10 -18    0.21    0.06
  -6  10  18    0.21    0.09
   5 -10 -18    0.12    0.06
  -5  10  18    0.22    0.10
   4 -10 -18    0.40    0.10
  -4  10  18    0.31    0.12
   3 -10 -18    8.48    0.36
   2 -10 -18    0.04    0.06
   1 -10 -18    0.20    0.06
   0 -10 -18    9.67    0.39
  -1 -10 -18    2.26    0.14
   6 -11 -18    6.95    0.29
   5 -11 -18    0.04    0.05
   4 -11 -18    0.24    0.06
   3 -11 -18    4.76    0.22
   2 -11 -18    1.32    0.10
   1 -11 -18    0.54    0.08
   0 -11 -18    0.40    0.08
   5 -12 -18    0.06    0.05
   4 -12 -18    0.36    0.08
   3 -12 -18    0.92    0.09
   2 -12 -18    0.08    0.05
   1 -12 -18    0.40    0.07
   5  13 -19    0.48    0.08
   4  13 -19   -0.03    0.08
   3  13 -19    0.24    0.12
   6  12 -19    0.54    0.11
   6  12 -19    0.66    0.09
   5  12 -19    0.03    0.08
   5  12 -19    0.18    0.08
   4  12 -19    0.10    0.10
   4  12 -19    0.07    0.07
   3  12 -19    0.09    0.07
   2  12 -19    0.29    0.09
  -2  12 -19    1.61    0.17
  -3  12 -19    0.07    0.10
   7  11 -19    0.11    0.06
   7  11 -19    0.09    0.05
   6  11 -19    0.17    0.07
   6  11 -19    0.45    0.08
   5  11 -19   12.25    0.49
   5  11 -19   12.18    0.48
   4  11 -19    0.08    0.07
   4  11 -19    0.12    0.09
   3  11 -19    0.28    0.07
   3  11 -19    0.26    0.12
   2  11 -19    4.82    0.24
   1  11 -19    0.48    0.10
   0  11 -19    0.32    0.11
  -1  11 -19    2.18    0.18
  -2  11 -19    1.10    0.15
  -3  11 -19    0.05    0.09
  -4  11 -19    0.27    0.09
   8  10 -19    0.12    0.05
   7  10 -19    0.72    0.09
   7  10 -19    0.99    0.10
   6  10 -19    0.53    0.09
   6  10 -19    0.81    0.12
   5  10 -19    0.50    0.09
   5  10 -19    0.48    0.10
   4  10 -19    0.01    0.09
   4  10 -19    0.03    0.06
   3  10 -19    0.13    0.11
   3  10 -19   -0.09    0.07
   2  10 -19    0.20    0.08
   1  10 -19    4.64    0.24
   0  10 -19    0.49    0.10
   0  10 -19    0.38    0.09
  -1  10 -19    0.17    0.09
  -2  10 -19   -0.04    0.08
  -3  10 -19    0.35    0.09
  -4  10 -19    1.23    0.14
   8   9 -19    4.21    0.23
   7   9 -19    0.17    0.06
   7   9 -19    0.14    0.05
   6   9 -19    0.15    0.07
   6   9 -19    0.23    0.06
   5   9 -19    9.77    0.41
   5   9 -19    9.93    0.42
   4   9 -19    0.67    0.12
   4   9 -19    0.78    0.16
   3   9 -19    0.40    0.12
   3   9 -19    0.73    0.14
   1   9 -19    2.12    0.25
   0   9 -19    0.13    0.09
   0   9 -19    0.23    0.09
  -1   9 -19    1.73    0.17
  -1   9 -19    1.53    0.18
  -2   9 -19    0.06    0.08
  -3   9 -19    0.20    0.08
  -4   9 -19   -0.02    0.08
  -5   9 -19    0.07    0.09
   9   8 -19    0.01    0.05
   9   8 -19   -0.07    0.05
   8   8 -19    4.24    0.20
   8   8 -19    3.98    0.19
   7   8 -19    0.05    0.05
   7   8 -19    0.02    0.07
   6   8 -19    2.94    0.17
   6   8 -19    3.38    0.20
   5   8 -19    0.17    0.07
   5   8 -19    0.09    0.09
   4   8 -19    0.22    0.14
   4   8 -19    0.12    0.08
   3   8 -19    2.18    0.27
   3   8 -19    2.36    0.16
   2   8 -19   31.53    1.19
   1   8 -19    0.14    0.08
   1   8 -19    0.07    0.09
   0   8 -19    0.28    0.09
   0   8 -19    0.35    0.09
  -1   8 -19    2.35    0.19
  -1   8 -19    2.67    0.19
  -2   8 -19    0.17    0.10
  -2   8 -19    0.11    0.08
  -3   8 -19    0.39    0.09
  -4   8 -19    1.93    0.16
  -5   8 -19    0.14    0.09
   9   7 -19    6.79    0.28
   8   7 -19    3.39    0.17
   8   7 -19    3.48    0.19
   7   7 -19    0.11    0.06
   7   7 -19    0.15    0.08
   6   7 -19    0.44    0.10
   6   7 -19    0.57    0.14
   5   7 -19    0.46    0.11
   4   7 -19    0.11    0.10
   4   7 -19    0.25    0.07
  -4  -7  19    0.28    0.12
   3   7 -19    0.64    0.13
   3   7 -19    1.01    0.19
   2   7 -19    8.40    0.36
   2   7 -19    7.74    0.39
   1   7 -19    0.17    0.08
   1   7 -19   -0.02    0.07
   0   7 -19    0.86    0.15
   0   7 -19    0.99    0.14
  -1   7 -19    0.13    0.09
  -1   7 -19    0.06    0.08
  -2   7 -19    2.41    0.18
  -2   7 -19    2.45    0.18
  -3   7 -19   -0.09    0.10
  -3   7 -19   -0.07    0.08
  -5   7 -19    0.22    0.09
   9   6 -19    0.02    0.05
   9   6 -19    0.10    0.06
   8   6 -19    0.06    0.07
   8   6 -19    0.04    0.05
   7   6 -19    0.90    0.13
   7   6 -19    0.63    0.11
   6   6 -19    0.73    0.16
   5   6 -19    1.14    0.16
   5   6 -19    0.70    0.12
   4   6 -19   -0.18    0.09
   4   6 -19    0.16    0.08
  -4  -6  19    0.09    0.10
   3   6 -19    0.05    0.10
   3   6 -19    0.14    0.07
   2   6 -19    5.47    0.31
   2   6 -19    5.51    0.27
   1   6 -19    2.06    0.16
   1   6 -19    1.67    0.16
   0   6 -19    0.45    0.09
  -1   6 -19    1.72    0.17
  -1   6 -19    2.25    0.17
  -2   6 -19    5.71    0.29
  -3   6 -19    0.82    0.14
  -3   6 -19    0.93    0.15
  -4   6 -19    5.34    0.27
  -5   6 -19    0.70    0.13
  10   5 -19    0.83    0.10
   9   5 -19    0.92    0.11
   9   5 -19    0.73    0.10
   8   5 -19    2.68    0.16
   8   5 -19    2.45    0.17
   7   5 -19    0.27    0.07
   7   5 -19    0.46    0.12
   6   5 -19   -0.01    0.07
   6   5 -19    0.09    0.08
   5   5 -19    7.87    0.36
   5   5 -19    7.76    0.34
  -5  -5  19    7.07    0.35
   4   5 -19    0.13    0.07
   4   5 -19    0.08    0.09
  -4  -5  19    0.06    0.09
   3   5 -19    0.15    0.10
   3   5 -19    0.16    0.07
   2   5 -19    1.85    0.16
   2   5 -19    2.02    0.22
   1   5 -19    0.62    0.15
   0   5 -19    0.28    0.08
   0   5 -19    0.52    0.10
  -1   5 -19    0.69    0.14
  -1   5 -19    0.95    0.15
  -2   5 -19    1.13    0.15
  -2   5 -19    1.13    0.15
  -3   5 -19    0.49    0.13
  -3   5 -19    0.51    0.10
  -4   5 -19    0.10    0.09
  -4   5 -19    0.09    0.09
  -5   5 -19    0.20    0.09
  10   4 -19    0.36    0.10
   9   4 -19   -0.01    0.06
   9   4 -19    0.08    0.07
   8   4 -19    2.50    0.17
   8   4 -19    2.14    0.15
   7   4 -19    0.00    0.07
   7   4 -19    0.01    0.06
   6   4 -19    0.40    0.08
   6   4 -19    0.38    0.09
  -6  -4  19    0.14    0.12
   5   4 -19   14.52    0.58
   5   4 -19   14.01    0.56
  -5  -4  19   12.88    0.56
   4   4 -19    1.08    0.14
   4   4 -19    0.97    0.16
  -4  -4  19    1.03    0.14
   3   4 -19    0.02    0.07
   3   4 -19    0.11    0.10
   2   4 -19   32.68    1.23
   2   4 -19   31.84    1.22
   1   4 -19    1.27    0.15
   1   4 -19    1.52    0.23
   0   4 -19    0.02    0.07
   0   4 -19   -0.03    0.07
  -1   4 -19    1.29    0.14
  -1   4 -19    1.50    0.15
  -2   4 -19    0.23    0.09
  -2   4 -19    0.33    0.09
  -3   4 -19    0.05    0.08
  -3   4 -19    0.02    0.08
  -4   4 -19    1.17    0.14
  -4   4 -19    1.21    0.14
  10   3 -19    0.46    0.10
   9   3 -19    0.28    0.07
   9   3 -19    0.32    0.07
   8   3 -19   12.77    0.51
   8   3 -19   12.77    0.52
   7   3 -19    0.08    0.11
   6   3 -19    0.41    0.09
   6   3 -19    0.39    0.08
  -6  -3  19    0.51    0.11
   5   3 -19    2.15    0.16
   5   3 -19    2.13    0.18
  -5  -3  19    2.07    0.18
   4   3 -19    0.37    0.10
   4   3 -19    0.40    0.08
  -4  -3  19    0.32    0.09
   3   3 -19    2.55    0.21
   3   3 -19    2.69    0.18
   2   3 -19    0.12    0.07
   2   3 -19    0.10    0.11
   1   3 -19    0.06    0.07
   1   3 -19    0.02    0.12
   0   3 -19    1.09    0.14
  -1   3 -19    0.78    0.13
  -1   3 -19    0.54    0.13
  -2   3 -19    1.73    0.16
  -3   3 -19    0.54    0.13
  -3   3 -19    0.57    0.13
  -4   3 -19    0.09    0.07
  -5   3 -19   11.97    0.47
  10   2 -19    0.26    0.11
   9   2 -19    0.88    0.13
   9   2 -19    0.85    0.12
   8   2 -19   -0.02    0.07
   8   2 -19    0.08    0.07
   7   2 -19    0.30    0.08
  -7  -2  19    0.29    0.11
   6   2 -19    2.23    0.16
   6   2 -19    2.20    0.18
  -6  -2  19    2.47    0.18
   5   2 -19    0.43    0.10
   5   2 -19    0.72    0.13
  -5  -2  19    0.63    0.13
   4   2 -19    2.61    0.17
   4   2 -19    2.34    0.20
  -4  -2  19    2.49    0.18
   3   2 -19    4.46    0.24
   3   2 -19    4.25    0.26
   2   2 -19    3.18    0.20
   2   2 -19    3.49    0.24
   1   2 -19    0.30    0.12
   1   2 -19    0.19    0.07
   0   2 -19   -0.01    0.08
  -1   2 -19    0.18    0.07
  -2   2 -19    3.00    0.18
  -3   2 -19    0.06    0.07
  -4   2 -19   12.59    0.50
  -5   2 -19    3.63    0.19
   9   1 -19    0.10    0.07
   9   1 -19    0.01    0.10
   8   1 -19    0.00    0.07
   8   1 -19    0.15    0.08
   7   1 -19   -0.02    0.07
  -7  -1  19    0.11    0.09
   6   1 -19    0.92    0.14
   6   1 -19    1.04    0.14
  -6  -1  19    1.03    0.15
   5   1 -19   40.25    1.50
   5   1 -19   42.23    1.52
  -5  -1  19   38.15    1.51
   4   1 -19    0.10    0.09
   4   1 -19   -0.01    0.07
  -4  -1  19    0.12    0.08
   3   1 -19   -0.01    0.07
   3   1 -19   -0.03    0.09
   2   1 -19   11.96    0.51
   2   1 -19   11.58    0.49
   1   1 -19    1.35    0.19
   1   1 -19    1.49    0.14
   0   1 -19    1.25    0.21
   0   1 -19    1.23    0.14
  -1   1 -19   32.33    1.22
  -2   1 -19    6.27    0.29
  -3   1 -19    0.79    0.11
  -4   1 -19    0.66    0.11
  -5   1 -19    5.83    0.25
  10   0 -19    0.14    0.11
   9   0 -19    2.36    0.17
   8   0 -19    0.02    0.09
   8   0 -19    0.08    0.07
  -8   0  19   -0.06    0.13
   7   0 -19    0.75    0.15
   7   0 -19    1.26    0.14
  -7   0  19    0.94    0.15
   6   0 -19    0.70    0.14
   6   0 -19    0.75    0.14
  -6   0  19    0.54    0.14
   5   0 -19   51.43    1.84
   5   0 -19   51.13    1.82
  -5   0  19   45.04    1.83
   4   0 -19    0.21    0.08
   4   0 -19    0.02    0.09
  -4   0  19    0.13    0.07
   3   0 -19    1.11    0.15
   3   0 -19    1.26    0.17
  -3   0  19    1.50    0.15
   2   0 -19    1.50    0.17
   2   0 -19    0.98    0.13
   1   0 -19    0.58    0.12
   1   0 -19    1.00    0.13
   0   0 -19    0.21    0.12
   0   0 -19    0.67    0.12
  -1   0 -19    1.41    0.14
  -2   0 -19    0.24    0.08
  -3   0 -19    0.04    0.06
  -4   0 -19    0.46    0.10
  -5   0 -19    0.51    0.10
  -6   0 -19   -0.05    0.07
  10  -1 -19    0.04    0.08
   9  -1 -19    0.04    0.07
   8  -1 -19   11.40    0.50
   8  -1 -19   11.20    0.46
  -8   1  19   10.88    0.47
   7  -1 -19    0.31    0.09
   7  -1 -19    0.33    0.09
  -7   1  19    0.26    0.09
   6  -1 -19    0.60    0.14
   6  -1 -19    0.93    0.15
  -6   1  19    0.93    0.13
   5  -1 -19    3.77    0.21
   5  -1 -19    3.12    0.21
  -5   1  19    3.43    0.21
   4  -1 -19    1.14    0.15
   4  -1 -19    0.87    0.15
  -4   1  19    0.99    0.14
   3  -1 -19    0.10    0.09
   3  -1 -19    0.11    0.08
  -3   1  19    0.13    0.08
   2  -1 -19    3.30    0.22
   2  -1 -19    3.68    0.21
  -2   1  19    3.29    0.21
   1  -1 -19    0.84    0.13
   1  -1 -19    0.80    0.16
   0  -1 -19    0.64    0.12
   0  -1 -19    0.55    0.12
  -1  -1 -19    0.21    0.07
  -2  -1 -19    0.03    0.07
  -3  -1 -19    0.08    0.06
   3   1  19   -0.02    0.13
  -4  -1 -19    4.82    0.22
  -5  -1 -19    0.66    0.09
  -6  -1 -19   -0.09    0.07
  10  -2 -19    0.24    0.09
  -9   2  19    0.40    0.12
   8  -2 -19    4.43    0.23
  -8   2  19    4.19    0.24
   7  -2 -19    0.08    0.10
  -7   2  19    0.08    0.08
   6  -2 -19    1.30    0.17
   6  -2 -19    1.25    0.15
  -6   2  19    1.83    0.15
   5  -2 -19    0.24    0.08
   5  -2 -19    0.51    0.13
  -5   2  19    0.31    0.09
   4  -2 -19    0.39    0.10
   4  -2 -19    0.41    0.09
  -4   2  19    0.45    0.12
   3  -2 -19    2.02    0.17
   3  -2 -19    2.03    0.17
  -3   2  19    1.99    0.17
   2  -2 -19    1.30    0.14
   2  -2 -19    1.65    0.16
  -2   2  19    1.25    0.15
   1  -2 -19    0.61    0.13
   1  -2 -19    0.62    0.15
  -1   2  19    0.68    0.14
   0  -2 -19    2.50    0.17
   0  -2 -19    2.22    0.20
   0   2  19    2.35    0.18
  -1  -2 -19   18.52    0.70
   1   2  19   16.81    0.70
   2   2  19    1.49    0.20
  -3  -2 -19   -0.07    0.05
  -4  -2 -19    0.20    0.06
  -5  -2 -19    5.33    0.23
  10  -3 -19    1.66    0.17
   9  -3 -19    2.23    0.16
  -9   3  19    2.70    0.19
   8  -3 -19    3.88    0.21
  -8   3  19    3.69    0.21
   7  -3 -19    0.28    0.08
  -7   3  19    0.10    0.08
   6  -3 -19    1.07    0.14
  -6   3  19    1.35    0.15
   5  -3 -19    9.75    0.40
   5  -3 -19    9.47    0.41
  -5   3  19    8.59    0.41
   4  -3 -19    0.85    0.13
   4  -3 -19    0.82    0.15
  -4   3  19    0.70    0.13
   3  -3 -19    0.21    0.09
   3  -3 -19    0.33    0.08
  -3   3  19    0.17    0.08
   2  -3 -19    1.40    0.14
   2  -3 -19    1.42    0.16
  -2   3  19    1.20    0.15
   1  -3 -19    0.02    0.07
   1  -3 -19   -0.03    0.08
  -1   3  19    0.20    0.09
   0  -3 -19    0.11    0.09
   0  -3 -19    0.16    0.07
   0   3  19    0.11    0.09
  -1  -3 -19    0.80    0.12
  -1  -3 -19    0.53    0.11
   1   3  19    0.39    0.11
  -2  -3 -19    2.40    0.16
  -3  -3 -19    1.04    0.11
  -4  -3 -19    4.91    0.22
  -5  -3 -19    0.86    0.08
   9  -4 -19    5.25    0.25
  -9   4  19    5.54    0.27
   8  -4 -19    2.67    0.17
  -8   4  19    2.14    0.22
   7  -4 -19   -0.04    0.07
  -7   4  19   -0.02    0.08
   6  -4 -19    1.20    0.14
  -6   4  19    0.87    0.13
   5  -4 -19    4.68    0.27
   5  -4 -19    4.66    0.25
  -5   4  19    4.70    0.25
   4  -4 -19    2.04    0.17
   4  -4 -19    2.38    0.18
  -4   4  19    2.63    0.18
   3  -4 -19   -0.01    0.07
   3  -4 -19    0.15    0.08
  -3   4  19   -0.01    0.08
   2  -4 -19    2.33    0.17
   2  -4 -19    2.46    0.18
  -2   4  19    2.33    0.18
   1  -4 -19    0.23    0.08
   1  -4 -19    0.40    0.09
  -1   4  19    0.26    0.10
   0  -4 -19    0.01    0.06
   0   4  19   -0.10    0.09
  -1  -4 -19    1.33    0.13
  -1  -4 -19    1.22    0.17
   1   4  19    1.49    0.21
  -2  -4 -19    3.42    0.19
  -3  -4 -19   -0.11    0.05
  -4  -4 -19    4.04    0.19
  -5  -4 -19   -0.05    0.04
   9  -5 -19    0.31    0.09
  -9   5  19    0.15    0.09
   8  -5 -19    4.44    0.22
  -8   5  19    4.26    0.23
   7  -5 -19    0.00    0.07
  -7   5  19   -0.05    0.07
   6  -5 -19    0.02    0.07
  -6   5  19    0.14    0.08
   5  -5 -19    3.91    0.21
  -5   5  19    3.50    0.22
   4  -5 -19    0.70    0.13
  -4   5  19    0.80    0.14
   3  -5 -19    0.13    0.07
   3  -5 -19    0.24    0.09
  -3   5  19    0.19    0.09
   2  -5 -19    2.32    0.17
   2  -5 -19    2.24    0.17
  -2   5  19    2.13    0.18
   1  -5 -19    0.92    0.14
   1  -5 -19    0.68    0.13
  -1   5  19    0.57    0.11
   0  -5 -19    0.02    0.08
   0  -5 -19    0.00    0.07
   0   5  19    0.15    0.11
  -1  -5 -19   11.54    0.48
  -1  -5 -19   11.84    0.47
  -2  -5 -19    3.96    0.20
  -3  -5 -19    1.75    0.12
  -4  -5 -19    2.22    0.12
   9  -6 -19    0.12    0.08
  -9   6  19    0.00    0.08
   8  -6 -19    2.02    0.14
  -8   6  19    1.66    0.14
   7  -6 -19    0.10    0.07
  -7   6  19    0.15    0.07
   6  -6 -19    0.04    0.07
  -6   6  19    0.06    0.08
   5  -6 -19    0.11    0.07
  -5   6  19    0.11    0.08
   4  -6 -19    0.17    0.14
  -4   6  19    0.16    0.08
   3  -6 -19    0.72    0.15
   3  -6 -19    0.41    0.11
  -3   6  19    0.63    0.14
   2  -6 -19    0.09    0.08
  -2   6  19    0.16    0.09
   1  -6 -19    0.70    0.13
   1  -6 -19    0.92    0.13
  -1   6  19    0.67    0.17
   0  -6 -19    0.07    0.07
   0  -6 -19   -0.06    0.06
  -1  -6 -19   13.07    0.52
  -1  -6 -19   13.04    0.52
  -2  -6 -19    0.21    0.06
  -3  -6 -19    0.11    0.05
  -4  -6 -19    0.33    0.07
   8  -7 -19   23.71    0.89
  -8   7  19   23.62    0.90
   7  -7 -19    0.09    0.06
  -7   7  19    0.06    0.07
   6  -7 -19    0.00    0.06
  -6   7  19   -0.02    0.07
   5  -7 -19    5.29    0.26
  -5   7  19    5.39    0.27
   4  -7 -19    0.06    0.07
  -4   7  19    0.13    0.08
   3  -7 -19    0.74    0.12
   3  -7 -19    0.60    0.11
  -3   7  19    0.46    0.10
   2  -7 -19    3.63    0.21
   2  -7 -19    3.46    0.20
  -2   7  19    3.53    0.23
   1  -7 -19    0.57    0.12
   1  -7 -19    0.59    0.11
  -1   7  19    0.50    0.16
   0  -7 -19    1.31    0.13
   0  -7 -19    1.58    0.13
  -1  -7 -19    0.14    0.06
  -1  -7 -19    0.36    0.08
  -2  -7 -19    0.05    0.05
  -3  -7 -19    0.10    0.05
   8  -8 -19    2.09    0.15
   7  -8 -19    0.03    0.06
  -7   8  19   -0.04    0.07
   6  -8 -19   -0.06    0.06
  -6   8  19    0.00    0.07
   5  -8 -19   12.86    0.50
  -5   8  19   12.09    0.51
   4  -8 -19    0.15    0.06
  -4   8  19    0.28    0.14
   3  -8 -19    0.95    0.12
  -3   8  19    0.71    0.17
   2  -8 -19    5.21    0.27
   2  -8 -19    4.82    0.24
  -2   8  19    4.76    0.29
   1  -8 -19    5.02    0.24
   1  -8 -19    5.15    0.24
   0  -8 -19    0.25    0.07
   0  -8 -19    0.18    0.07
  -1  -8 -19    8.92    0.36
  -2  -8 -19    2.22    0.13
  -7   9  19    0.17    0.07
   6  -9 -19    0.00    0.06
  -6   9  19    0.02    0.08
   5  -9 -19    8.23    0.34
  -5   9  19    7.63    0.35
   4  -9 -19    0.10    0.05
  -4   9  19    0.00    0.10
   3  -9 -19    0.08    0.05
  -3   9  19    0.03    0.13
   2  -9 -19    0.59    0.10
   1  -9 -19    0.09    0.06
   0  -9 -19   -0.04    0.08
   0  -9 -19    0.17    0.06
  -1  -9 -19    0.89    0.11
  -1  -9 -19    0.87    0.12
   7 -10 -19    0.08    0.07
   5 -10 -19    2.94    0.16
   4 -10 -19    0.54    0.09
   3 -10 -19    0.24    0.06
   2 -10 -19    1.30    0.11
   1 -10 -19    2.67    0.14
   0 -10 -19   -0.05    0.05
   6 -11 -19    0.14    0.06
   5 -11 -19    0.08    0.05
   4 -11 -19   -0.03    0.06
   2 -11 -19    0.20    0.05
   1 -11 -19    0.05    0.05
   5  12 -20    0.01    0.06
   5  12 -20    0.12    0.10
   4  12 -20    2.35    0.14
   3  12 -20    0.22    0.08
   2  12 -20    0.13    0.09
   6  11 -20   -0.05    0.05
   6  11 -20    0.08    0.07
   5  11 -20    1.69    0.15
   5  11 -20    1.87    0.12
   4  11 -20   -0.01    0.16
   4  11 -20    0.18    0.06
   3  11 -20   -0.04    0.07
   2  11 -20    0.04    0.08
   1  11 -20    3.79    0.21
  -2  11 -20    0.34    0.09
  -3  11 -20    0.00    0.08
   7  10 -20    0.29    0.06
   7  10 -20    0.19    0.05
   6  10 -20    0.18    0.05
   6  10 -20    0.10    0.07
   5  10 -20    0.12    0.06
   5  10 -20    0.06    0.08
   4  10 -20    0.78    0.15
   4  10 -20    0.43    0.10
   3  10 -20    0.34    0.12
   3  10 -20    0.48    0.11
   2  10 -20    0.55    0.12
   1  10 -20    2.31    0.17
   0  10 -20    1.11    0.16
  -1  10 -20    1.02    0.14
  -2  10 -20    1.19    0.14
  -3  10 -20    0.28    0.09
   8   9 -20    0.90    0.09
   8   9 -20    0.88    0.08
   7   9 -20    0.77    0.10
   7   9 -20    0.79    0.08
   6   9 -20   -0.03    0.06
   6   9 -20    0.01    0.05
   5   9 -20    0.05    0.06
   5   9 -20    0.07    0.08
   4   9 -20    0.53    0.10
   4   9 -20    0.56    0.10
   3   9 -20   -0.02    0.11
   3   9 -20   -0.08    0.06
   2   9 -20    0.20    0.07
   1   9 -20    3.37    0.19
   0   9 -20    0.53    0.13
  -1   9 -20    0.17    0.09
  -1   9 -20    0.28    0.09
  -2   9 -20    3.98    0.24
  -3   9 -20    1.52    0.14
  -4   9 -20    0.27    0.09
   7   8 -20    1.60    0.13
   7   8 -20    1.70    0.11
   6   8 -20    0.64    0.13
   6   8 -20    0.71    0.10
   5   8 -20    0.28    0.09
   5   8 -20    0.52    0.10
   4   8 -20    1.72    0.17
   4   8 -20    1.53    0.14
   3   8 -20    0.26    0.12
   3   8 -20    0.12    0.07
   2   8 -20    0.04    0.07
   1   8 -20    4.48    0.23
   0   8 -20   -0.03    0.08
   0   8 -20   -0.01    0.08
  -1   8 -20    0.90    0.15
  -1   8 -20    0.33    0.09
  -2   8 -20    0.83    0.13
  -2   8 -20    0.86    0.17
  -3   8 -20    1.70    0.15
  -4   8 -20   -0.04    0.07
   9   7 -20    0.09    0.05
   9   7 -20   -0.07    0.05
   8   7 -20    1.26    0.10
   8   7 -20    1.27    0.11
   7   7 -20    0.09    0.06
   7   7 -20    0.22    0.07
   6   7 -20    0.06    0.08
   6   7 -20    0.13    0.06
   5   7 -20    0.08    0.06
   5   7 -20    0.32    0.09
   4   7 -20    0.73    0.11
  -4  -7  20    0.73    0.14
   3   7 -20    1.74    0.20
   3   7 -20    2.39    0.16
   2   7 -20    0.24    0.08
   2   7 -20    0.16    0.13
   1   7 -20   10.01    0.42
   0   7 -20    1.01    0.14
   0   7 -20    1.22    0.19
  -1   7 -20    0.00    0.08
  -1   7 -20   -0.02    0.07
  -2   7 -20    3.86    0.22
  -2   7 -20    3.95    0.22
  -3   7 -20    1.29    0.20
  -4   7 -20    0.04    0.07
   9   6 -20    0.05    0.06
   9   6 -20    0.05    0.05
   8   6 -20    0.91    0.11
   8   6 -20    0.71    0.09
   7   6 -20   15.08    0.59
   7   6 -20   15.23    0.60
   6   6 -20    0.20    0.08
   6   6 -20    0.20    0.07
   5   6 -20    0.90    0.16
   5   6 -20    0.81    0.15
   4   6 -20    0.24    0.08
   4   6 -20    0.17    0.12
  -4  -6  20    0.11    0.10
   3   6 -20    1.02    0.13
   3   6 -20    1.26    0.18
   2   6 -20   -0.06    0.07
   2   6 -20   -0.04    0.12
   1   6 -20    1.16    0.14
   0   6 -20    2.49    0.17
   0   6 -20    2.32    0.18
  -1   6 -20    0.86    0.13
  -1   6 -20    1.06    0.14
  -2   6 -20    1.68    0.15
  -2   6 -20    1.85    0.15
  -3   6 -20    0.33    0.08
  -3   6 -20    0.12    0.07
  -4   6 -20    0.05    0.08
   9   5 -20    0.13    0.06
   9   5 -20    0.17    0.06
   8   5 -20    0.38    0.09
   8   5 -20    0.59    0.11
   7   5 -20    3.82    0.21
   7   5 -20    3.87    0.20
   6   5 -20    0.10    0.07
   6   5 -20   -0.08    0.08
   5   5 -20    0.69    0.17
   5   5 -20    0.49    0.11
  -5  -5  20    0.35    0.11
   4   5 -20    0.58    0.15
   4   5 -20    0.08    0.07
  -4  -5  20    0.23    0.09
   3   5 -20    2.01    0.16
   3   5 -20    2.24    0.20
   2   5 -20    4.27    0.27
   2   5 -20    4.61    0.23
   1   5 -20    6.62    0.31
   0   5 -20    0.18    0.07
  -1   5 -20    0.65    0.13
  -1   5 -20    0.89    0.14
  -2   5 -20    2.44    0.17
  -2   5 -20    2.51    0.17
  -3   5 -20    0.41    0.08
  -3   5 -20    0.46    0.11
   9   4 -20    0.41    0.10
   9   4 -20    0.25    0.10
   8   4 -20    0.43    0.10
   8   4 -20    0.35    0.07
   7   4 -20    4.98    0.25
   7   4 -20    5.18    0.24
   6   4 -20    0.60    0.12
   6   4 -20    0.57    0.13
  -6  -4  20    0.41    0.14
   5   4 -20    0.14    0.07
   5   4 -20    0.18    0.08
  -5  -4  20    0.16    0.09
   4   4 -20    5.80    0.27
   4   4 -20    5.85    0.29
  -4  -4  20    5.19    0.28
   3   4 -20    0.61    0.12
   3   4 -20    0.57    0.12
   2   4 -20    0.00    0.11
   2   4 -20    0.01    0.07
   1   4 -20    0.03    0.13
   1   4 -20    0.04    0.07
   0   4 -20    0.01    0.07
  -1   4 -20    0.20    0.08
  -2   4 -20    5.48    0.26
  -3   4 -20    1.97    0.15
  -4   4 -20    0.20    0.08
  10   3 -20    0.08    0.06
   9   3 -20    0.73    0.11
   8   3 -20    1.40    0.13
   8   3 -20    1.38    0.13
   7   3 -20    0.04    0.07
   7   3 -20    0.08    0.07
  -6  -3  20    0.02    0.10
   5   3 -20    0.26    0.08
   5   3 -20   -0.01    0.08
  -5  -3  20    0.20    0.09
   4   3 -20   21.03    0.79
   4   3 -20   20.10    0.78
  -4  -3  20   18.85    0.78
   3   3 -20    0.00    0.09
   3   3 -20   -0.04    0.06
   2   3 -20    0.54    0.12
   2   3 -20    0.56    0.12
   1   3 -20   12.53    0.51
   1   3 -20   12.20    0.53
   0   3 -20    0.69    0.12
  -1   3 -20    0.02    0.07
  -2   3 -20    0.22    0.07
  -3   3 -20    0.56    0.11
  -4   3 -20   -0.07    0.06
  -5   3 -20    2.31    0.16
  10   2 -20    0.15    0.07
   9   2 -20    0.06    0.08
   9   2 -20    0.07    0.06
   8   2 -20   -0.03    0.07
   8   2 -20    0.11    0.07
   7   2 -20    3.66    0.21
   7   2 -20    3.70    0.20
  -7  -2  20    4.03    0.25
   6   2 -20    0.44    0.09
   6   2 -20    0.39    0.09
  -6  -2  20    0.36    0.10
   5   2 -20   -0.07    0.07
   5   2 -20    0.01    0.07
  -5  -2  20    0.01    0.08
   4   2 -20    0.45    0.10
   4   2 -20    0.49    0.12
  -4  -2  20    0.24    0.08
   3   2 -20    2.30    0.17
   3   2 -20    1.93    0.18
   2   2 -20    0.14    0.07
   2   2 -20    0.08    0.10
   1   2 -20    0.59    0.13
   1   2 -20    0.59    0.12
   0   2 -20    0.32    0.08
  -1   2 -20   -0.05    0.06
  -2   2 -20   19.98    0.77
  -3   2 -20   -0.04    0.06
  -4   2 -20    0.56    0.10
  -5   2 -20    8.23    0.33
  10   1 -20    2.79    0.16
   9   1 -20    0.09    0.06
   8   1 -20    0.71    0.13
   8   1 -20    0.67    0.11
   7   1 -20    0.14    0.07
   7   1 -20    0.11    0.07
  -7  -1  20    0.16    0.10
   6   1 -20    0.09    0.07
   6   1 -20   -0.06    0.09
  -6  -1  20    0.11    0.09
   5   1 -20    2.16    0.16
   5   1 -20    2.49    0.18
  -5  -1  20    2.20    0.18
   4   1 -20    2.29    0.18
   4   1 -20    1.89    0.15
  -4  -1  20    2.01    0.16
   3   1 -20    0.74    0.12
   3   1 -20    0.63    0.16
  -3  -1  20    0.78    0.13
   2   1 -20    0.27    0.10
   2   1 -20    0.14    0.07
   1   1 -20    0.58    0.12
   1   1 -20    0.98    0.18
   0   1 -20    1.70    0.24
   0   1 -20    1.05    0.13
  -1   1 -20    1.27    0.13
  -2   1 -20    1.32    0.12
  -3   1 -20    0.00    0.06
  -4   1 -20    0.31    0.07
  -5   1 -20    0.09    0.06
  10   0 -20   11.01    0.43
   9   0 -20    0.53    0.11
   8   0 -20    5.43    0.27
   8   0 -20    5.34    0.26
  -8   0  20    5.91    0.30
   7   0 -20    1.38    0.15
   7   0 -20    1.41    0.14
  -7   0  20    1.39    0.16
   6   0 -20    1.45    0.15
  -6   0  20    1.48    0.15
   5   0 -20    2.48    0.19
   5   0 -20    2.87    0.17
  -5   0  20    2.54    0.18
   4   0 -20    0.42    0.10
   4   0 -20    0.55    0.12
  -4   0  20    0.32    0.09
   3   0 -20    0.27    0.08
   3   0 -20    0.57    0.14
  -3   0  20    0.34    0.09
   2   0 -20    2.05    0.18
   2   0 -20    2.15    0.15
  -2   0  20    1.81    0.16
   1   0 -20    8.28    0.37
   1   0 -20    8.54    0.39
   0   0 -20    0.18    0.16
   0   0 -20    0.18    0.07
  -1   0 -20    0.66    0.11
  -2   0 -20    0.70    0.11
  -3   0 -20    3.42    0.18
   3   0  20    3.34    0.23
  -4   0 -20   -0.03    0.05
  -5   0 -20    0.21    0.06
  10  -1 -20   11.36    0.45
   9  -1 -20    0.17    0.07
   8  -1 -20    0.94    0.12
  -8   1  20    0.94    0.16
   7  -1 -20    0.65    0.15
   7  -1 -20    0.63    0.12
  -7   1  20    0.60    0.13
   6  -1 -20   -0.01    0.08
   6  -1 -20    0.14    0.08
  -6   1  20    0.12    0.08
   5  -1 -20    0.33    0.09
   5  -1 -20    0.48    0.13
  -5   1  20    0.35    0.09
   4  -1 -20    0.07    0.08
   4  -1 -20    0.21    0.08
  -4   1  20    0.11    0.07
   3  -1 -20    0.88    0.15
   3  -1 -20    0.78    0.13
  -3   1  20    0.64    0.13
   2  -1 -20    2.36    0.18
   2  -1 -20    2.44    0.16
  -2   1  20    2.14    0.18
   1  -1 -20    3.55    0.22
   1  -1 -20    3.73    0.21
  -1   1  20    3.52    0.22
   0  -1 -20    0.07    0.07
   0   1  20    0.21    0.09
   1   1  20   -0.01    0.09
  -2  -1 -20    2.00    0.14
   2   1  20    1.97    0.22
  -3  -1 -20    1.43    0.12
  -4  -1 -20    0.16    0.05
  -5  -1 -20    2.43    0.13
  10  -2 -20   12.54    0.49
   9  -2 -20    1.04    0.12
   8  -2 -20    1.66    0.14
  -8   2  20    1.87    0.16
   7  -2 -20    0.18    0.07
   7  -2 -20    0.28    0.11
  -7   2  20    0.32    0.08
   6  -2 -20    0.47    0.09
  -6   2  20    0.33    0.09
   5  -2 -20    0.42    0.09
   5  -2 -20    0.34    0.08
  -5   2  20    0.39    0.09
   4  -2 -20   12.51    0.50
   4  -2 -20   12.38    0.51
  -4   2  20   11.87    0.52
   3  -2 -20    0.02    0.07
   3  -2 -20    0.10    0.08
  -3   2  20   -0.03    0.07
   2  -2 -20    4.25    0.22
   2  -2 -20    3.82    0.23
  -2   2  20    4.48    0.24
   1  -2 -20    2.19    0.16
   1  -2 -20    2.27    0.18
  -1   2  20    2.17    0.18
   0  -2 -20    3.35    0.22
   0  -2 -20    3.46    0.19
   0   2  20    3.35    0.21
  -1  -2 -20    0.45    0.11
   1   2  20    0.34    0.10
  -2  -2 -20    1.62    0.13
   2   2  20    1.53    0.21
  -3  -2 -20    1.67    0.13
  -4  -2 -20    0.15    0.05
  -5  -2 -20    1.89    0.11
   9  -3 -20    0.09    0.07
   8  -3 -20    0.39    0.08
  -8   3  20    0.62    0.12
   7  -3 -20    0.17    0.07
  -7   3  20    0.39    0.09
   6  -3 -20   -0.04    0.10
   6  -3 -20    0.03    0.07
  -6   3  20   -0.09    0.07
   5  -3 -20    0.64    0.13
   5  -3 -20    0.88    0.13
  -5   3  20    0.57    0.12
   4  -3 -20    0.82    0.14
   4  -3 -20    0.78    0.13
  -4   3  20    0.46    0.12
   3  -3 -20    0.00    0.07
   3  -3 -20   -0.16    0.07
  -3   3  20   -0.01    0.08
   2  -3 -20   -0.07    0.07
   2  -3 -20    0.12    0.08
  -2   3  20    0.07    0.08
   1  -3 -20    0.20    0.07
  -1   3  20    0.10    0.08
   0  -3 -20    0.99    0.19
   0  -3 -20    1.44    0.16
   0   3  20    1.35    0.16
  -1  -3 -20    0.57    0.11
  -1  -3 -20    0.61    0.11
  -2  -3 -20    0.16    0.06
  -3  -3 -20    0.53    0.08
  -4  -3 -20   -0.02    0.04
   9  -4 -20    0.11    0.08
   8  -4 -20    2.92    0.17
  -8   4  20    3.05    0.18
   7  -4 -20   15.55    0.60
  -7   4  20   14.75    0.60
   6  -4 -20    0.47    0.11
  -6   4  20    0.56    0.12
   5  -4 -20    1.38    0.14
   5  -4 -20    1.84    0.18
  -5   4  20    1.89    0.16
   4  -4 -20   25.60    0.94
   4  -4 -20   23.19    0.90
  -4   4  20   22.50    0.92
   3  -4 -20    1.21    0.13
  -3   4  20    1.08    0.14
  -2   4  20    0.07    0.08
   1  -4 -20    0.01    0.07
   1  -4 -20   -0.02    0.07
  -1   4  20   -0.10    0.09
   0  -4 -20    1.53    0.14
   0  -4 -20    1.82    0.16
   0   4  20    1.52    0.19
  -1  -4 -20    0.02    0.06
  -1  -4 -20    0.02    0.09
  -2  -4 -20    0.62    0.09
  -3  -4 -20    0.36    0.08
  -4  -4 -20    0.08    0.05
   9  -5 -20    0.01    0.07
   8  -5 -20    0.04    0.06
  -8   5  20   -0.01    0.07
   7  -5 -20    0.27    0.07
  -7   5  20    0.36    0.08
   6  -5 -20    0.13    0.07
  -6   5  20    0.07    0.08
   5  -5 -20    0.00    0.06
  -5   5  20    0.09    0.08
   4  -5 -20    3.53    0.20
   4  -5 -20    3.51    0.20
  -4   5  20    3.41    0.21
   3  -5 -20    0.02    0.08
   3  -5 -20    0.13    0.07
  -3   5  20    0.04    0.07
   2  -5 -20    1.60    0.14
   2  -5 -20    1.62    0.15
  -2   5  20    1.50    0.15
   1  -5 -20    0.12    0.07
   1  -5 -20    0.09    0.07
  -1   5  20    0.01    0.09
   0  -5 -20    0.15    0.08
   0  -5 -20    0.24    0.07
   0   5  20   -0.05    0.12
  -1  -5 -20    0.67    0.15
  -1  -5 -20    0.89    0.10
  -2  -5 -20   17.82    0.68
  -3  -5 -20    1.51    0.10
   9  -6 -20    0.02    0.10
   8  -6 -20    0.08    0.06
  -8   6  20    0.07    0.07
   7  -6 -20    0.02    0.06
  -7   6  20    0.04    0.07
   6  -6 -20    0.07    0.06
   5  -6 -20    0.11    0.06
  -5   6  20   -0.09    0.07
   4  -6 -20   -0.05    0.06
  -4   6  20   -0.04    0.08
   3  -6 -20   -0.05    0.06
   3  -6 -20   -0.04    0.08
  -3   6  20    0.14    0.08
   2  -6 -20    0.16    0.07
   2  -6 -20    0.01    0.07
  -2   6  20    0.16    0.11
   1  -6 -20   16.19    0.63
   1  -6 -20   16.35    0.63
  -1   6  20   15.85    0.65
   0  -6 -20    1.79    0.14
   0  -6 -20    1.54    0.13
  -1  -6 -20    0.74    0.18
  -1  -6 -20    0.60    0.10
  -2  -6 -20    0.98    0.09
  -3  -6 -20    3.20    0.15
   8  -7 -20    7.08    0.30
  -8   7  20    7.54    0.32
   7  -7 -20    1.49    0.13
  -7   7  20    1.49    0.14
   6  -7 -20    0.02    0.06
  -6   7  20    0.19    0.07
   5  -7 -20    0.48    0.09
  -5   7  20    0.49    0.13
   4  -7 -20    9.40    0.40
  -4   7  20    9.60    0.41
   3  -7 -20    0.09    0.06
  -3   7  20    0.11    0.09
   2  -7 -20    0.06    0.06
   2  -7 -20    0.17    0.08
  -2   7  20    0.15    0.12
   1  -7 -20    2.49    0.16
   1  -7 -20    2.53    0.16
   0  -7 -20    8.41    0.34
   0  -7 -20    8.31    0.35
  -1  -7 -20    1.44    0.14
  -1  -7 -20    1.47    0.11
  -2  -7 -20    0.46    0.08
   8  -8 -20    0.00    0.08
  -7   8  20    2.78    0.17
   6  -8 -20    0.06    0.06
  -6   8  20    0.02    0.07
   5  -8 -20    1.09    0.11
  -5   8  20    1.41    0.15
   4  -8 -20    4.41    0.21
  -4   8  20    4.31    0.23
   3  -8 -20    0.00    0.05
  -3   8  20    0.10    0.11
   2  -8 -20    0.19    0.06
   1  -8 -20    7.95    0.33
   1  -8 -20    7.95    0.33
   0  -8 -20    1.90    0.13
  -1  -8 -20    0.44    0.10
  -1  -8 -20    0.57    0.13
   7  -9 -20    2.14    0.13
   6  -9 -20    0.15    0.09
   5  -9 -20    0.15    0.05
  -5   9  20    0.34    0.14
   4  -9 -20    4.84    0.22
   3  -9 -20    0.45    0.08
   2  -9 -20    0.03    0.05
   1  -9 -20    0.00    0.06
   0  -9 -20    1.29    0.11
   6 -10 -20    0.12    0.06
   5 -10 -20    0.15    0.05
   4 -10 -20    0.22    0.06
   2 -10 -20    0.54    0.08
   1 -10 -20    4.67    0.20
   4  12 -21    0.19    0.07
   3  12 -21    0.79    0.14
   5  11 -21    0.03    0.05
   5  11 -21    0.09    0.10
   4  11 -21    0.07    0.07
   3  11 -21    0.08    0.09
   2  11 -21    0.21    0.10
   6  10 -21    1.29    0.09
   6  10 -21    1.23    0.12
   5  10 -21    0.16    0.05
   5  10 -21    0.15    0.08
   4  10 -21    0.05    0.06
   4  10 -21   -0.03    0.10
   3  10 -21    0.05    0.06
   2  10 -21    0.00    0.07
   1  10 -21    0.31    0.08
   7   9 -21    0.21    0.06
   7   9 -21    0.45    0.07
   6   9 -21    3.40    0.16
   6   9 -21    3.46    0.18
   5   9 -21    0.18    0.08
   5   9 -21    0.09    0.05
   4   9 -21   -0.10    0.09
   4   9 -21    0.07    0.05
   3   9 -21    0.05    0.06
   3   9 -21    0.29    0.14
   2   9 -21   -0.03    0.06
   1   9 -21    0.53    0.11
   0   9 -21    2.53    0.17
   8   8 -21    0.06    0.05
   7   8 -21    1.39    0.10
   7   8 -21    1.36    0.12
   6   8 -21    0.73    0.12
   6   8 -21    0.96    0.10
   5   8 -21   -0.03    0.08
   5   8 -21   -0.04    0.05
   4   8 -21    0.39    0.10
   4   8 -21    0.36    0.07
   3   8 -21    7.29    0.36
   3   8 -21    7.66    0.33
  -3  -8  21    7.70    0.36
   2   8 -21    1.26    0.12
   1   8 -21    2.77    0.17
   0   8 -21   31.14    1.16
  -1   8 -21    0.41    0.09
   8   7 -21   -0.03    0.04
   8   7 -21   -0.06    0.05
   7   7 -21    0.17    0.05
   7   7 -21    0.13    0.06
   6   7 -21   12.82    0.50
   6   7 -21   12.75    0.52
   5   7 -21    0.40    0.09
   5   7 -21    0.31    0.09
   4   7 -21    0.96    0.16
   4   7 -21    1.12    0.12
  -4  -7  21    0.87    0.20
   3   7 -21    3.66    0.24
   3   7 -21    3.53    0.19
   2   7 -21    0.66    0.12
   1   7 -21   -0.05    0.07
   0   7 -21    0.10    0.07
  -1   7 -21    0.92    0.13
  -2   7 -21    0.29    0.09
   8   6 -21    0.08    0.05
   8   6 -21    0.17    0.06
   7   6 -21    2.20    0.15
   7   6 -21    2.17    0.13
   6   6 -21    1.77    0.13
   6   6 -21    1.82    0.15
   5   6 -21    0.28    0.06
   5   6 -21    0.27    0.08
   4   6 -21    0.63    0.15
   4   6 -21    0.64    0.10
  -4  -6  21    0.64    0.15
   3   6 -21    1.58    0.19
   3   6 -21    1.49    0.13
   2   6 -21    0.35    0.13
   2   6 -21    0.74    0.12
   1   6 -21    0.02    0.06
   0   6 -21    3.59    0.20
  -1   6 -21    0.11    0.07
  -2   6 -21    0.57    0.12
  -3   6 -21    0.12    0.13
   9   5 -21    0.26    0.06
   9   5 -21    0.52    0.09
   8   5 -21    0.05    0.05
   8   5 -21    0.01    0.06
   7   5 -21   -0.05    0.05
   7   5 -21   -0.03    0.06
   6   5 -21    0.05    0.07
   6   5 -21   -0.03    0.05
   5   5 -21    0.08    0.06
   5   5 -21    0.07    0.08
  -5  -5  21   -0.01    0.11
   4   5 -21    0.78    0.13
   4   5 -21    0.83    0.15
  -4  -5  21    0.96    0.14
   3   5 -21    1.22    0.13
   3   5 -21    0.96    0.16
   2   5 -21   -0.02    0.11
   2   5 -21    0.20    0.07
   0   5 -21    2.01    0.15
  -1   5 -21    1.86    0.15
  -2   5 -21   -0.04    0.07
  -3   5 -21    0.54    0.12
   9   4 -21    2.84    0.15
   9   4 -21    2.68    0.15
   8   4 -21    0.20    0.07
   8   4 -21    0.24    0.06
   7   4 -21    0.00    0.05
   7   4 -21   -0.10    0.06
   6   4 -21    0.26    0.08
   6   4 -21    0.19    0.06
  -6  -4  21    0.27    0.13
   5   4 -21    0.05    0.06
   5   4 -21    0.02    0.07
  -5  -4  21    0.14    0.09
   4   4 -21    4.37    0.27
   4   4 -21    4.59    0.26
  -4  -4  21    4.06    0.23
   3   4 -21    3.15    0.18
   2   4 -21    0.95    0.18
   2   4 -21    1.02    0.12
   1   4 -21    0.21    0.07
   0   4 -21    1.48    0.17
  -1   4 -21    3.48    0.19
  -2   4 -21    0.11    0.07
  -3   4 -21   -0.02    0.06
  -4   4 -21    0.11    0.07
   9   3 -21    0.72    0.12
   9   3 -21    0.57    0.11
   8   3 -21    0.07    0.06
   8   3 -21    0.14    0.06
   7   3 -21    1.51    0.14
   7   3 -21    1.38    0.13
   6   3 -21    1.74    0.15
   6   3 -21    1.76    0.14
  -6  -3  21    1.44    0.18
   5   3 -21    0.96    0.13
   5   3 -21    0.86    0.13
  -5  -3  21    0.86    0.15
   4   3 -21    0.46    0.08
  -4  -3  21    0.72    0.13
   3   3 -21    6.50    0.29
   3   3 -21    6.48    0.31
  -3  -3  21    5.99    0.30
   2   3 -21    0.04    0.07
   1   3 -21    0.57    0.13
   1   3 -21    0.60    0.11
  -1   3 -21    1.12    0.12
  -2   3 -21    1.34    0.12
  -3   3 -21    0.14    0.06
  -4   3 -21    3.72    0.18
   9   2 -21    2.49    0.21
   9   2 -21    2.30    0.14
   8   2 -21    0.00    0.06
   8   2 -21   -0.02    0.07
   7   2 -21    0.45    0.11
   7   2 -21    0.53    0.11
  -7  -2  21    0.75    0.20
   6   2 -21   32.67    1.21
   6   2 -21   31.76    1.22
  -6  -2  21   32.31    1.22
   5   2 -21   -0.03    0.10
   5   2 -21    0.14    0.10
  -5  -2  21    0.03    0.08
   4   2 -21    0.11    0.09
   4   2 -21    0.12    0.06
  -4  -2  21   -0.02    0.08
   3   2 -21   10.27    0.43
   3   2 -21   10.80    0.45
  -3  -2  21    9.96    0.44
   2   2 -21    4.74    0.24
   2   2 -21    5.12    0.32
   1   2 -21    1.25    0.18
   1   2 -21    0.89    0.12
   0   2 -21    0.23    0.09
  -1   2 -21    1.73    0.14
  -2   2 -21    0.45    0.09
  -3   2 -21    0.57    0.09
  -4   2 -21    0.22    0.09
   9   1 -21    6.40    0.28
   8   1 -21    0.90    0.13
   8   1 -21    1.09    0.12
   7   1 -21    0.97    0.12
   7   1 -21    1.06    0.13
  -7  -1  21    1.47    0.18
   6   1 -21    2.14    0.16
   6   1 -21    2.34    0.15
  -6  -1  21    2.36    0.18
   5   1 -21    0.00    0.11
   5   1 -21    0.17    0.08
  -5  -1  21    0.15    0.08
   4   1 -21    0.94    0.12
   4   1 -21    0.73    0.14
  -4  -1  21    1.06    0.13
   3   1 -21    3.53    0.20
   3   1 -21    3.31    0.21
  -3  -1  21    2.86    0.20
   2   1 -21    1.08    0.17
   2   1 -21    1.06    0.13
  -2  -1  21    0.86    0.13
   1   1 -21    0.38    0.11
   1   1 -21    0.45    0.11
  -1   1 -21    0.03    0.06
  -2   1 -21    1.35    0.12
  -3   1 -21    7.07    0.30
   3  -1  21    7.02    0.34
   9   0 -21    3.25    0.17
   8   0 -21    2.12    0.14
  -8   0  21    2.37    0.21
   7   0 -21    4.36    0.23
   7   0 -21    4.48    0.22
  -7   0  21    4.66    0.24
   6   0 -21    8.46    0.37
   6   0 -21    8.29    0.35
  -6   0  21    8.22    0.37
   5   0 -21    0.36    0.13
   5   0 -21    0.58    0.12
  -5   0  21    0.64    0.13
   4   0 -21    3.50    0.22
   4   0 -21    3.36    0.19
  -4   0  21    3.39    0.21
   3   0 -21   38.64    1.38
   3   0 -21   37.92    1.37
  -3   0  21   33.64    1.38
   2   0 -21    0.01    0.13
   2   0 -21    0.05    0.07
  -2   0  21    0.16    0.08
   1   0 -21    0.01    0.10
   1   0 -21    0.01    0.06
  -1   0  21    0.06    0.08
   0   0 -21    3.99    0.23
   0   0  21    4.10    0.23
  -1   0 -21    0.52    0.10
   1   0  21    0.30    0.09
  -2   0 -21    0.20    0.06
   2   0  21    0.39    0.10
  -3   0 -21    0.90    0.10
  -4   0 -21    0.01    0.07
   9  -1 -21    4.39    0.21
   8  -1 -21    0.03    0.06
  -8   1  21    0.07    0.10
   7  -1 -21    0.37    0.08
   7  -1 -21    0.55    0.13
  -7   1  21    0.63    0.14
   6  -1 -21    1.18    0.13
   6  -1 -21    1.14    0.14
  -6   1  21    0.90    0.14
   5  -1 -21   -0.06    0.07
   5  -1 -21    0.03    0.07
  -5   1  21    0.02    0.07
  -4   1  21    0.20    0.08
   3  -1 -21   28.02    1.05
   3  -1 -21   30.54    1.12
  -3   1  21   25.23    1.06
   2  -1 -21    0.65    0.11
  -2   1  21    0.73    0.13
   1  -1 -21   -0.03    0.09
  -1   1  21    0.18    0.08
   0  -1 -21    9.84    0.44
   0  -1 -21   10.03    0.42
   0   1  21   10.35    0.44
  -1  -1 -21    2.31    0.15
   1   1  21    2.33    0.22
   2   1  21    0.16    0.12
  -3  -1 -21    0.39    0.08
  -4  -1 -21    1.28    0.09
   9  -2 -21    3.71    0.21
   8  -2 -21    0.44    0.10
  -8   2  21    0.28    0.09
   7  -2 -21    2.49    0.17
  -7   2  21    2.79    0.18
   6  -2 -21    4.38    0.23
   6  -2 -21    4.51    0.22
  -6   2  21    4.32    0.23
   5  -2 -21    0.08    0.07
   5  -2 -21    0.13    0.07
  -5   2  21    0.10    0.07
   4  -2 -21   -0.01    0.06
   4  -2 -21    0.16    0.08
  -4   2  21    0.28    0.08
   3  -2 -21   12.48    0.55
   3  -2 -21   13.70    0.57
  -3   2  21   13.58    0.55
   2  -2 -21    1.99    0.20
   2  -2 -21    1.94    0.16
  -2   2  21    1.95    0.16
   1  -2 -21    0.00    0.06
   1  -2 -21    0.08    0.08
  -1   2  21    0.15    0.08
   0  -2 -21    0.12    0.06
   0  -2 -21    0.19    0.10
   0   2  21    0.08    0.09
  -1  -2 -21    1.82    0.13
   1   2  21    1.87    0.18
  -2  -2 -21    1.71    0.12
  -3  -2 -21    6.65    0.28
  -4  -2 -21    0.29    0.07
   9  -3 -21    2.80    0.16
   8  -3 -21    0.30    0.07
  -8   3  21    0.38    0.09
   7  -3 -21    0.03    0.06
  -7   3  21    0.01    0.08
   6  -3 -21   15.40    0.61
   6  -3 -21   16.12    0.63
  -6   3  21   15.72    0.63
   5  -3 -21   -0.02    0.08
   5  -3 -21    0.11    0.07
  -5   3  21    0.02    0.07
   4  -3 -21    0.76    0.12
   4  -3 -21    0.70    0.12
  -4   3  21    0.67    0.13
   3  -3 -21    0.02    0.07
   3  -3 -21    0.04    0.07
  -3   3  21    0.15    0.08
   2  -3 -21    1.26    0.14
   2  -3 -21    1.55    0.13
  -2   3  21    1.48    0.15
   1  -3 -21   -0.04    0.07
   1  -3 -21    0.00    0.06
  -1   3  21    0.11    0.08
   0  -3 -21    5.56    0.27
   0  -3 -21    5.61    0.25
   0   3  21    5.54    0.29
  -1  -3 -21    1.03    0.11
   1   3  21    0.92    0.21
  -2  -3 -21    0.04    0.05
  -3  -3 -21    1.85    0.11
   9  -4 -21    3.54    0.18
   8  -4 -21    0.04    0.06
  -8   4  21    0.11    0.08
   7  -4 -21    1.47    0.12
  -7   4  21    1.49    0.14
   6  -4 -21   18.18    0.69
  -6   4  21   16.88    0.74
   5  -4 -21    0.46    0.11
   5  -4 -21    0.43    0.10
  -5   4  21    0.52    0.11
   4  -4 -21    0.05    0.07
   4  -4 -21    0.15    0.07
  -4   4  21    0.08    0.08
   3  -4 -21    2.16    0.16
   3  -4 -21    2.27    0.16
  -3   4  21    2.17    0.18
   2  -4 -21    0.33    0.07
   2  -4 -21    0.57    0.11
  -2   4  21    0.61    0.13
   1  -4 -21    1.40    0.14
   1  -4 -21    1.34    0.12
  -1   4  21    1.32    0.23
   0  -4 -21    0.22    0.06
   0  -4 -21    0.27    0.08
   0   4  21    0.30    0.12
  -1  -4 -21    1.88    0.12
  -2  -4 -21    0.62    0.08
  -3  -4 -21    4.18    0.18
   8  -5 -21    0.20    0.07
  -8   5  21    0.34    0.09
   7  -5 -21    0.30    0.07
  -7   5  21    0.29    0.07
   6  -5 -21    0.07    0.06
  -6   5  21    0.08    0.08
   5  -5 -21   -0.03    0.06
  -5   5  21    0.06    0.12
   4  -5 -21    0.73    0.14
   4  -5 -21    0.58    0.11
  -4   5  21    0.67    0.13
   3  -5 -21   12.33    0.49
   3  -5 -21   11.94    0.48
  -3   5  21   12.19    0.51
   2  -5 -21    0.00    0.07
   2  -5 -21    0.07    0.06
  -2   5  21    0.02    0.09
   1  -5 -21    0.04    0.06
   1  -5 -21    0.05    0.06
  -1   5  21   -0.08    0.11
   0  -5 -21   13.19    0.51
   0  -5 -21   12.84    0.51
  -1  -5 -21    3.84    0.18
  -2  -5 -21    0.09    0.05
   8  -6 -21    0.33    0.07
   7  -6 -21    1.05    0.10
  -7   6  21    0.93    0.12
   6  -6 -21    0.91    0.10
  -6   6  21    1.05    0.13
   5  -6 -21    0.06    0.06
  -5   6  21    0.15    0.08
   4  -6 -21    0.20    0.06
  -4   6  21    0.18    0.08
   3  -6 -21   18.59    0.74
   3  -6 -21   19.44    0.74
  -3   6  21   19.90    0.75
   2  -6 -21    0.59    0.10
   2  -6 -21    0.91    0.12
  -2   6  21    0.50    0.11
   1  -6 -21    0.12    0.06
   1  -6 -21    0.09    0.06
   0  -6 -21    7.29    0.31
   0  -6 -21    7.75    0.35
  -1  -6 -21    1.72    0.14
  -2  -6 -21    0.04    0.05
   8  -7 -21    0.09    0.07
   7  -7 -21    0.56    0.11
  -7   7  21    0.25    0.10
   6  -7 -21    0.13    0.05
  -6   7  21    0.07    0.07
   5  -7 -21    0.02    0.05
  -5   7  21   -0.03    0.08
   4  -7 -21    0.53    0.09
  -4   7  21    0.59    0.10
   3  -7 -21   16.60    0.64
  -3   7  21   16.75    0.66
   2  -7 -21   -0.06    0.05
   2  -7 -21    0.02    0.09
   1  -7 -21    0.49    0.12
   1  -7 -21    0.46    0.10
   0  -7 -21    1.51    0.13
   0  -7 -21    1.57    0.12
  -1  -7 -21    5.12    0.22
   7  -8 -21   -0.05    0.06
   5  -8 -21    0.27    0.06
   4  -8 -21    0.16    0.05
   3  -8 -21    1.45    0.11
   2  -8 -21    0.04    0.05
   1  -8 -21    1.16    0.10
   0  -8 -21    4.96    0.22
   6  -9 -21    2.22    0.13
   5  -9 -21    0.49    0.08
   4  -9 -21   -0.03    0.05
   3  -9 -21    0.06    0.05
   2  -9 -21    0.03    0.05
   4  11 -22    0.07    0.06
   3  11 -22    0.29    0.07
   2  11 -22    0.69    0.14
   5  10 -22    1.34    0.19
   5  10 -22    1.08    0.09
   3  10 -22    0.47    0.10
   1  10 -22    1.28    0.14
   6   9 -22    0.90    0.11
   6   9 -22    0.92    0.08
   5   9 -22   14.38    0.56
   5   9 -22   14.37    0.55
   4   9 -22    0.05    0.10
   4   9 -22   -0.05    0.05
   3   9 -22    0.15    0.06
   2   9 -22    1.57    0.12
  -2  -9  22    0.86    0.19
   1   9 -22    1.28    0.12
   0   9 -22    0.07    0.13
   7   8 -22   -0.01    0.04
   7   8 -22    0.03    0.06
   6   8 -22   -0.04    0.04
   5   8 -22    8.59    0.36
   5   8 -22    8.16    0.34
   4   8 -22    0.37    0.10
   4   8 -22    0.41    0.08
   3   8 -22    0.97    0.10
  -3  -8  22    0.85    0.15
   2   8 -22    7.92    0.33
   1   8 -22    0.57    0.10
   0   8 -22    0.14    0.07
  -1   8 -22    2.04    0.17
   7   7 -22   -0.02    0.08
   7   7 -22    0.04    0.05
   6   7 -22    0.63    0.11
   6   7 -22    0.53    0.08
   5   7 -22    0.38    0.08
   5   7 -22    0.31    0.08
   4   7 -22    0.21    0.06
   4   7 -22    0.21    0.09
   3   7 -22    1.42    0.19
   3   7 -22    1.36    0.11
  -3  -7  22    1.29    0.17
   2   7 -22    3.04    0.17
   1   7 -22    0.25    0.07
   0   7 -22    0.21    0.07
  -1   7 -22    0.29    0.08
  -2   7 -22    0.61    0.14
   8   6 -22    0.44    0.08
   8   6 -22    0.52    0.08
   7   6 -22   -0.02    0.05
   7   6 -22   -0.01    0.06
   6   6 -22    2.01    0.13
   6   6 -22    1.83    0.15
   5   6 -22    1.50    0.12
   5   6 -22    1.75    0.15
   4   6 -22    0.92    0.10
   4   6 -22    1.01    0.15
  -4  -6  22    1.03    0.16
   3   6 -22    0.08    0.10
   3   6 -22    0.07    0.06
  -3  -6  22   -0.03    0.09
   2   6 -22    0.78    0.11
   1   6 -22    0.07    0.06
   0   6 -22    0.09    0.06
  -1   6 -22    0.63    0.11
  -2   6 -22    1.52    0.13
   8   5 -22    0.33    0.08
   7   5 -22    0.00    0.05
   7   5 -22    0.04    0.06
   6   5 -22   -0.02    0.05
   6   5 -22   -0.01    0.06
   5   5 -22    3.32    0.18
   5   5 -22    3.48    0.20
  -5  -5  22    3.23    0.24
   4   5 -22    0.11    0.08
   4   5 -22    0.12    0.06
  -4  -5  22    0.11    0.10
   3   5 -22    0.98    0.11
   3   5 -22    1.36    0.17
  -3  -5  22    1.09    0.13
   2   5 -22    0.09    0.06
   2   5 -22    0.19    0.13
   1   5 -22    1.21    0.12
   0   5 -22    0.11    0.06
  -1   5 -22    0.09    0.06
  -2   5 -22    1.60    0.12
  -3   5 -22   -0.09    0.07
   8   4 -22    3.59    0.18
   8   4 -22    3.79    0.17
   7   4 -22    0.52    0.10
   7   4 -22    0.55    0.09
   6   4 -22    0.20    0.07
   6   4 -22    0.22    0.06
   5   4 -22   14.99    0.59
   5   4 -22   14.36    0.58
  -5  -4  22   15.32    0.60
   4   4 -22    1.12    0.11
   4   4 -22    0.96    0.14
  -4  -4  22    1.20    0.14
   3   4 -22    0.23    0.09
   3   4 -22    0.09    0.06
  -3  -4  22    0.23    0.08
   2   4 -22   11.95    0.50
   2   4 -22   11.88    0.48
   1   4 -22    2.07    0.14
   0   4 -22    0.01    0.06
  -1   4 -22    2.88    0.16
  -2   4 -22    0.62    0.10
  -3   4 -22    0.49    0.10
   9   3 -22    0.50    0.09
   8   3 -22   -0.01    0.06
   8   3 -22   -0.03    0.06
   7   3 -22    0.78    0.10
   7   3 -22    0.95    0.11
   6   3 -22    0.73    0.12
   6   3 -22    1.00    0.10
  -6  -3  22    0.73    0.18
   5   3 -22    1.36    0.14
   5   3 -22    1.16    0.12
  -5  -3  22    0.95    0.15
   4   3 -22    0.63    0.13
   4   3 -22    0.60    0.11
  -4  -3  22    0.73    0.13
   3   3 -22    0.59    0.14
   3   3 -22    0.63    0.10
  -3  -3  22    0.47    0.12
   2   3 -22    2.29    0.20
   2   3 -22    2.54    0.15
   1   3 -22    0.21    0.06
   0   3 -22    0.34    0.07
  -1   3 -22    1.83    0.13
  -2   3 -22    0.24    0.06
  -3   3 -22    0.20    0.07
   9   2 -22    0.35    0.09
   8   2 -22    0.67    0.11
   8   2 -22    0.48    0.10
   7   2 -22    0.91    0.10
   7   2 -22    0.80    0.11
   6   2 -22    1.97    0.15
   6   2 -22    2.15    0.14
  -6  -2  22    2.07    0.18
   5   2 -22    2.88    0.17
   5   2 -22    3.05    0.18
  -5  -2  22    2.86    0.19
   4   2 -22    0.12    0.08
   4   2 -22   -0.05    0.06
  -4  -2  22   -0.01    0.07
   3   2 -22    1.16    0.15
   3   2 -22    1.25    0.12
  -3  -2  22    1.36    0.14
   2   2 -22    4.38    0.25
   2   2 -22    4.50    0.22
  -2  -2  22    4.41    0.24
   1   2 -22    0.06    0.06
   1   2 -22    0.05    0.12
   0   2 -22    0.41    0.10
  -1   2 -22    2.16    0.14
  -2   2 -22    0.55    0.09
  -3   2 -22    0.16    0.06
  -4   2 -22    0.06    0.07
   9   1 -22    2.24    0.13
   8   1 -22    5.02    0.24
   8   1 -22    5.27    0.24
   7   1 -22    0.22    0.06
   7   1 -22    0.30    0.07
  -7  -1  22    0.43    0.12
   6   1 -22    0.85    0.11
   6   1 -22    0.44    0.11
  -6  -1  22    0.88    0.14
   5   1 -22    4.59    0.23
   5   1 -22    4.21    0.22
  -5  -1  22    4.40    0.23
   4   1 -22   -0.06    0.07
   4   1 -22    0.04    0.06
  -4  -1  22    0.07    0.07
   3   1 -22    0.05    0.06
   3   1 -22    0.11    0.08
  -3  -1  22    0.07    0.07
   2   1 -22    2.23    0.18
   2   1 -22    2.41    0.15
  -2  -1  22    2.26    0.17
   1   1 -22    0.52    0.10
   1   1 -22    0.95    0.17
  -1  -1  22    0.33    0.08
   0   1 -22    0.12    0.06
   0  -1  22    0.22    0.08
  -1   1 -22    0.00    0.05
   1  -1  22    0.20    0.09
  -2   1 -22    4.95    0.23
   2  -1  22    5.47    0.27
  -3   1 -22    0.95    0.09
  -4   1 -22    0.58    0.09
   9   0 -22    0.86    0.10
   8   0 -22    1.22    0.11
   7   0 -22    0.02    0.07
   7   0 -22    0.10    0.06
  -7   0  22   -0.11    0.10
   6   0 -22    1.62    0.13
   6   0 -22    1.65    0.14
  -6   0  22    2.09    0.17
   5   0 -22    0.00    0.07
   5   0 -22    0.25    0.07
  -5   0  22    0.12    0.08
   4   0 -22    0.98    0.13
   4   0 -22    1.04    0.12
  -4   0  22    1.13    0.14
   3   0 -22    0.18    0.06
   3   0 -22    0.22    0.08
  -3   0  22    0.12    0.07
   2   0 -22    8.21    0.35
   2   0 -22    8.35    0.37
  -2   0  22    8.16    0.37
   1   0 -22    0.25    0.07
   1   0 -22    0.49    0.11
  -1   0  22    0.25    0.08
   0   0 -22    0.05    0.05
   0   0  22    0.19    0.09
  -1   0 -22    2.26    0.14
   1   0  22    2.27    0.18
  -2   0 -22    1.76    0.11
   2   0  22    1.52    0.19
  -3   0 -22    0.00    0.05
   9  -1 -22    0.03    0.06
   8  -1 -22   10.57    0.42
   7  -1 -22    0.56    0.14
   7  -1 -22    0.40    0.10
  -7   1  22    0.42    0.10
   6  -1 -22   -0.02    0.06
   6  -1 -22    0.03    0.07
  -6   1  22   -0.07    0.07
   5  -1 -22    9.26    0.40
   5  -1 -22    9.39    0.38
  -5   1  22    9.21    0.40
   4  -1 -22    1.51    0.13
   4  -1 -22    1.57    0.14
  -4   1  22    1.55    0.15
   3  -1 -22    0.03    0.08
   3  -1 -22    0.02    0.06
  -3   1  22   -0.01    0.07
   2  -1 -22    1.07    0.14
   2  -1 -22    1.04    0.12
  -2   1  22    1.08    0.13
   1  -1 -22    0.80    0.16
   1  -1 -22    1.18    0.11
  -1   1  22    1.18    0.14
   0  -1 -22    0.02    0.05
   0   1  22    0.05    0.09
  -1  -1 -22   -0.04    0.05
   1   1  22    0.13    0.10
  -2  -1 -22    0.47    0.08
  -3  -1 -22    0.06    0.05
   9  -2 -22    1.54    0.11
   8  -2 -22    0.04    0.05
   7  -2 -22    0.60    0.10
  -7   2  22    0.61    0.13
   6  -2 -22   -0.03    0.07
   6  -2 -22    0.13    0.06
  -6   2  22   -0.10    0.07
   5  -2 -22    0.00    0.06
   5  -2 -22    0.12    0.07
  -5   2  22    0.00    0.07
   4  -2 -22    0.47    0.11
   4  -2 -22    0.40    0.11
  -4   2  22    0.56    0.12
   3  -2 -22    0.07    0.07
   3  -2 -22    0.07    0.06
  -3   2  22    0.04    0.07
   2  -2 -22    0.80    0.11
   2  -2 -22    1.09    0.13
  -2   2  22    1.09    0.13
   1  -2 -22    0.20    0.06
   1  -2 -22    0.06    0.08
   0  -2 -22    0.18    0.05
   0   2  22    0.19    0.09
  -1  -2 -22    7.54    0.30
   1   2  22    6.78    0.35
  -2  -2 -22    0.15    0.05
  -3  -2 -22    0.14    0.05
   8  -3 -22    0.06    0.06
   7  -3 -22    0.17    0.06
  -7   3  22    0.00    0.08
   6  -3 -22    0.12    0.06
  -6   3  22    0.17    0.08
   5  -3 -22    0.21    0.07
   5  -3 -22    0.36    0.08
  -5   3  22    0.14    0.11
   4  -3 -22    0.68    0.11
   4  -3 -22    0.64    0.11
  -4   3  22    0.91    0.13
   3  -3 -22    0.09    0.07
   3  -3 -22    0.10    0.07
  -3   3  22    0.09    0.08
   2  -3 -22    0.98    0.11
   2  -3 -22    0.83    0.13
   1  -3 -22    0.13    0.06
   1  -3 -22    0.15    0.08
  -1   3  22    0.22    0.09
   0  -3 -22    0.08    0.05
   0   3  22    0.09    0.11
  -1  -3 -22    2.23    0.13
  -2  -3 -22    0.57    0.08
   8  -4 -22    0.14    0.06
   7  -4 -22   -0.07    0.05
  -7   4  22    0.07    0.07
   6  -4 -22   -0.02    0.05
  -6   4  22   -0.02    0.07
   5  -4 -22    2.20    0.14
   5  -4 -22    2.23    0.20
  -5   4  22    2.03    0.16
   4  -4 -22    0.18    0.07
   4  -4 -22    0.20    0.06
  -4   4  22    0.05    0.08
   3  -4 -22    0.57    0.11
   3  -4 -22    0.66    0.11
  -3   4  22    0.69    0.13
   2  -4 -22    6.23    0.27
   2  -4 -22    6.30    0.28
  -2   4  22    6.23    0.30
   1  -4 -22    0.57    0.12
   1  -4 -22    0.77    0.10
  -1   4  22    0.60    0.16
   0  -4 -22    0.05    0.05
   0  -4 -22   -0.10    0.09
  -1  -4 -22    0.58    0.08
  -2  -4 -22    9.07    0.35
   8  -5 -22    0.57    0.09
   7  -5 -22    0.44    0.08
  -7   5  22    0.58    0.12
   6  -5 -22    0.23    0.06
  -6   5  22    0.16    0.08
   5  -5 -22    1.73    0.12
  -5   5  22    1.62    0.15
   4  -5 -22   -0.08    0.05
  -4   5  22    0.17    0.08
   3  -5 -22    0.06    0.07
   3  -5 -22   -0.05    0.06
  -3   5  22    0.02    0.08
   2  -5 -22    3.78    0.20
   2  -5 -22    4.14    0.20
  -2   5  22    4.50    0.24
   1  -5 -22    0.24    0.07
   1  -5 -22    0.10    0.06
   0  -5 -22    2.96    0.15
   0  -5 -22    2.72    0.18
  -1  -5 -22    0.13    0.05
   7  -6 -22    1.26    0.10
   6  -6 -22    0.08    0.05
  -6   6  22   -0.03    0.07
   5  -6 -22    0.10    0.05
  -5   6  22    0.04    0.08
   4  -6 -22    1.58    0.12
  -4   6  22    1.87    0.16
   3  -6 -22    0.20    0.06
  -3   6  22    0.26    0.10
   2  -6 -22    0.08    0.08
   2  -6 -22    0.11    0.06
   1  -6 -22   -0.05    0.06
   1  -6 -22    0.01    0.06
   0  -6 -22   -0.07    0.06
   6  -7 -22    0.36    0.08
   5  -7 -22    3.02    0.15
   4  -7 -22    1.58    0.11
   3  -7 -22    0.26    0.06
   2  -7 -22   11.60    0.46
   1  -7 -22   -0.05    0.06
   5  -8 -22    0.02    0.05
   4  -8 -22    0.51    0.08
   3  -8 -22    0.19    0.05
   2  -8 -22    1.31    0.10
   4  10 -23    3.83    0.17
   3  10 -23    1.01    0.11
   2  10 -23    0.12    0.07
   5   9 -23    0.18    0.05
   4   9 -23    0.21    0.05
   2   9 -23    0.18    0.07
   1   9 -23    5.80    0.25
   6   8 -23    1.00    0.12
   6   8 -23    0.88    0.08
   5   8 -23    0.01    0.04
   5   8 -23    0.01    0.08
   4   8 -23    2.81    0.15
   4   8 -23    2.88    0.20
   3   8 -23    0.18    0.05
   2   8 -23   -0.01    0.05
  -2  -8  23    0.00    0.10
   1   8 -23    0.07    0.06
   0   8 -23    0.10    0.07
   6   7 -23   -0.05    0.05
   6   7 -23    0.13    0.06
   5   7 -23   -0.10    0.12
   5   7 -23    0.06    0.05
   4   7 -23    4.63    0.28
   4   7 -23    5.04    0.22
   3   7 -23    0.42    0.08
  -3  -7  23    0.18    0.11
   2   7 -23    2.30    0.13
  -2  -7  23    2.23    0.17
   1   7 -23    6.41    0.28
   0   7 -23    0.50    0.10
  -1   7 -23    0.08    0.07
   7   6 -23    1.27    0.11
   7   6 -23    1.26    0.09
   6   6 -23    0.16    0.07
   6   6 -23    0.36    0.08
   5   6 -23    0.02    0.05
   5   6 -23    0.00    0.07
   4   6 -23   -0.10    0.08
   4   6 -23    0.00    0.05
  -4  -6  23    0.20    0.12
   3   6 -23    0.37    0.13
   3   6 -23    0.47    0.08
  -3  -6  23    0.39    0.09
   2   6 -23   -0.10    0.05
  -2  -6  23    0.04    0.08
   1   6 -23    2.32    0.14
   0   6 -23    0.66    0.10
  -1   6 -23    0.98    0.12
  -2   6 -23    0.34    0.08
   7   5 -23    0.32    0.06
   6   5 -23    0.47    0.08
   6   5 -23    0.35    0.07
   5   5 -23    0.15    0.05
   5   5 -23    0.22    0.07
   4   5 -23    0.08    0.08
   4   5 -23    0.04    0.05
  -4  -5  23   -0.07    0.09
   3   5 -23    0.26    0.10
   3   5 -23    0.13    0.06
  -3  -5  23    0.06    0.08
   2   5 -23    0.01    0.06
  -2  -5  23    0.03    0.07
   1   5 -23    3.92    0.19
   0   5 -23    0.52    0.09
  -1   5 -23   -0.02    0.05
  -2   5 -23    0.67    0.11
   8   4 -23    2.27    0.13
   8   4 -23    2.10    0.13
   7   4 -23    1.17    0.11
   7   4 -23    1.02    0.12
   6   4 -23    0.00    0.06
   6   4 -23   -0.05    0.05
   5   4 -23    1.17    0.13
   5   4 -23    0.99    0.10
  -5  -4  23    1.20    0.17
   4   4 -23    5.39    0.25
   4   4 -23    5.57    0.27
  -4  -4  23    5.59    0.27
   3   4 -23    0.07    0.09
   3   4 -23    0.10    0.06
  -3  -4  23    0.09    0.08
   2   4 -23    0.71    0.09
   1   4 -23    0.05    0.05
   0   4 -23   -0.04    0.05
  -1   4 -23    0.24    0.06
  -2   4 -23    1.14    0.11
   8   3 -23    0.17    0.07
   8   3 -23    0.06    0.05
   7   3 -23    6.16    0.27
   7   3 -23    6.37    0.27
   6   3 -23    0.11    0.06
   6   3 -23    0.15    0.05
  -6  -3  23    0.25    0.13
   5   3 -23    1.09    0.12
   5   3 -23    1.02    0.10
  -5  -3  23    1.17    0.15
   4   3 -23    0.87    0.11
   4   3 -23    0.91    0.13
  -4  -3  23    0.94    0.13
   3   3 -23    0.51    0.10
   3   3 -23    0.59    0.14
  -3  -3  23    0.48    0.10
   2   3 -23    0.90    0.17
   2   3 -23    0.82    0.10
  -2  -3  23    0.90    0.13
   1   3 -23    0.19    0.06
   0   3 -23    0.25    0.06
  -1   3 -23   -0.01    0.05
  -2   3 -23    0.76    0.09
   2  -3  23    0.98    0.15
  -3   3 -23    0.01    0.06
   8   2 -23    4.75    0.21
   8   2 -23    4.77    0.23
   7   2 -23    2.42    0.15
   7   2 -23    2.63    0.18
   6   2 -23    0.01    0.06
   6   2 -23    0.01    0.06
  -6  -2  23    0.12    0.11
   5   2 -23    1.11    0.10
   5   2 -23    1.22    0.12
  -5  -2  23    1.42    0.15
   4   2 -23    0.14    0.07
   4   2 -23    0.11    0.06
  -4  -2  23    0.36    0.13
   3   2 -23    0.13    0.05
   3   2 -23    0.25    0.08
  -3  -2  23    0.26    0.08
   2   2 -23    1.34    0.11
   2   2 -23    1.35    0.16
  -2  -2  23    1.42    0.14
   1   2 -23    8.07    0.34
  -1  -2  23    7.88    0.44
   0   2 -23    2.60    0.14
   0  -2  23    2.61    0.17
  -1   2 -23    0.04    0.05
   1  -2  23    0.14    0.08
  -2   2 -23    0.33    0.06
  -3   2 -23    0.16    0.05
   8   1 -23    1.59    0.11
   7   1 -23    0.46    0.09
   7   1 -23    0.37    0.08
   6   1 -23    0.44    0.09
   6   1 -23    0.25    0.06
  -6  -1  23    0.35    0.09
   5   1 -23    0.49    0.10
   5   1 -23    0.58    0.09
  -5  -1  23    0.42    0.09
   4   1 -23    0.63    0.11
   4   1 -23    0.57    0.09
  -4  -1  23    0.25    0.10
   3   1 -23    0.28    0.08
   3   1 -23    0.13    0.06
  -3  -1  23    0.15    0.08
   2   1 -23    0.50    0.09
   2   1 -23    0.40    0.10
  -2  -1  23    0.65    0.12
   1   1 -23   -0.04    0.05
  -1  -1  23    0.01    0.07
   0   1 -23    1.29    0.11
   0  -1  23    1.70    0.15
  -1   1 -23    0.55    0.08
   1  -1  23    0.34    0.09
  -2   1 -23    7.20    0.29
  -3   1 -23    0.32    0.08
   8   0 -23    0.46    0.09
   7   0 -23    8.71    0.35
   7   0 -23    8.58    0.35
   6   0 -23    0.25    0.07
   6   0 -23    0.15    0.06
  -6   0  23    0.26    0.08
   5   0 -23   -0.04    0.06
   5   0 -23   -0.01    0.06
  -5   0  23    0.11    0.07
   4   0 -23    1.14    0.11
   4   0 -23    1.31    0.13
  -4   0  23    1.06    0.15
   3   0 -23    0.55    0.09
   3   0 -23    0.33    0.08
  -3   0  23    0.44    0.11
   2   0 -23    0.30    0.08
   2   0 -23    0.11    0.06
   1   0 -23    2.00    0.13
   1   0 -23    1.49    0.20
  -1   0  23    1.77    0.15
   0   0 -23    2.11    0.13
   0   0  23    2.46    0.17
  -1   0 -23    0.02    0.05
   1   0  23    0.13    0.10
  -2   0 -23    0.11    0.05
   8  -1 -23    6.78    0.28
   7  -1 -23    8.18    0.34
   6  -1 -23   -0.07    0.07
   6  -1 -23   -0.07    0.05
  -6   1  23    0.03    0.08
   5  -1 -23    0.48    0.10
   5  -1 -23    0.45    0.10
  -5   1  23    0.46    0.12
   4  -1 -23    0.85    0.11
   4  -1 -23    0.92    0.11
  -4   1  23    0.70    0.12
   3  -1 -23    0.10    0.07
   3  -1 -23    0.09    0.05
  -3   1  23    0.02    0.07
   2  -1 -23    0.31    0.06
   2  -1 -23    0.34    0.08
  -2   1  23    0.27    0.08
   1  -1 -23    0.69    0.16
   1  -1 -23    0.55    0.09
  -1   1  23    0.56    0.13
   0  -1 -23   -0.06    0.05
   0   1  23   -0.10    0.09
  -1  -1 -23    0.82    0.08
  -2  -1 -23    0.05    0.05
   8  -2 -23    0.01    0.05
   7  -2 -23    0.04    0.05
   6  -2 -23    0.00    0.05
   6  -2 -23    0.07    0.09
  -6   2  23    0.07    0.08
   5  -2 -23   -0.03    0.06
   5  -2 -23    0.06    0.07
  -5   2  23   -0.10    0.07
   4  -2 -23    0.29    0.07
   4  -2 -23    0.51    0.10
  -4   2  23    0.22    0.08
   3  -2 -23    0.04    0.05
   3  -2 -23    0.05    0.07
  -3   2  23    0.09    0.08
   2  -2 -23    0.15    0.06
   2  -2 -23    0.21    0.08
  -2   2  23    0.10    0.08
   1  -2 -23    3.65    0.19
  -1   2  23    4.06    0.22
   0  -2 -23    0.17    0.05
   0   2  23    0.06    0.11
  -1  -2 -23    0.04    0.04
  -2  -2 -23    0.12    0.05
   8  -3 -23    0.75    0.09
   7  -3 -23    0.35    0.08
   6  -3 -23    0.05    0.05
  -6   3  23    0.16    0.08
   5  -3 -23    0.13    0.06
   5  -3 -23    0.14    0.09
  -5   3  23    0.06    0.07
   4  -3 -23    0.21    0.07
   4  -3 -23    0.23    0.07
  -4   3  23    0.18    0.08
   3  -3 -23    0.18    0.06
   3  -3 -23    0.15    0.07
  -3   3  23    0.22    0.08
   2  -3 -23    0.00    0.05
   2  -3 -23   -0.03    0.07
  -2   3  23    0.18    0.08
   1  -3 -23    0.85    0.14
   1  -3 -23    1.02    0.09
  -1   3  23    1.04    0.16
   0  -3 -23    0.99    0.09
  -1  -3 -23    0.12    0.05
   7  -4 -23    7.22    0.30
   6  -4 -23    0.15    0.06
  -6   4  23    0.38    0.09
   5  -4 -23    1.92    0.13
  -5   4  23    1.92    0.15
   4  -4 -23    3.40    0.18
   4  -4 -23    3.68    0.19
  -4   4  23    3.60    0.20
   3  -4 -23    1.29    0.11
   3  -4 -23    1.19    0.11
  -3   4  23    1.30    0.14
   2  -4 -23   -0.03    0.06
   2  -4 -23   -0.04    0.06
  -2   4  23    0.02    0.10
   1  -4 -23    0.00    0.08
   1  -4 -23    0.20    0.05
   0  -4 -23    0.04    0.05
  -1  -4 -23    1.56    0.10
   7  -5 -23    0.08    0.05
   5  -5 -23    0.52    0.09
  -5   5  23    0.70    0.13
   4  -5 -23    1.30    0.11
  -4   5  23    1.30    0.15
   3  -5 -23    3.54    0.19
   3  -5 -23    3.32    0.17
   2  -5 -23   -0.05    0.06
   2  -5 -23   -0.03    0.06
   1  -5 -23   14.35    0.57
   1  -5 -23   15.58    0.57
   0  -5 -23    0.44    0.08
   6  -6 -23    0.01    0.05
   5  -6 -23    0.02    0.05
   4  -6 -23    0.09    0.06
   3  -6 -23    1.65    0.11
   2  -6 -23    0.07    0.06
   4  -7 -23   -0.02    0.05
   3  -7 -23    0.17    0.05
   3   9 -24    0.19    0.06
   2   9 -24    0.65    0.11
   4   8 -24    1.00    0.09
   3   8 -24    0.41    0.08
   2   8 -24    0.24    0.06
   1   8 -24    0.07    0.06
   5   7 -24    0.09    0.09
   5   7 -24    0.04    0.04
   4   7 -24    1.20    0.09
   3   7 -24    0.08    0.05
   2   7 -24    1.13    0.10
   1   7 -24    0.18    0.05
   0   7 -24    3.58    0.17
   6   6 -24    2.92    0.16
   6   6 -24    3.04    0.14
   5   6 -24    0.08    0.08
   5   6 -24    0.20    0.05
   4   6 -24    0.08    0.10
   4   6 -24    0.13    0.05
   3   6 -24    1.42    0.10
  -3  -6  24    1.34    0.18
   2   6 -24    1.54    0.10
  -2  -6  24    1.25    0.14
   1   6 -24    0.04    0.05
  -1  -6  24    0.00    0.08
   0   6 -24    1.60    0.11
   0  -6  24    1.71    0.14
  -1   6 -24    0.17    0.07
   6   5 -24    6.53    0.27
   6   5 -24    6.25    0.26
   5   5 -24    0.30    0.07
   5   5 -24    0.20    0.08
   4   5 -24    0.63    0.14
   4   5 -24    0.70    0.08
   3   5 -24    2.60    0.14
  -3  -5  24    2.89    0.18
   2   5 -24    0.10    0.05
  -2  -5  24    0.17    0.08
   1   5 -24    0.17    0.05
  -1  -5  24    0.20    0.08
   0   5 -24    4.57    0.20
   0  -5  24    4.52    0.22
  -1   5 -24    0.42    0.09
   7   4 -24    0.62    0.08
   7   4 -24    0.76    0.09
   6   4 -24    0.51    0.10
   5   4 -24    0.68    0.08
   5   4 -24    0.63    0.11
   4   4 -24    0.98    0.14
   4   4 -24    1.30    0.10
  -4  -4  24    1.34    0.15
   3   4 -24    5.26    0.23
   3   4 -24    5.10    0.26
  -3  -4  24    5.11    0.25
   2   4 -24    0.05    0.05
  -2  -4  24    0.02    0.07
   1   4 -24    0.02    0.05
  -1  -4  24    0.06    0.07
   0   4 -24    0.02    0.05
   0  -4  24    0.00    0.07
  -1   4 -24    1.19    0.10
  -2   4 -24    0.06    0.07
   7   3 -24    0.10    0.06
   7   3 -24    0.05    0.06
   6   3 -24    1.83    0.13
   6   3 -24    1.99    0.13
   5   3 -24    0.00    0.05
   5   3 -24    0.04    0.07
  -5  -3  24    0.06    0.10
   4   3 -24   -0.02    0.05
   4   3 -24    0.08    0.07
  -4  -3  24    0.04    0.08
   3   3 -24    0.96    0.09
   3   3 -24    1.04    0.19
  -3  -3  24    1.08    0.12
   2   3 -24    0.11    0.05
  -2  -3  24    0.17    0.08
   1   3 -24    0.02    0.05
  -1  -3  24    0.10    0.07
   0   3 -24    1.48    0.10
   0  -3  24    1.37    0.13
  -1   3 -24    2.75    0.16
  -2   3 -24   -0.01    0.05
   7   2 -24    0.04    0.06
   7   2 -24   -0.02    0.05
   6   2 -24   17.28    0.68
   6   2 -24   18.84    0.72
   5   2 -24    0.08    0.05
   5   2 -24    0.02    0.06
  -5  -2  24    0.14    0.09
   4   2 -24    0.61    0.08
   4   2 -24    0.48    0.11
  -4  -2  24    0.47    0.12
   3   2 -24    1.21    0.14
   3   2 -24    1.20    0.10
  -3  -2  24    1.21    0.13
   2   2 -24    1.41    0.11
  -2  -2  24    1.58    0.14
   1   2 -24    0.01    0.04
  -1  -2  24    0.16    0.07
   0   2 -24    1.79    0.11
   0  -2  24    2.07    0.15
  -2   2 -24    0.21    0.05
   7   1 -24    0.00    0.07
   7   1 -24    0.08    0.05
   6   1 -24    8.78    0.35
   6   1 -24    8.86    0.36
   5   1 -24    0.00    0.06
   5   1 -24    0.05    0.05
  -5  -1  24    0.04    0.08
   4   1 -24    0.06    0.07
   4   1 -24    0.12    0.05
  -4  -1  24    0.44    0.11
   3   1 -24    1.09    0.10
   3   1 -24    0.96    0.13
  -3  -1  24    0.99    0.13
   2   1 -24    0.86    0.16
   2   1 -24    0.72    0.08
  -2  -1  24    0.82    0.12
   1   1 -24    0.16    0.05
  -1  -1  24    0.12    0.07
   0   1 -24    2.50    0.14
   0  -1  24    2.60    0.17
   7   0 -24    0.37    0.08
   6   0 -24    8.91    0.37
   6   0 -24    9.30    0.36
   5   0 -24    0.22    0.06
   5   0 -24    0.17    0.05
  -5   0  24    0.20    0.09
   4   0 -24    0.36    0.08
   4   0 -24    0.23    0.07
  -4   0  24    0.29    0.08
   3   0 -24    0.24    0.05
   3   0 -24    0.18    0.07
  -3   0  24    0.30    0.08
   2   0 -24    0.35    0.09
   2   0 -24    0.38    0.08
  -2   0  24    0.60    0.12
   1   0 -24    0.12    0.05
  -1   0  24    0.01    0.08
   0   0 -24    0.12    0.05
  -1   0 -24    0.22    0.05
   7  -1 -24    0.20    0.05
   6  -1 -24    0.22    0.05
   6  -1 -24    0.05    0.08
   5  -1 -24    0.02    0.05
   5  -1 -24   -0.02    0.07
  -5   1  24   -0.03    0.07
   4  -1 -24    2.82    0.15
   4  -1 -24    2.64    0.16
  -4   1  24    3.27    0.18
   3  -1 -24   21.81    0.85
   3  -1 -24   22.80    0.86
  -3   1  24   24.21    0.88
   2  -1 -24   -0.03    0.04
   2  -1 -24   -0.08    0.08
  -2   1  24   -0.13    0.07
   1  -1 -24    0.46    0.08
  -1   1  24    0.46    0.10
   0  -1 -24    0.23    0.05
  -1  -1 -24    1.71    0.10
   7  -2 -24    0.44    0.08
   5  -2 -24   -0.02    0.05
   5  -2 -24    0.01    0.07
  -5   2  24   -0.08    0.08
   4  -2 -24    0.01    0.05
  -4   2  24    0.05    0.08
   3  -2 -24    1.81    0.12
   3  -2 -24    1.70    0.13
  -3   2  24    1.97    0.16
   2  -2 -24    0.14    0.05
   2  -2 -24    0.27    0.08
  -2   2  24    0.10    0.09
   1  -2 -24    0.02    0.05
   0  -2 -24    0.46    0.07
   6  -3 -24    6.05    0.25
   5  -3 -24   -0.03    0.07
   4  -3 -24    0.13    0.07
   4  -3 -24    0.18    0.06
  -4   3  24    0.23    0.08
   3  -3 -24    1.77    0.13
   3  -3 -24    2.08    0.13
  -3   3  24    2.25    0.17
   2  -3 -24    0.51    0.12
   2  -3 -24    0.37    0.08
   1  -3 -24    0.27    0.05
   0  -3 -24    1.41    0.10
   6  -4 -24    7.45    0.30
   5  -4 -24    0.16    0.05
   4  -4 -24    0.31    0.08
   3  -4 -24    1.25    0.11
   3  -4 -24    1.07    0.12
   2  -4 -24    1.00    0.10
   2  -4 -24    1.17    0.12
   1  -4 -24    0.06    0.05
   3  -5 -24    2.08    0.12
   3   7 -25    0.68    0.08
   2   7 -25    0.20    0.05
   4   6 -25    0.72    0.08
   3   6 -25    0.12    0.05
   2   6 -25    7.60    0.30
   1   6 -25   -0.02    0.05
   5   5 -25    7.85    0.31
   4   5 -25    0.00    0.04
   2   5 -25    1.07    0.09
   1   5 -25    0.73    0.09
   0   5 -25    0.18    0.05
   5   4 -25    3.71    0.19
   5   4 -25    3.85    0.17
   4   4 -25    0.19    0.10
   3   4 -25    0.48    0.07
   2   4 -25    0.03    0.04
   1   4 -25    0.38    0.08
   0   4 -25    0.02    0.05
   6   3 -25    0.05    0.05
   6   3 -25    0.02    0.06
   5   3 -25    8.68    0.35
   5   3 -25    8.92    0.35
   4   3 -25    0.69    0.13
   4   3 -25    0.43    0.07
   3   3 -25    0.36    0.07
  -3  -3  25    0.29    0.13
   2   3 -25    1.51    0.10
  -2  -3  25    1.03    0.13
   1   3 -25    0.37    0.09
   0   3 -25    0.08    0.05
   6   2 -25    0.04    0.06
   6   2 -25    0.10    0.06
   5   2 -25    3.59    0.18
   5   2 -25    3.64    0.17
   4   2 -25    0.16    0.08
   4   2 -25    0.04    0.04
   3   2 -25    0.33    0.07
   3   2 -25    0.16    0.12
  -3  -2  25    0.48    0.12
   2   2 -25    3.63    0.17
  -2  -2  25    3.42    0.20
   1   2 -25    0.13    0.09
   0   2 -25    0.58    0.07
   6   1 -25   -0.12    0.05
   6   1 -25   -0.01    0.06
   5   1 -25    0.05    0.06
   5   1 -25    0.05    0.05
   4   1 -25    0.74    0.11
   3   1 -25   -0.01    0.09
   3   1 -25    0.07    0.05
  -3  -1  25    0.04    0.08
   2   1 -25    0.35    0.07
  -2  -1  25    0.54    0.14
   1   1 -25   -0.04    0.04
   0   1 -25   -0.01    0.04
   6   0 -25    0.01    0.05
   5   0 -25    2.36    0.13
   5   0 -25    2.34    0.13
   4   0 -25    0.15    0.05
   4   0 -25    0.06    0.06
   3   0 -25   -0.02    0.08
   1   0 -25    0.30    0.07
   5  -1 -25    1.57    0.13
   5  -1 -25    1.46    0.11
   4  -1 -25    0.91    0.10
   4  -1 -25    1.08    0.11
   3  -1 -25    0.11    0.08
   3  -1 -25    0.00    0.05
   2  -1 -25    0.18    0.05
   1  -1 -25    0.65    0.07
   5  -2 -25    3.33    0.16
   4  -2 -25    1.25    0.11
   4  -2 -25    1.27    0.11
   3  -2 -25    0.02    0.05
   3  -2 -25   -0.02    0.07
   2  -2 -25    0.14    0.05
   0   0   0    0.00    0.00
;
_shelx_hkl_checksum              97347
_shelx_res_file
;
    SKM191_0m.res created by SHELXL-2014/7
TITL SKM191_0m_a.res in P-1
REM Old TITL SKM191_0m in P-1
REM SHELXT solution in P-1
REM R1 0.138,  Rweak 0.002,  Alpha 0.039,  Orientation as input
REM Formula found by SHELXT:  C73 N15 O7 S3 Cl3
CELL  1.54178  10.7330  16.0616  20.9885   96.662  102.673   98.067
ZERR    3.000   0.0004   0.0006   0.0008    0.002    0.001    0.001
LATT  1
SFAC C H N O S CL
UNIT 144 126 30 15 6 6
TEMP -123
SIZE 0.103 0.143 0.19
L.S. 5
BOND $H
LIST 4
FMAP 2
PLAN 5
EQIV $1 x+1, y, z
HTAB N4 O7_$1
EQIV $2 x-1, y, z
HTAB C6 O2_$2
HTAB C7 O2_$2
HTAB C30 O4_$1
HTAB C31 O4_$1
EQIV $3 -x+1, -y+1, -z+1
HTAB C39 N6_$3
HTAB N14 O8
HTAB C54 O6_$1
HTAB C55 O6_$1
HTAB O7 O4_$1
HTAB O7 N1
HTAB O8 N11_$2
EQIV $4 -x+1, -y+1, -z
HTAB O8 N11_$4
CONF
ACTA 136
MPLA C1 > C6
MPLA N1 N2 N3 C8 C9
MPLA C10 > C15
MPLA C25 > C30
MPLA N6 N7 N8 C32 C33
MPLA C34 > C39
MPLA C49 > C54
MPLA N11 N12 N13 C56 C63
MPLA C57 > C62
WGHT    0.061500    0.778900
FVAR       0.08955
CL1   6    0.127943    0.023647    0.071153    11.00000    0.02848    0.02459 =
         0.04840   -0.00218    0.00048   -0.00373
S1    5    1.122024    0.396674    0.189138    11.00000    0.02152    0.02287 =
         0.03494   -0.00797    0.01176   -0.00075
O1    4    0.617101    0.263132    0.176081    11.00000    0.02117    0.02118 =
         0.03676    0.00379    0.00163    0.00235
O2    4    1.396557    0.429435    0.225964    11.00000    0.02554    0.02392 =
         0.03838   -0.00618    0.00994    0.00705
N1    3    0.811975    0.453788    0.236873    11.00000    0.02021    0.02252 =
         0.02579   -0.00117    0.00587    0.00429
N2    3    0.945821    0.469104    0.244475    11.00000    0.01994    0.02100 =
         0.02568   -0.00172    0.00677    0.00358
N3    3    0.859271    0.360962    0.164350    11.00000    0.02097    0.01789 =
         0.02250   -0.00197    0.00614    0.00234
N4    3    1.435146    0.562424    0.281605    11.00000    0.01923    0.02150 =
         0.02528   -0.00176    0.00658    0.00373
AFIX   3
H4N   2    1.522139    0.562826    0.290682    11.00000   -1.20000
AFIX   0
N5    3    1.385707    0.630732    0.305370    11.00000    0.02435    0.01859 =
         0.02093    0.00116    0.00654    0.00541
C1    1    0.498802    0.210766    0.150135    11.00000    0.02088    0.02329 =
         0.02366    0.00119    0.00302    0.00109
C2    1    0.503338    0.126812    0.129281    11.00000    0.02494    0.02437 =
         0.04917   -0.00195    0.00698    0.00591
AFIX  43
H2    2    0.584615    0.108817    0.131555    11.00000   -1.20000
AFIX   0
C3    1    0.389075    0.068479    0.104932    11.00000    0.03343    0.01974 =
         0.05223   -0.00465    0.00842    0.00423
AFIX  43
H3    2    0.391600    0.010607    0.090422    11.00000   -1.20000
AFIX   0
C4    1    0.272094    0.095802    0.102143    11.00000    0.02700    0.02260 =
         0.02881    0.00112    0.00363   -0.00043
C5    1    0.266747    0.179523    0.122841    11.00000    0.02097    0.02610 =
         0.02852    0.00079    0.00200    0.00522
AFIX  43
H5    2    0.185308    0.197211    0.120768    11.00000   -1.20000
AFIX   0
C6    1    0.381122    0.238248    0.146842    11.00000    0.02445    0.01979 =
         0.02414   -0.00142    0.00332    0.00411
AFIX  43
H6    2    0.378416    0.296266    0.160736    11.00000   -1.20000
AFIX   0
C7    1    0.623681    0.350408    0.166931    11.00000    0.02142    0.01951 =
         0.03000    0.00115    0.00476    0.00512
AFIX  23
H7A   2    0.571790    0.379193    0.193366    11.00000   -1.20000
H7B   2    0.589877    0.354754    0.119816    11.00000   -1.20000
AFIX   0
C8    1    0.762542    0.389875    0.189307    11.00000    0.02225    0.01924 =
         0.02305    0.00076    0.00578    0.00499
C9    1    0.971062    0.412379    0.200898    11.00000    0.02216    0.01725 =
         0.02378    0.00208    0.00667    0.00124
C10   1    0.842909    0.301575    0.105040    11.00000    0.02226    0.01983 =
         0.02212   -0.00303    0.00727    0.00069
C11   1    0.789956    0.325762    0.045465    11.00000    0.04985    0.02405 =
         0.02751    0.00112    0.00893    0.01150
AFIX  43
H11   2    0.765225    0.380157    0.043989    11.00000   -1.20000
AFIX   0
C12   1    0.773279    0.269329   -0.012458    11.00000    0.05938    0.03576 =
         0.02312    0.00001    0.00751    0.01345
AFIX  43
H12   2    0.736202    0.284923   -0.053847    11.00000   -1.20000
AFIX   0
C13   1    0.810486    0.190772   -0.009896    11.00000    0.04318    0.02939 =
         0.02829   -0.00693    0.01038    0.00579
AFIX  43
H13   2    0.799005    0.152350   -0.049527    11.00000   -1.20000
AFIX   0
C14   1    0.864497    0.167821    0.050282    11.00000    0.04493    0.02326 =
         0.03740   -0.00415    0.01040    0.01207
AFIX  43
H14   2    0.890480    0.113779    0.051748    11.00000   -1.20000
AFIX   0
C15   1    0.881012    0.223372    0.108672    11.00000    0.03686    0.02316 =
         0.02753    0.00081    0.00559    0.00819
AFIX  43
H15   2    0.917715    0.207796    0.150124    11.00000   -1.20000
AFIX   0
C16   1    1.213880    0.488873    0.245825    11.00000    0.02035    0.02506 =
         0.04133   -0.00934    0.00683    0.00337
AFIX  23
H16A  2    1.187336    0.541174    0.230489    11.00000   -1.20000
H16B  2    1.197086    0.486472    0.290167    11.00000   -1.20000
AFIX   0
C17   1    1.355063    0.490700    0.249456    11.00000    0.02197    0.01982 =
         0.02170    0.00152    0.00605    0.00462
C18   1    1.469937    0.694724    0.338073    11.00000    0.02090    0.02251 =
         0.02458    0.00247    0.00527    0.00168
AFIX  43
H18   2    1.559619    0.692099    0.344407    11.00000   -1.20000
AFIX   0
C19   1    1.429928    0.771483    0.365677    11.00000    0.02676    0.02002 =
         0.02032    0.00134    0.00346    0.00329
C20   1    1.300252    0.776651    0.362867    11.00000    0.02564    0.02724 =
         0.03606   -0.00410    0.00314    0.00262
AFIX  43
H20   2    1.234928    0.728623    0.343465    11.00000   -1.20000
AFIX   0
C21   1    1.266226    0.851216    0.388135    11.00000    0.03253    0.03517 =
         0.05057   -0.00683    0.00424    0.01060
AFIX  43
H21   2    1.177621    0.854111    0.385960    11.00000   -1.20000
AFIX   0
C22   1    1.360772    0.922089    0.416741    11.00000    0.04707    0.02467 =
         0.04495   -0.00492    0.00548    0.01133
AFIX  43
H22   2    1.336834    0.973292    0.433847    11.00000   -1.20000
AFIX   0
C23   1    1.489560    0.917637    0.420144    11.00000    0.03980    0.02099 =
         0.03373   -0.00230    0.00253   -0.00142
AFIX  43
H23   2    1.554470    0.965798    0.439797    11.00000   -1.20000
AFIX   0
C24   1    1.524266    0.842943    0.394906    11.00000    0.02725    0.02436 =
         0.02890    0.00220    0.00370    0.00043
AFIX  43
H24   2    1.613069    0.840277    0.397495    11.00000   -1.20000
AFIX   0
CL2   6    1.192061    0.969645    0.587803    11.00000    0.03093    0.03110 =
         0.05997    0.00093   -0.00006   -0.00541
S2    5    0.187414    0.603836    0.467836    11.00000    0.02517    0.02150 =
         0.03301   -0.00469    0.01075    0.00191
O3    4    0.699304    0.731523    0.494321    11.00000    0.02340    0.02037 =
         0.04581    0.00739    0.00002    0.00273
O4    4   -0.088828    0.555804    0.437829    11.00000    0.02888    0.03027 =
         0.04234   -0.00885    0.00990    0.00893
N6    3    0.504815    0.542259    0.431104    11.00000    0.02463    0.02128 =
         0.02326    0.00100    0.00514    0.00451
N7    3    0.369930    0.528761    0.419771    11.00000    0.02536    0.02075 =
         0.02241    0.00096    0.00664    0.00395
N8    3    0.450900    0.637306    0.500122    11.00000    0.02282    0.01850 =
         0.02146   -0.00139    0.00507    0.00251
N9    3   -0.113059    0.422860    0.383908    11.00000    0.02381    0.02465 =
         0.03182   -0.00263    0.01003    0.00438
AFIX   3
H9N   2   -0.199944    0.415040    0.380763    11.00000   -1.20000
AFIX   0
N10   3   -0.055909    0.360175    0.357666    11.00000    0.02871    0.02080 =
         0.02371    0.00154    0.00786    0.00589
C25   1    0.818757    0.782904    0.517789    11.00000    0.02466    0.02410 =
         0.02592    0.00236    0.00232    0.00264
C26   1    0.816193    0.867874    0.536770    11.00000    0.02623    0.02609 =
         0.05560   -0.00386    0.00400    0.00774
AFIX  43
H26   2    0.735741    0.886747    0.535317    11.00000   -1.20000
AFIX   0
C27   1    0.931633    0.925676    0.557998    11.00000    0.03491    0.02271 =
         0.05725   -0.00479    0.00267    0.00423
AFIX  43
H27   2    0.930518    0.984160    0.571057    11.00000   -1.20000
AFIX   0
C28   1    1.047333    0.897473    0.559924    11.00000    0.02888    0.02677 =
         0.03229    0.00279    0.00133   -0.00042
C29   1    1.050496    0.812870    0.540990    11.00000    0.02512    0.03094 =
         0.03255    0.00275    0.00602    0.00652
AFIX  43
H29   2    1.131146    0.794320    0.542330    11.00000   -1.20000
AFIX   0
C30   1    0.935360    0.754638    0.519901    11.00000    0.02898    0.02099 =
         0.03024    0.00133    0.00650    0.00551
AFIX  43
H30   2    0.936826    0.696146    0.507102    11.00000   -1.20000
AFIX   0
C31   1    0.688878    0.644867    0.504963    11.00000    0.02334    0.02131 =
         0.02934    0.00219    0.00381    0.00506
AFIX  23
H31A  2    0.716705    0.641555    0.552667    11.00000   -1.20000
H31B  2    0.743862    0.614789    0.481350    11.00000   -1.20000
AFIX   0
C32   1    0.550142    0.606306    0.478828    11.00000    0.02592    0.01729 =
         0.02238    0.00183    0.00685    0.00533
C33   1    0.341038    0.586419    0.461158    11.00000    0.02538    0.01828 =
         0.02124    0.00192    0.00592    0.00235
C34   1    0.462774    0.695353    0.559690    11.00000    0.02375    0.02030 =
         0.02285   -0.00253    0.00727    0.00347
C35   1    0.442949    0.777830    0.556371    11.00000    0.04207    0.02316 =
         0.02611    0.00257    0.00739    0.00809
AFIX  43
H35   2    0.418635    0.796902    0.514947    11.00000   -1.20000
AFIX   0
C36   1    0.459463    0.832547    0.615302    11.00000    0.04618    0.01981 =
         0.03636   -0.00153    0.01146    0.01005
AFIX  43
H36   2    0.445751    0.889564    0.614102    11.00000   -1.20000
AFIX   0
C37   1    0.495576    0.804731    0.675468    11.00000    0.03754    0.02870 =
         0.02700   -0.00673    0.00770    0.00596
AFIX  43
H37   2    0.508533    0.842900    0.715374    11.00000   -1.20000
AFIX   0
C38   1    0.512811    0.721435    0.677539    11.00000    0.06088    0.03387 =
         0.02324    0.00001    0.00855    0.01730
AFIX  43
H38   2    0.536444    0.702095    0.718900    11.00000   -1.20000
AFIX   0
C39   1    0.495655    0.665841    0.619244    11.00000    0.05273    0.02451 =
         0.02655    0.00061    0.00819    0.01452
AFIX  43
H39   2    0.506422    0.608281    0.620381    11.00000   -1.20000
AFIX   0
C40   1    0.100661    0.506576    0.415843    11.00000    0.02365    0.02945 =
         0.03011   -0.00710    0.00494    0.00496
AFIX  23
H40A  2    0.112933    0.506970    0.370480    11.00000   -1.20000
H40B  2    0.135118    0.457402    0.433019    11.00000   -1.20000
AFIX   0
C41   1   -0.040213    0.498113    0.414437    11.00000    0.02776    0.02358 =
         0.02222    0.00207    0.00553    0.00722
C42   1   -0.131400    0.292488    0.326324    11.00000    0.02626    0.02364 =
         0.02949    0.00189    0.00775    0.00203
AFIX  43
H42   2   -0.222267    0.287696    0.321761    11.00000   -1.20000
AFIX   0
C43   1   -0.078552    0.222179    0.297364    11.00000    0.03244    0.02288 =
         0.02322    0.00179    0.00564    0.00275
C44   1   -0.161508    0.145656    0.269108    11.00000    0.03673    0.02661 =
         0.03264   -0.00142    0.00606   -0.00082
AFIX  43
H44   2   -0.251347    0.140448    0.267772    11.00000   -1.20000
AFIX   0
C45   1   -0.113212    0.077107    0.242941    11.00000    0.05420    0.02322 =
         0.04123   -0.00576    0.00817    0.00008
AFIX  43
H45   2   -0.169748    0.024787    0.224506    11.00000   -1.20000
AFIX   0
C46   1    0.016499    0.084838    0.243669    11.00000    0.05657    0.03227 =
         0.04987   -0.00874    0.00952    0.01781
AFIX  43
H46   2    0.049078    0.038034    0.225249    11.00000   -1.20000
AFIX   0
C47   1    0.100110    0.161106    0.271340    11.00000    0.03737    0.03924 =
         0.05104   -0.00445    0.00600    0.01256
AFIX  43
H47   2    0.189516    0.166301    0.271649    11.00000   -1.20000
AFIX   0
C48   1    0.053007    0.229235    0.298352    11.00000    0.03263    0.02778 =
         0.03468   -0.00358    0.00438    0.00495
AFIX  43
H48   2    0.110326    0.280992    0.317638    11.00000   -1.20000
AFIX   0
CL3   6    1.559535    0.981184    0.259668    11.00000    0.03328    0.02627 =
         0.05291   -0.00220    0.00261    0.00035
S3    5    0.568695    0.601252    0.151708    11.00000    0.02894    0.02750 =
         0.03151   -0.00690    0.01585   -0.00109
O5    4    1.067790    0.744485    0.156959    11.00000    0.02638    0.02183 =
         0.04166    0.00550    0.00616    0.00526
O6    4    0.291504    0.568796    0.116864    11.00000    0.03427    0.03463 =
         0.04453   -0.01148    0.00957    0.01334
N11   3    0.873916    0.552635    0.094354    11.00000    0.03123    0.02487 =
         0.03440    0.00097    0.01513    0.00769
N12   3    0.740919    0.535127    0.089738    11.00000    0.03113    0.02252 =
         0.03134    0.00072    0.01448    0.00424
N13   3    0.829882    0.642576    0.170175    11.00000    0.02745    0.01885 =
         0.02809    0.00093    0.01197    0.00351
N14   3    0.256870    0.437284    0.059740    11.00000    0.02763    0.02886 =
         0.02905   -0.00413    0.00817    0.00780
AFIX   3
H14N  2    0.170386    0.432431    0.057281    11.00000   -1.20000
AFIX   0
N15   3    0.304509    0.371717    0.030528    11.00000    0.03199    0.02301 =
         0.02270   -0.00026    0.00654    0.00800
C49   1    1.186800    0.795856    0.181897    11.00000    0.02645    0.02488 =
         0.02589    0.00416    0.00624    0.00487
C50   1    1.183527    0.881189    0.198127    11.00000    0.03098    0.02598 =
         0.04840    0.00175    0.00867    0.01080
AFIX  43
H50   2    1.102636    0.900422    0.192846    11.00000   -1.20000
AFIX   0
C51   1    1.298144    0.938961    0.222144    11.00000    0.03735    0.02176 =
         0.04995   -0.00093    0.00970    0.00896
AFIX  43
H51   2    1.296390    0.997681    0.233684    11.00000   -1.20000
AFIX   0
C52   1    1.415184    0.909696    0.229038    11.00000    0.03099    0.02498 =
         0.02991    0.00074    0.00403    0.00264
C53   1    1.418693    0.824725    0.212571    11.00000    0.02666    0.02949 =
         0.02552    0.00175    0.00488    0.00838
AFIX  43
H53   2    1.499690    0.805719    0.217275    11.00000   -1.20000
AFIX   0
C54   1    1.304026    0.766613    0.189070    11.00000    0.03001    0.02121 =
         0.02657    0.00144    0.00716    0.00715
AFIX  43
H54   2    1.305912    0.707807    0.178096    11.00000   -1.20000
AFIX   0
C55   1    1.062976    0.656419    0.162253    11.00000    0.02841    0.02130 =
         0.03985    0.00399    0.01216    0.00796
AFIX  23
H55A  2    1.101307    0.649280    0.208278    11.00000   -1.20000
H55B  2    1.112166    0.630054    0.132985    11.00000   -1.20000
AFIX   0
C56   1    0.924466    0.615924    0.142198    11.00000    0.02919    0.02066 =
         0.03116    0.00483    0.01339    0.00784
C57   1    0.847995    0.701820    0.229824    11.00000    0.02571    0.02137 =
         0.02633   -0.00125    0.01088    0.00249
C58   1    0.915519    0.681660    0.288603    11.00000    0.03832    0.02544 =
         0.03364    0.00232    0.00845    0.00930
AFIX  43
H58   2    0.950697    0.630593    0.289017    11.00000   -1.20000
AFIX   0
C59   1    0.931287    0.736920    0.346992    11.00000    0.04470    0.03390 =
         0.02986   -0.00009    0.00571    0.00802
AFIX  43
H59   2    0.977690    0.723886    0.387593    11.00000   -1.20000
AFIX   0
C60   1    0.879200    0.810970    0.345804    11.00000    0.03910    0.03109 =
         0.03527   -0.00833    0.01135    0.00395
AFIX  43
H60   2    0.888989    0.848425    0.385752    11.00000   -1.20000
AFIX   0
C61   1    0.812921    0.830651    0.286649    11.00000    0.03899    0.02551 =
         0.04287   -0.00366    0.01057    0.01324
AFIX  43
H61   2    0.778171    0.881876    0.286220    11.00000   -1.20000
AFIX   0
C62   1    0.796694    0.776118    0.227787    11.00000    0.03483    0.02458 =
         0.03335    0.00063    0.00994    0.00835
AFIX  43
H62   2    0.751405    0.789585    0.187101    11.00000   -1.20000
AFIX   0
C63   1    0.718090    0.590237    0.135197    11.00000    0.02996    0.01857 =
         0.02624    0.00294    0.01224    0.00133
C64   1    0.472912    0.521117    0.085418    11.00000    0.03121    0.02879 =
         0.03349   -0.00482    0.01036    0.00711
AFIX  23
H64A  2    0.481110    0.537924    0.042412    11.00000   -1.20000
H64B  2    0.504199    0.466328    0.089014    11.00000   -1.20000
AFIX   0
C65   1    0.334289    0.511291    0.089234    11.00000    0.03034    0.02461 =
         0.02268    0.00071    0.00557    0.00980
C66   1    0.219722    0.306481    0.000794    11.00000    0.02881    0.02889 =
         0.02539    0.00061    0.00580    0.00419
AFIX  43
H66   2    0.130878    0.306696   -0.000130    11.00000   -1.20000
AFIX   0
C67   1    0.257619    0.231978   -0.031620    11.00000    0.03162    0.02510 =
         0.02242    0.00185    0.00475    0.00437
C68   1    0.162499    0.160472   -0.059869    11.00000    0.03285    0.03074 =
         0.03120   -0.00029    0.00663    0.00049
AFIX  43
H68   2    0.074789    0.161827   -0.058759    11.00000   -1.20000
AFIX   0
C69   1    0.195553    0.087669   -0.089466    11.00000    0.04472    0.02655 =
         0.03638   -0.00335    0.00525   -0.00036
AFIX  43
H69   2    0.130586    0.039242   -0.108224    11.00000   -1.20000
AFIX   0
C70   1    0.322547    0.085406   -0.091731    11.00000    0.04932    0.02808 =
         0.04294   -0.00585    0.00553    0.01219
AFIX  43
H70   2    0.345000    0.035452   -0.111976    11.00000   -1.20000
AFIX   0
C71   1    0.417695    0.156344   -0.064340    11.00000    0.03332    0.03896 =
         0.04833   -0.00483    0.00558    0.01170
AFIX  43
H71   2    0.505017    0.154914   -0.066217    11.00000   -1.20000
AFIX   0
C72   1    0.385548    0.228812   -0.034440    11.00000    0.03099    0.02967 =
         0.03408   -0.00431    0.00296    0.00298
AFIX  43
H72   2    0.451087    0.276919   -0.015630    11.00000   -1.20000
AFIX   0
O7    4    0.690909    0.545158    0.321932    11.00000    0.02891    0.09123 =
         0.03379   -0.01138    0.00364    0.02568
AFIX   3
H7D   2    0.746338    0.558443    0.360100    11.00000   -1.50000
H7C   2    0.731332    0.517563    0.297067    11.00000   -1.50000
AFIX   0
O8    4   -0.002764    0.451815    0.011017    10.50000    0.03422    0.04820 =
         0.03947   -0.00269    0.01710    0.00913
AFIX   3
H8A   2   -0.035788    0.490138    0.031547    10.50000   -1.50000
H8B   2    0.017551    0.475301   -0.021479    10.50000   -1.50000
AFIX   0
HKLF 4
REM  SKM191_0m_a.res in P-1
REM R1 =  0.0402 for   10286 Fo > 4sig(Fo)  and  0.0523 for all   12824 data
REM    910 parameters refined using      0 restraints
END
WGHT      0.0615      0.7789
REM Highest difference peak  0.363,  deepest hole -0.360,  1-sigma level  0.052
Q1    1   0.2607  0.5974  0.4931  11.00000  0.05    0.36
Q2    1   0.6003  0.6257  0.4830  11.00000  0.05    0.24
Q3    1   0.0222  0.5003  0.4163  11.00000  0.05    0.24
Q4    1   0.6561  0.4532  0.3482  11.00000  0.05    0.24
Q5    1   0.9978  0.6360  0.1621  11.00000  0.05    0.24
;
_shelx_res_checksum              85908
loop_
_space_group_symop_operation_xyz
'x, y, z'
'-x, -y, -z'
loop_
_atom_site_type_symbol
_atom_site_label
_atom_site_fract_x
_atom_site_fract_y
_atom_site_fract_z
_atom_site_U_iso_or_equiv
_atom_site_adp_type
_atom_site_calc_flag
_atom_site_occupancy
Cl Cl1 0.12794(4) 0.02365(3) 0.07115(2) 0.03665(12) Uani d 1
S S1 1.12202(4) 0.39667(3) 0.18914(2) 0.02712(11) Uani d 1
O O1 0.61710(11) 0.26313(7) 0.17608(6) 0.0274(3) Uani d 1
O O2 1.39656(11) 0.42943(7) 0.22596(6) 0.0295(3) Uani d 1
N N1 0.81198(13) 0.45379(9) 0.23687(7) 0.0231(3) Uani d 1
N N2 0.94582(13) 0.46910(8) 0.24447(7) 0.0224(3) Uani d 1
N N3 0.85927(13) 0.36096(8) 0.16435(7) 0.0208(3) Uani d 1
N N4 1.43515(13) 0.56242(8) 0.28161(7) 0.0222(3) Uani d 1
H H4N 1.5221 0.5628 0.2907 0.027 Uiso d 1
N N5 1.38571(13) 0.63073(8) 0.30537(6) 0.0211(3) Uani d 1
C C1 0.49880(16) 0.21077(10) 0.15014(8) 0.0234(3) Uani d 1
C C2 0.50334(17) 0.12681(11) 0.12928(10) 0.0336(4) Uani d 1
H H2 0.5846 0.1088 0.1316 0.040 Uiso calc 1
C C3 0.38907(18) 0.06848(11) 0.10493(10) 0.0363(4) Uani d 1
H H3 0.3916 0.0106 0.0904 0.044 Uiso calc 1
C C4 0.27209(17) 0.09580(11) 0.10214(9) 0.0273(4) Uani d 1
C C5 0.26675(16) 0.17952(11) 0.12284(8) 0.0260(4) Uani d 1
H H5 0.1853 0.1972 0.1208 0.031 Uiso calc 1
C C6 0.38112(16) 0.23825(10) 0.14684(8) 0.0235(3) Uani d 1
H H6 0.3784 0.2963 0.1607 0.028 Uiso calc 1
C C7 0.62368(15) 0.35041(10) 0.16693(8) 0.0239(3) Uani d 1
H H7A 0.5718 0.3792 0.1934 0.029 Uiso calc 1
H H7B 0.5899 0.3548 0.1198 0.029 Uiso calc 1
C C8 0.76254(15) 0.38988(10) 0.18931(8) 0.0215(3) Uani d 1
C C9 0.97106(15) 0.41238(10) 0.20090(8) 0.0212(3) Uani d 1
C C10 0.84291(15) 0.30157(10) 0.10504(8) 0.0219(3) Uani d 1
C C11 0.7900(2) 0.32576(11) 0.04546(9) 0.0336(4) Uani d 1
H H11 0.7652 0.3802 0.0440 0.040 Uiso calc 1
C C12 0.7733(2) 0.26933(13) -0.01246(9) 0.0396(5) Uani d 1
H H12 0.7362 0.2849 -0.0538 0.048 Uiso calc 1
C C13 0.81049(19) 0.19077(12) -0.00990(9) 0.0343(4) Uani d 1
H H13 0.7990 0.1523 -0.0495 0.041 Uiso calc 1
C C14 0.86450(19) 0.16782(11) 0.05028(10) 0.0352(4) Uani d 1
H H14 0.8905 0.1138 0.0517 0.042 Uiso calc 1
C C15 0.88101(18) 0.22337(11) 0.10867(9) 0.0295(4) Uani d 1
H H15 0.9177 0.2078 0.1501 0.035 Uiso calc 1
C C16 1.21388(16) 0.48887(11) 0.24583(9) 0.0302(4) Uani d 1
H H16A 1.1873 0.5412 0.2305 0.036 Uiso calc 1
H H16B 1.1971 0.4865 0.2902 0.036 Uiso calc 1
C C17 1.35506(15) 0.49070(10) 0.24946(8) 0.0211(3) Uani d 1
C C18 1.46994(16) 0.69472(10) 0.33807(8) 0.0230(3) Uani d 1
H H18 1.5596 0.6921 0.3444 0.028 Uiso calc 1
C C19 1.42993(16) 0.77148(10) 0.36568(8) 0.0229(3) Uani d 1
C C20 1.30025(17) 0.77665(11) 0.36287(9) 0.0312(4) Uani d 1
H H20 1.2349 0.7286 0.3435 0.037 Uiso calc 1
C C21 1.2662(2) 0.85122(13) 0.38814(11) 0.0409(5) Uani d 1
H H21 1.1776 0.8541 0.3860 0.049 Uiso calc 1
C C22 1.3608(2) 0.92209(12) 0.41674(10) 0.0401(5) Uani d 1
H H22 1.3368 0.9733 0.4338 0.048 Uiso calc 1
C C23 1.48956(19) 0.91764(11) 0.42014(9) 0.0337(4) Uani d 1
H H23 1.5545 0.9658 0.4398 0.040 Uiso calc 1
C C24 1.52427(17) 0.84294(11) 0.39491(8) 0.0279(4) Uani d 1
H H24 1.6131 0.8403 0.3975 0.033 Uiso calc 1
Cl Cl2 1.19206(5) 0.96964(3) 0.58780(3) 0.04395(13) Uani d 1
S S2 0.18741(4) 0.60384(3) 0.46784(2) 0.02689(11) Uani d 1
O O3 0.69930(11) 0.73152(7) 0.49432(7) 0.0311(3) Uani d 1
O O4 -0.08883(12) 0.55580(8) 0.43783(7) 0.0344(3) Uani d 1
N N6 0.50482(13) 0.54226(8) 0.43110(7) 0.0233(3) Uani d 1
N N7 0.36993(13) 0.52876(8) 0.41977(7) 0.0229(3) Uani d 1
N N8 0.45090(13) 0.63731(8) 0.50012(7) 0.0214(3) Uani d 1
N N9 -0.11306(14) 0.42286(9) 0.38391(7) 0.0268(3) Uani d 1
H H9N -0.1999 0.4150 0.3808 0.032 Uiso d 1
N N10 -0.05591(14) 0.36018(9) 0.35767(7) 0.0241(3) Uani d 1
C C25 0.81876(16) 0.78290(11) 0.51779(8) 0.0258(4) Uani d 1
C C26 0.81619(18) 0.86787(12) 0.53677(11) 0.0374(5) Uani d 1
H H26 0.7357 0.8867 0.5353 0.045 Uiso calc 1
C C27 0.93163(19) 0.92568(12) 0.55800(11) 0.0406(5) Uani d 1
H H27 0.9305 0.9842 0.5711 0.049 Uiso calc 1
C C28 1.04733(18) 0.89747(11) 0.55992(9) 0.0309(4) Uani d 1
C C29 1.05050(17) 0.81287(11) 0.54099(9) 0.0297(4) Uani d 1
H H29 1.1311 0.7943 0.5423 0.036 Uiso calc 1
C C30 0.93536(17) 0.75464(11) 0.51990(9) 0.0269(4) Uani d 1
H H30 0.9368 0.6961 0.5071 0.032 Uiso calc 1
C C31 0.68888(16) 0.64487(10) 0.50496(9) 0.0251(3) Uani d 1
H H31A 0.7167 0.6416 0.5527 0.030 Uiso calc 1
H H31B 0.7439 0.6148 0.4813 0.030 Uiso calc 1
C C32 0.55014(16) 0.60631(10) 0.47883(8) 0.0216(3) Uani d 1
C C33 0.34104(16) 0.58642(10) 0.46116(8) 0.0218(3) Uani d 1
C C34 0.46277(16) 0.69535(10) 0.55969(8) 0.0225(3) Uani d 1
C C35 0.44295(18) 0.77783(11) 0.55637(9) 0.0304(4) Uani d 1
H H35 0.4186 0.7969 0.5149 0.037 Uiso calc 1
C C36 0.45946(19) 0.83255(11) 0.61530(9) 0.0339(4) Uani d 1
H H36 0.4458 0.8896 0.6141 0.041 Uiso calc 1
C C37 0.49558(18) 0.80473(11) 0.67547(9) 0.0320(4) Uani d 1
H H37 0.5085 0.8429 0.7154 0.038 Uiso calc 1
C C38 0.5128(2) 0.72143(12) 0.67754(9) 0.0390(5) Uani d 1
H H38 0.5364 0.7021 0.7189 0.047 Uiso calc 1
C C39 0.4957(2) 0.66584(11) 0.61924(9) 0.0343(4) Uani d 1
H H39 0.5064 0.6083 0.6204 0.041 Uiso calc 1
C C40 0.10066(16) 0.50658(11) 0.41584(9) 0.0289(4) Uani d 1
H H40A 0.1129 0.5070 0.3705 0.035 Uiso calc 1
H H40B 0.1351 0.4574 0.4330 0.035 Uiso calc 1
C C41 -0.04021(16) 0.49811(10) 0.41444(8) 0.0244(3) Uani d 1
C C42 -0.13140(17) 0.29249(10) 0.32632(8) 0.0267(4) Uani d 1
H H42 -0.2223 0.2877 0.3218 0.032 Uiso calc 1
C C43 -0.07855(17) 0.22218(11) 0.29736(8) 0.0267(4) Uani d 1
C C44 -0.16151(19) 0.14566(11) 0.26911(9) 0.0335(4) Uani d 1
H H44 -0.2513 0.1404 0.2678 0.040 Uiso calc 1
C C45 -0.1132(2) 0.07711(12) 0.24294(10) 0.0416(5) Uani d 1
H H45 -0.1697 0.0248 0.2245 0.050 Uiso calc 1
C C46 0.0165(2) 0.08484(13) 0.24367(11) 0.0470(5) Uani d 1
H H46 0.0491 0.0380 0.2252 0.056 Uiso calc 1
C C47 0.1001(2) 0.16111(13) 0.27134(11) 0.0436(5) Uani d 1
H H47 0.1895 0.1663 0.2716 0.052 Uiso calc 1
C C48 0.05301(18) 0.22924(12) 0.29835(9) 0.0330(4) Uani d 1
H H48 0.1103 0.2810 0.3176 0.040 Uiso calc 1
Cl Cl3 1.55953(5) 0.98118(3) 0.25967(3) 0.03985(12) Uani d 1
S S3 0.56870(4) 0.60125(3) 0.15171(2) 0.02948(11) Uani d 1
O O5 1.06779(12) 0.74449(7) 0.15696(6) 0.0301(3) Uani d 1
O O6 0.29150(13) 0.56880(8) 0.11686(7) 0.0385(3) Uani d 1
N N11 0.87392(15) 0.55264(9) 0.09435(7) 0.0290(3) Uani d 1
N N12 0.74092(14) 0.53513(9) 0.08974(7) 0.0275(3) Uani d 1
N N13 0.82988(14) 0.64258(8) 0.17018(7) 0.0242(3) Uani d 1
N N14 0.25687(14) 0.43728(9) 0.05974(7) 0.0287(3) Uani d 1
H H14N 0.1704 0.4324 0.0573 0.034 Uiso d 1
N N15 0.30451(14) 0.37172(9) 0.03053(7) 0.0259(3) Uani d 1
C C49 1.18680(17) 0.79586(11) 0.18190(8) 0.0257(4) Uani d 1
C C50 1.18353(18) 0.88119(11) 0.19813(10) 0.0350(4) Uani d 1
H H50 1.1026 0.9004 0.1928 0.042 Uiso calc 1
C C51 1.29814(19) 0.93896(12) 0.22214(10) 0.0366(4) Uani d 1
H H51 1.2964 0.9977 0.2337 0.044 Uiso calc 1
C C52 1.41518(18) 0.90970(11) 0.22904(9) 0.0296(4) Uani d 1
C C53 1.41869(17) 0.82472(11) 0.21257(8) 0.0273(4) Uani d 1
H H53 1.4997 0.8057 0.2173 0.033 Uiso calc 1
C C54 1.30403(17) 0.76661(11) 0.18907(8) 0.0258(4) Uani d 1
H H54 1.3059 0.7078 0.1781 0.031 Uiso calc 1
C C55 1.06298(17) 0.65642(10) 0.16225(9) 0.0289(4) Uani d 1
H H55A 1.1013 0.6493 0.2083 0.035 Uiso calc 1
H H55B 1.1122 0.6301 0.1330 0.035 Uiso calc 1
C C56 0.92447(17) 0.61592(10) 0.14220(9) 0.0256(4) Uani d 1
C C57 0.84799(16) 0.70182(10) 0.22982(8) 0.0243(3) Uani d 1
C C58 0.91552(18) 0.68166(11) 0.28860(9) 0.0323(4) Uani d 1
H H58 0.9507 0.6306 0.2890 0.039 Uiso calc 1
C C59 0.9313(2) 0.73692(12) 0.34699(9) 0.0369(4) Uani d 1
H H59 0.9777 0.7239 0.3876 0.044 Uiso calc 1
C C60 0.87920(19) 0.81097(12) 0.34580(10) 0.0361(4) Uani d 1
H H60 0.8890 0.8484 0.3858 0.043 Uiso calc 1
C C61 0.81292(19) 0.83065(12) 0.28665(10) 0.0356(4) Uani d 1
H H61 0.7782 0.8819 0.2862 0.043 Uiso calc 1
C C62 0.79669(18) 0.77612(11) 0.22779(9) 0.0306(4) Uani d 1
H H62 0.7514 0.7896 0.1871 0.037 Uiso calc 1
C C63 0.71809(17) 0.59024(10) 0.13520(8) 0.0244(3) Uani d 1
C C64 0.47291(17) 0.52112(11) 0.08542(9) 0.0313(4) Uani d 1
H H64A 0.4811 0.5379 0.0424 0.038 Uiso calc 1
H H64B 0.5042 0.4663 0.0890 0.038 Uiso calc 1
C C65 0.33429(17) 0.51129(11) 0.08923(8) 0.0257(4) Uani d 1
C C66 0.21972(17) 0.30648(11) 0.00079(8) 0.0282(4) Uani d 1
H H66 0.1309 0.3067 -0.0001 0.034 Uiso calc 1
C C67 0.25762(17) 0.23198(11) -0.03162(8) 0.0268(4) Uani d 1
C C68 0.16250(19) 0.16047(12) -0.05987(9) 0.0327(4) Uani d 1
H H68 0.0748 0.1618 -0.0588 0.039 Uiso calc 1
C C69 0.1956(2) 0.08767(12) -0.08947(10) 0.0379(5) Uani d 1
H H69 0.1306 0.0392 -0.1082 0.045 Uiso calc 1
C C70 0.3225(2) 0.08541(12) -0.09173(10) 0.0414(5) Uani d 1
H H70 0.3450 0.0355 -0.1120 0.050 Uiso calc 1
C C71 0.4177(2) 0.15634(13) -0.06434(11) 0.0413(5) Uani d 1
H H71 0.5050 0.1549 -0.0662 0.050 Uiso calc 1
C C72 0.38555(18) 0.22881(12) -0.03444(9) 0.0333(4) Uani d 1
H H72 0.4511 0.2769 -0.0156 0.040 Uiso calc 1
O O7 0.69091(13) 0.54516(11) 0.32193(7) 0.0521(4) Uani d 1
H H7D 0.7463 0.5584 0.3601 0.078 Uiso d 1
H H7C 0.7313 0.5176 0.2971 0.078 Uiso d 1
O O8 -0.0028(3) 0.45181(17) 0.01102(13) 0.0399(6) Uani d 0.5
H H8A -0.0358 0.4901 0.0315 0.060 Uiso d 0.5
H H8B 0.0176 0.4753 -0.0215 0.060 Uiso d 0.5
loop_
_atom_site_aniso_label
_atom_site_aniso_U_11
_atom_site_aniso_U_22
_atom_site_aniso_U_33
_atom_site_aniso_U_12
_atom_site_aniso_U_13
_atom_site_aniso_U_23
Cl1 0.0285(2) 0.0246(2) 0.0484(3) -0.00373(16) 0.00048(19) -0.00218(19)
S1 0.0215(2) 0.0229(2) 0.0349(2) -0.00075(15) 0.01176(17) -0.00797(17)
O1 0.0212(6) 0.0212(6) 0.0368(7) 0.0024(4) 0.0016(5) 0.0038(5)
O2 0.0255(6) 0.0239(6) 0.0384(7) 0.0071(5) 0.0099(5) -0.0062(5)
N1 0.0202(7) 0.0225(7) 0.0258(7) 0.0043(5) 0.0059(6) -0.0012(6)
N2 0.0199(7) 0.0210(7) 0.0257(7) 0.0036(5) 0.0068(6) -0.0017(6)
N3 0.0210(7) 0.0179(6) 0.0225(7) 0.0023(5) 0.0061(5) -0.0020(5)
N4 0.0192(7) 0.0215(7) 0.0253(7) 0.0037(5) 0.0066(6) -0.0018(6)
N5 0.0244(7) 0.0186(6) 0.0209(6) 0.0054(5) 0.0065(5) 0.0012(5)
C1 0.0209(8) 0.0233(8) 0.0237(8) 0.0011(6) 0.0030(6) 0.0012(7)
C2 0.0249(9) 0.0244(9) 0.0492(11) 0.0059(7) 0.0070(8) -0.0019(8)
C3 0.0334(10) 0.0197(8) 0.0522(12) 0.0042(7) 0.0084(9) -0.0046(8)
C4 0.0270(9) 0.0226(8) 0.0288(9) -0.0004(6) 0.0036(7) 0.0011(7)
C5 0.0210(8) 0.0261(8) 0.0285(9) 0.0052(6) 0.0020(7) 0.0008(7)
C6 0.0245(8) 0.0198(8) 0.0241(8) 0.0041(6) 0.0033(7) -0.0014(7)
C7 0.0214(8) 0.0195(8) 0.0300(9) 0.0051(6) 0.0048(7) 0.0012(7)
C8 0.0222(8) 0.0192(7) 0.0230(8) 0.0050(6) 0.0058(6) 0.0008(6)
C9 0.0222(8) 0.0172(7) 0.0238(8) 0.0012(6) 0.0067(6) 0.0021(6)
C10 0.0223(8) 0.0198(8) 0.0221(8) 0.0007(6) 0.0073(6) -0.0030(6)
C11 0.0498(12) 0.0241(9) 0.0275(9) 0.0115(8) 0.0089(8) 0.0011(7)
C12 0.0594(13) 0.0358(10) 0.0231(9) 0.0134(9) 0.0075(9) 0.0000(8)
C13 0.0432(11) 0.0294(9) 0.0283(9) 0.0058(8) 0.0104(8) -0.0069(8)
C14 0.0449(11) 0.0233(9) 0.0374(10) 0.0121(8) 0.0104(9) -0.0042(8)
C15 0.0369(10) 0.0232(8) 0.0275(9) 0.0082(7) 0.0056(8) 0.0008(7)
C16 0.0203(8) 0.0251(8) 0.0413(10) 0.0034(6) 0.0068(7) -0.0093(8)
C17 0.0220(8) 0.0198(8) 0.0217(8) 0.0046(6) 0.0061(6) 0.0015(6)
C18 0.0209(8) 0.0225(8) 0.0246(8) 0.0017(6) 0.0053(6) 0.0025(7)
C19 0.0268(8) 0.0200(8) 0.0203(8) 0.0033(6) 0.0035(7) 0.0013(6)
C20 0.0256(9) 0.0272(9) 0.0361(10) 0.0026(7) 0.0031(7) -0.0041(8)
C21 0.0325(10) 0.0352(10) 0.0506(12) 0.0106(8) 0.0042(9) -0.0068(9)
C22 0.0471(12) 0.0247(9) 0.0449(11) 0.0113(8) 0.0055(9) -0.0049(9)
C23 0.0398(11) 0.0210(8) 0.0337(10) -0.0014(7) 0.0025(8) -0.0023(8)
C24 0.0273(9) 0.0244(8) 0.0289(9) 0.0004(7) 0.0037(7) 0.0022(7)
Cl2 0.0309(2) 0.0311(2) 0.0600(3) -0.00541(18) -0.0001(2) 0.0009(2)
S2 0.0252(2) 0.0215(2) 0.0330(2) 0.00191(15) 0.01075(17) -0.00469(17)
O3 0.0234(6) 0.0204(6) 0.0458(8) 0.0027(5) 0.0000(5) 0.0074(5)
O4 0.0289(7) 0.0303(7) 0.0423(7) 0.0089(5) 0.0099(6) -0.0088(6)
N6 0.0246(7) 0.0213(7) 0.0233(7) 0.0045(5) 0.0051(6) 0.0010(6)
N7 0.0254(7) 0.0207(7) 0.0224(7) 0.0039(5) 0.0066(6) 0.0010(6)
N8 0.0228(7) 0.0185(6) 0.0215(7) 0.0025(5) 0.0051(5) -0.0014(5)
N9 0.0238(7) 0.0246(7) 0.0318(8) 0.0044(5) 0.0100(6) -0.0026(6)
N10 0.0287(7) 0.0208(7) 0.0237(7) 0.0059(5) 0.0079(6) 0.0015(6)
C25 0.0247(8) 0.0241(8) 0.0259(8) 0.0026(6) 0.0023(7) 0.0024(7)
C26 0.0262(9) 0.0261(9) 0.0556(12) 0.0077(7) 0.0040(9) -0.0039(9)
C27 0.0349(11) 0.0227(9) 0.0573(13) 0.0042(7) 0.0027(9) -0.0048(9)
C28 0.0289(9) 0.0268(9) 0.0323(9) -0.0004(7) 0.0013(7) 0.0028(8)
C29 0.0251(9) 0.0309(9) 0.0325(9) 0.0065(7) 0.0060(7) 0.0027(8)
C30 0.0290(9) 0.0210(8) 0.0302(9) 0.0055(7) 0.0065(7) 0.0013(7)
C31 0.0233(8) 0.0213(8) 0.0293(9) 0.0051(6) 0.0038(7) 0.0022(7)
C32 0.0259(8) 0.0173(7) 0.0224(8) 0.0053(6) 0.0069(7) 0.0018(6)
C33 0.0254(8) 0.0183(7) 0.0212(8) 0.0023(6) 0.0059(7) 0.0019(6)
C34 0.0238(8) 0.0203(8) 0.0228(8) 0.0035(6) 0.0073(6) -0.0025(7)
C35 0.0421(11) 0.0232(8) 0.0261(9) 0.0081(7) 0.0074(8) 0.0026(7)
C36 0.0462(11) 0.0198(8) 0.0364(10) 0.0100(7) 0.0115(9) -0.0015(8)
C37 0.0375(10) 0.0287(9) 0.0270(9) 0.0060(7) 0.0077(8) -0.0067(7)
C38 0.0609(14) 0.0339(10) 0.0232(9) 0.0173(9) 0.0086(9) 0.0000(8)
C39 0.0527(12) 0.0245(9) 0.0266(9) 0.0145(8) 0.0082(8) 0.0006(7)
C40 0.0236(8) 0.0295(9) 0.0301(9) 0.0050(7) 0.0049(7) -0.0071(7)
C41 0.0278(9) 0.0236(8) 0.0222(8) 0.0072(6) 0.0055(7) 0.0021(7)
C42 0.0263(9) 0.0236(8) 0.0295(9) 0.0020(6) 0.0078(7) 0.0019(7)
C43 0.0324(9) 0.0229(8) 0.0232(8) 0.0027(7) 0.0056(7) 0.0018(7)
C44 0.0367(10) 0.0266(9) 0.0326(10) -0.0008(7) 0.0061(8) -0.0014(8)
C45 0.0542(13) 0.0232(9) 0.0412(11) 0.0001(8) 0.0082(10) -0.0058(8)
C46 0.0566(14) 0.0323(11) 0.0499(13) 0.0178(9) 0.0095(11) -0.0087(10)
C47 0.0374(11) 0.0392(11) 0.0510(13) 0.0126(9) 0.0060(10) -0.0044(10)
C48 0.0326(10) 0.0278(9) 0.0347(10) 0.0049(7) 0.0044(8) -0.0036(8)
Cl3 0.0333(2) 0.0263(2) 0.0529(3) 0.00035(17) 0.0026(2) -0.0022(2)
S3 0.0289(2) 0.0275(2) 0.0315(2) -0.00109(16) 0.01585(18) -0.00690(18)
O5 0.0264(6) 0.0218(6) 0.0417(7) 0.0053(5) 0.0062(5) 0.0055(5)
O6 0.0343(7) 0.0346(7) 0.0445(8) 0.0133(6) 0.0096(6) -0.0115(6)
N11 0.0312(8) 0.0249(7) 0.0344(8) 0.0077(6) 0.0151(7) 0.0010(6)
N12 0.0311(8) 0.0225(7) 0.0313(8) 0.0042(6) 0.0145(6) 0.0007(6)
N13 0.0274(7) 0.0189(6) 0.0281(7) 0.0035(5) 0.0120(6) 0.0009(6)
N14 0.0276(8) 0.0289(8) 0.0291(8) 0.0078(6) 0.0082(6) -0.0041(6)
N15 0.0320(8) 0.0230(7) 0.0227(7) 0.0080(6) 0.0065(6) -0.0003(6)
C49 0.0265(9) 0.0249(8) 0.0259(8) 0.0049(6) 0.0062(7) 0.0042(7)
C50 0.0310(10) 0.0260(9) 0.0484(11) 0.0108(7) 0.0087(9) 0.0017(8)
C51 0.0373(11) 0.0218(9) 0.0500(12) 0.0090(7) 0.0097(9) -0.0009(8)
C52 0.0310(9) 0.0250(9) 0.0299(9) 0.0026(7) 0.0040(7) 0.0007(7)
C53 0.0267(9) 0.0295(9) 0.0255(8) 0.0084(7) 0.0049(7) 0.0017(7)
C54 0.0300(9) 0.0212(8) 0.0266(8) 0.0072(7) 0.0072(7) 0.0014(7)
C55 0.0284(9) 0.0213(8) 0.0398(10) 0.0080(7) 0.0122(8) 0.0040(7)
C56 0.0292(9) 0.0207(8) 0.0312(9) 0.0078(6) 0.0134(7) 0.0048(7)
C57 0.0257(8) 0.0214(8) 0.0263(8) 0.0025(6) 0.0109(7) -0.0012(7)
C58 0.0383(10) 0.0254(9) 0.0336(10) 0.0093(7) 0.0084(8) 0.0023(8)
C59 0.0447(11) 0.0339(10) 0.0299(10) 0.0080(8) 0.0057(8) -0.0001(8)
C60 0.0391(11) 0.0311(10) 0.0353(10) 0.0039(8) 0.0113(8) -0.0083(8)
C61 0.0390(11) 0.0255(9) 0.0429(11) 0.0132(8) 0.0106(9) -0.0037(8)
C62 0.0348(10) 0.0246(9) 0.0334(10) 0.0083(7) 0.0099(8) 0.0006(8)
C63 0.0300(9) 0.0186(8) 0.0262(8) 0.0013(6) 0.0122(7) 0.0029(7)
C64 0.0312(10) 0.0288(9) 0.0335(9) 0.0071(7) 0.0104(8) -0.0048(8)
C65 0.0303(9) 0.0246(8) 0.0227(8) 0.0098(7) 0.0056(7) 0.0007(7)
C66 0.0288(9) 0.0289(9) 0.0254(8) 0.0042(7) 0.0058(7) 0.0006(7)
C67 0.0316(9) 0.0251(8) 0.0224(8) 0.0044(7) 0.0047(7) 0.0019(7)
C68 0.0329(10) 0.0307(9) 0.0312(9) 0.0005(7) 0.0066(8) -0.0003(8)
C69 0.0447(12) 0.0266(9) 0.0364(10) -0.0004(8) 0.0052(9) -0.0034(8)
C70 0.0493(12) 0.0281(10) 0.0429(11) 0.0122(8) 0.0055(10) -0.0058(9)
C71 0.0333(10) 0.0390(11) 0.0483(12) 0.0117(8) 0.0056(9) -0.0048(9)
C72 0.0310(10) 0.0297(9) 0.0341(10) 0.0030(7) 0.0030(8) -0.0043(8)
O7 0.0289(7) 0.0912(12) 0.0338(7) 0.0257(7) 0.0036(6) -0.0114(8)
O8 0.0342(15) 0.0482(17) 0.0395(15) 0.0091(12) 0.0171(12) -0.0027(13)
loop_
_atom_type_symbol
_atom_type_description
_atom_type_scat_dispersion_real
_atom_type_scat_dispersion_imag
_atom_type_scat_source
C C 0.0181 0.0091 'International Tables Vol C Tables 4.2.6.8 and 6.1.1.4'
H H 0.0000 0.0000 'International Tables Vol C Tables 4.2.6.8 and 6.1.1.4'
N N 0.0311 0.0180 'International Tables Vol C Tables 4.2.6.8 and 6.1.1.4'
O O 0.0492 0.0322 'International Tables Vol C Tables 4.2.6.8 and 6.1.1.4'
S S 0.3331 0.5567 'International Tables Vol C Tables 4.2.6.8 and 6.1.1.4'
Cl Cl 0.3639 0.7018 'International Tables Vol C Tables 4.2.6.8 and 6.1.1.4'
loop_
_geom_angle_atom_site_label_1
_geom_angle_atom_site_label_2
_geom_angle_atom_site_label_3
_geom_angle_site_symmetry_1
_geom_angle
C9 S1 C16 . 96.16(8)
C1 O1 C7 . 116.49(12)
C8 N1 N2 . 108.17(13)
C9 N2 N1 . 106.36(12)
C9 N3 C8 . 104.54(13)
C9 N3 C10 . 127.84(13)
C8 N3 C10 . 126.61(13)
C17 N4 N5 . 120.22(13)
C17 N4 H4N . 118.6
N5 N4 H4N . 120.9
C18 N5 N4 . 115.60(14)
C2 C1 O1 . 115.90(15)
C2 C1 C6 . 120.75(15)
O1 C1 C6 . 123.30(15)
C1 C2 C3 . 120.09(17)
C1 C2 H2 . 120.0
C3 C2 H2 . 120.0
C4 C3 C2 . 119.08(17)
C4 C3 H3 . 120.5
C2 C3 H3 . 120.5
C5 C4 C3 . 121.18(16)
C5 C4 Cl1 . 119.16(14)
C3 C4 Cl1 . 119.65(14)
C4 C5 C6 . 119.85(16)
C4 C5 H5 . 120.1
C6 C5 H5 . 120.1
C1 C6 C5 . 119.04(15)
C1 C6 H6 . 120.5
C5 C6 H6 . 120.5
O1 C7 C8 . 106.34(13)
O1 C7 H7A . 110.5
C8 C7 H7A . 110.5
O1 C7 H7B . 110.5
C8 C7 H7B . 110.5
H7A C7 H7B . 108.7
N1 C8 N3 . 110.01(14)
N1 C8 C7 . 125.92(15)
N3 C8 C7 . 124.01(14)
N2 C9 N3 . 110.92(14)
N2 C9 S1 . 127.74(12)
N3 C9 S1 . 121.30(12)
C11 C10 C15 . 121.80(15)
C11 C10 N3 . 118.07(15)
C15 C10 N3 . 120.13(15)
C10 C11 C12 . 119.01(17)
C10 C11 H11 . 120.5
C12 C11 H11 . 120.5
C13 C12 C11 . 120.10(18)
C13 C12 H12 . 119.9
C11 C12 H12 . 119.9
C12 C13 C14 . 120.12(17)
C12 C13 H13 . 119.9
C14 C13 H13 . 119.9
C13 C14 C15 . 120.43(17)
C13 C14 H14 . 119.8
C15 C14 H14 . 119.8
C10 C15 C14 . 118.53(17)
C10 C15 H15 . 120.7
C14 C15 H15 . 120.7
C17 C16 S1 . 109.05(11)
C17 C16 H16A . 109.9
S1 C16 H16A . 109.9
C17 C16 H16B . 109.9
S1 C16 H16B . 109.9
H16A C16 H16B . 108.3
O2 C17 N4 . 121.56(15)
O2 C17 C16 . 122.23(14)
N4 C17 C16 . 116.19(14)
N5 C18 C19 . 120.97(15)
N5 C18 H18 . 119.5
C19 C18 H18 . 119.5
C20 C19 C24 . 118.65(15)
C20 C19 C18 . 122.22(15)
C24 C19 C18 . 119.12(15)
C21 C20 C19 . 120.39(16)
C21 C20 H20 . 119.8
C19 C20 H20 . 119.8
C20 C21 C22 . 120.49(19)
C20 C21 H21 . 119.8
C22 C21 H21 . 119.8
C23 C22 C21 . 119.67(18)
C23 C22 H22 . 120.2
C21 C22 H22 . 120.2
C22 C23 C24 . 120.08(16)
C22 C23 H23 . 120.0
C24 C23 H23 . 120.0
C23 C24 C19 . 120.72(17)
C23 C24 H24 . 119.6
C19 C24 H24 . 119.6
C33 S2 C40 . 95.76(8)
C25 O3 C31 . 117.59(13)
C32 N6 N7 . 107.39(13)
C33 N7 N6 . 106.74(13)
C33 N8 C32 . 104.07(13)
C33 N8 C34 . 127.89(14)
C32 N8 C34 . 126.48(14)
C41 N9 N10 . 119.91(14)
C41 N9 H9N . 118.8
N10 N9 H9N . 121.3
C42 N10 N9 . 116.59(15)
O3 C25 C26 . 115.48(15)
O3 C25 C30 . 123.87(15)
C26 C25 C30 . 120.58(16)
C25 C26 C27 . 119.87(18)
C25 C26 H26 . 120.1
C27 C26 H26 . 120.1
C28 C27 C26 . 119.45(18)
C28 C27 H27 . 120.3
C26 C27 H27 . 120.3
C27 C28 C29 . 120.95(17)
C27 C28 Cl2 . 119.41(14)
C29 C28 Cl2 . 119.63(14)
C28 C29 C30 . 119.91(17)
C28 C29 H29 . 120.0
C30 C29 H29 . 120.0
C25 C30 C29 . 119.25(16)
C25 C30 H30 . 120.4
C29 C30 H30 . 120.4
O3 C31 C32 . 106.23(13)
O3 C31 H31A . 110.5
C32 C31 H31A . 110.5
O3 C31 H31B . 110.5
C32 C31 H31B . 110.5
H31A C31 H31B . 108.7
N6 C32 N8 . 110.78(14)
N6 C32 C31 . 125.66(15)
N8 C32 C31 . 123.47(14)
N7 C33 N8 . 111.01(14)
N7 C33 S2 . 127.73(12)
N8 C33 S2 . 121.22(12)
C35 C34 C39 . 121.82(15)
C35 C34 N8 . 120.27(15)
C39 C34 N8 . 117.91(14)
C34 C35 C36 . 118.33(17)
C34 C35 H35 . 120.8
C36 C35 H35 . 120.8
C37 C36 C35 . 120.68(17)
C37 C36 H36 . 119.7
C35 C36 H36 . 119.7
C38 C37 C36 . 119.94(16)
C38 C37 H37 . 120.0
C36 C37 H37 . 120.0
C37 C38 C39 . 120.11(18)
C37 C38 H38 . 119.9
C39 C38 H38 . 119.9
C34 C39 C38 . 119.09(17)
C34 C39 H39 . 120.5
C38 C39 H39 . 120.5
C41 C40 S2 . 109.83(11)
C41 C40 H40A . 109.7
S2 C40 H40A . 109.7
C41 C40 H40B . 109.7
S2 C40 H40B . 109.7
H40A C40 H40B . 108.2
O4 C41 N9 . 121.41(16)
O4 C41 C40 . 123.20(15)
N9 C41 C40 . 115.37(14)
N10 C42 C43 . 120.19(16)
N10 C42 H42 . 119.9
C43 C42 H42 . 119.9
C44 C43 C48 . 119.28(17)
C44 C43 C42 . 119.05(17)
C48 C43 C42 . 121.66(15)
C45 C44 C43 . 120.23(18)
C45 C44 H44 . 119.9
C43 C44 H44 . 119.9
C46 C45 C44 . 120.10(18)
C46 C45 H45 . 120.0
C44 C45 H45 . 120.0
C45 C46 C47 . 120.19(19)
C45 C46 H46 . 119.9
C47 C46 H46 . 119.9
C48 C47 C46 . 120.0(2)
C48 C47 H47 . 120.0
C46 C47 H47 . 120.0
C47 C48 C43 . 120.18(17)
C47 C48 H48 . 119.9
C43 C48 H48 . 119.9
C63 S3 C64 . 96.30(8)
C49 O5 C55 . 116.14(13)
C56 N11 N12 . 107.98(13)
C63 N12 N11 . 106.20(14)
C63 N13 C56 . 104.31(14)
C63 N13 C57 . 127.68(14)
C56 N13 C57 . 127.21(14)
C65 N14 N15 . 121.52(15)
C65 N14 H14N . 118.5
N15 N14 H14N . 119.9
C66 N15 N14 . 115.49(15)
O5 C49 C50 . 115.39(15)
O5 C49 C54 . 123.84(15)
C50 C49 C54 . 120.74(16)
C49 C50 C51 . 120.17(17)
C49 C50 H50 . 119.9
C51 C50 H50 . 119.9
C52 C51 C50 . 119.02(17)
C52 C51 H51 . 120.5
C50 C51 H51 . 120.5
C53 C52 C51 . 120.91(17)
C53 C52 Cl3 . 119.54(14)
C51 C52 Cl3 . 119.54(14)
C52 C53 C54 . 120.19(16)
C52 C53 H53 . 119.9
C54 C53 H53 . 119.9
C49 C54 C53 . 118.97(16)
C49 C54 H54 . 120.5
C53 C54 H54 . 120.5
O5 C55 C56 . 107.07(14)
O5 C55 H55A . 110.3
C56 C55 H55A . 110.3
O5 C55 H55B . 110.3
C56 C55 H55B . 110.3
H55A C55 H55B . 108.6
N11 C56 N13 . 110.27(15)
N11 C56 C55 . 125.53(15)
N13 C56 C55 . 124.16(15)
C62 C57 C58 . 121.49(16)
C62 C57 N13 . 120.12(16)
C58 C57 N13 . 118.38(15)
C57 C58 C59 . 119.32(17)
C57 C58 H58 . 120.3
C59 C58 H58 . 120.3
C60 C59 C58 . 119.82(18)
C60 C59 H59 . 120.1
C58 C59 H59 . 120.1
C61 C60 C59 . 120.24(17)
C61 C60 H60 . 119.9
C59 C60 H60 . 119.9
C60 C61 C62 . 120.61(17)
C60 C61 H61 . 119.7
C62 C61 H61 . 119.7
C57 C62 C61 . 118.52(18)
C57 C62 H62 . 120.7
C61 C62 H62 . 120.7
N12 C63 N13 . 111.24(15)
N12 C63 S3 . 127.30(13)
N13 C63 S3 . 121.45(12)
C65 C64 S3 . 109.11(12)
C65 C64 H64A . 109.9
S3 C64 H64A . 109.9
C65 C64 H64B . 109.9
S3 C64 H64B . 109.9
H64A C64 H64B . 108.3
O6 C65 N14 . 121.07(16)
O6 C65 C64 . 121.71(16)
N14 C65 C64 . 117.20(15)
N15 C66 C67 . 121.05(16)
N15 C66 H66 . 119.5
C67 C66 H66 . 119.5
C72 C67 C68 . 118.78(17)
C72 C67 C66 . 122.41(16)
C68 C67 C66 . 118.80(17)
C69 C68 C67 . 120.40(18)
C69 C68 H68 . 119.8
C67 C68 H68 . 119.8
C70 C69 C68 . 120.16(17)
C70 C69 H69 . 119.9
C68 C69 H69 . 119.9
C69 C70 C71 . 119.94(18)
C69 C70 H70 . 120.0
C71 C70 H70 . 120.0
C72 C71 C70 . 120.17(19)
C72 C71 H71 . 119.9
C70 C71 H71 . 119.9
C71 C72 C67 . 120.54(17)
C71 C72 H72 . 119.7
C67 C72 H72 . 119.7
H7D O7 H7C . 104.1
O8 O8 H8A 2_565 60.2
H8A O8 H8B . 104.0
loop_
_geom_bond_atom_site_label_1
_geom_bond_atom_site_label_2
_geom_bond_site_symmetry_2
_geom_bond_distance
Cl1 C4 . 1.7436(17)
S1 C9 . 1.7394(16)
S1 C16 . 1.8020(17)
O1 C1 . 1.3808(19)
O1 C7 . 1.4309(19)
O2 C17 . 1.2315(19)
N1 C8 . 1.307(2)
N1 N2 . 1.3931(18)
N2 C9 . 1.313(2)
N3 C9 . 1.3716(19)
N3 C8 . 1.373(2)
N3 C10 . 1.4394(19)
N4 C17 . 1.345(2)
N4 N5 . 1.3735(18)
N4 H4N . 0.9100
N5 C18 . 1.284(2)
C1 C2 . 1.380(2)
C1 C6 . 1.386(2)
C2 C3 . 1.391(2)
C2 H2 . 0.9500
C3 C4 . 1.379(3)
C3 H3 . 0.9500
C4 C5 . 1.377(2)
C5 C6 . 1.394(2)
C5 H5 . 0.9500
C6 H6 . 0.9500
C7 C8 . 1.484(2)
C7 H7A . 0.9900
C7 H7B . 0.9900
C10 C11 . 1.379(2)
C10 C15 . 1.380(2)
C11 C12 . 1.391(2)
C11 H11 . 0.9500
C12 C13 . 1.379(3)
C12 H12 . 0.9500
C13 C14 . 1.383(3)
C13 H13 . 0.9500
C14 C15 . 1.391(2)
C14 H14 . 0.9500
C15 H15 . 0.9500
C16 C17 . 1.496(2)
C16 H16A . 0.9900
C16 H16B . 0.9900
C18 C19 . 1.460(2)
C18 H18 . 0.9500
C19 C20 . 1.395(2)
C19 C24 . 1.399(2)
C20 C21 . 1.382(3)
C20 H20 . 0.9500
C21 C22 . 1.391(3)
C21 H21 . 0.9500
C22 C23 . 1.381(3)
C22 H22 . 0.9500
C23 C24 . 1.387(2)
C23 H23 . 0.9500
C24 H24 . 0.9500
Cl2 C28 . 1.7428(18)
S2 C33 . 1.7431(17)
S2 C40 . 1.8024(17)
O3 C25 . 1.378(2)
O3 C31 . 1.4279(19)
O4 C41 . 1.231(2)
N6 C32 . 1.306(2)
N6 N7 . 1.3958(19)
N7 C33 . 1.312(2)
N8 C33 . 1.371(2)
N8 C32 . 1.374(2)
N8 C34 . 1.4404(19)
N9 C41 . 1.348(2)
N9 N10 . 1.3734(19)
N9 H9N . 0.9099
N10 C42 . 1.274(2)
C25 C26 . 1.382(2)
C25 C30 . 1.384(2)
C26 C27 . 1.391(3)
C26 H26 . 0.9500
C27 C28 . 1.374(3)
C27 H27 . 0.9500
C28 C29 . 1.378(2)
C29 C30 . 1.392(2)
C29 H29 . 0.9500
C30 H30 . 0.9500
C31 C32 . 1.485(2)
C31 H31A . 0.9900
C31 H31B . 0.9900
C34 C35 . 1.378(2)
C34 C39 . 1.379(2)
C35 C36 . 1.393(2)
C35 H35 . 0.9500
C36 C37 . 1.382(3)
C36 H36 . 0.9500
C37 C38 . 1.380(3)
C37 H37 . 0.9500
C38 C39 . 1.389(2)
C38 H38 . 0.9500
C39 H39 . 0.9500
C40 C41 . 1.492(2)
C40 H40A . 0.9900
C40 H40B . 0.9900
C42 C43 . 1.462(2)
C42 H42 . 0.9500
C43 C44 . 1.395(2)
C43 C48 . 1.396(3)
C44 C45 . 1.388(3)
C44 H44 . 0.9500
C45 C46 . 1.377(3)
C45 H45 . 0.9500
C46 C47 . 1.393(3)
C46 H46 . 0.9500
C47 C48 . 1.383(3)
C47 H47 . 0.9500
C48 H48 . 0.9500
Cl3 C52 . 1.7391(18)
S3 C63 . 1.7412(17)
S3 C64 . 1.7986(18)
O5 C49 . 1.377(2)
O5 C55 . 1.426(2)
O6 C65 . 1.230(2)
N11 C56 . 1.306(2)
N11 N12 . 1.395(2)
N12 C63 . 1.312(2)
N13 C63 . 1.368(2)
N13 C56 . 1.373(2)
N13 C57 . 1.441(2)
N14 C65 . 1.346(2)
N14 N15 . 1.3731(19)
N14 H14N . 0.9100
N15 C66 . 1.283(2)
C49 C50 . 1.381(2)
C49 C54 . 1.388(2)
C50 C51 . 1.388(3)
C50 H50 . 0.9500
C51 C52 . 1.386(3)
C51 H51 . 0.9500
C52 C53 . 1.376(2)
C53 C54 . 1.391(2)
C53 H53 . 0.9500
C54 H54 . 0.9500
C55 C56 . 1.484(2)
C55 H55A . 0.9900
C55 H55B . 0.9900
C57 C62 . 1.384(2)
C57 C58 . 1.385(2)
C58 C59 . 1.390(2)
C58 H58 . 0.9500
C59 C60 . 1.384(3)
C59 H59 . 0.9500
C60 C61 . 1.384(3)
C60 H60 . 0.9500
C61 C62 . 1.391(2)
C61 H61 . 0.9500
C62 H62 . 0.9500
C64 C65 . 1.495(2)
C64 H64A . 0.9900
C64 H64B . 0.9900
C66 C67 . 1.459(2)
C66 H66 . 0.9500
C67 C72 . 1.395(3)
C67 C68 . 1.400(2)
C68 C69 . 1.387(3)
C68 H68 . 0.9500
C69 C70 . 1.380(3)
C69 H69 . 0.9500
C70 C71 . 1.391(3)
C70 H70 . 0.9500
C71 C72 . 1.381(3)
C71 H71 . 0.9500
C72 H72 . 0.9500
O7 H7D . 0.8699
O7 H7C . 0.8699
O8 O8 2_565 1.663(6)
O8 H8A . 0.8700
O8 H8B . 0.8700
loop_
_geom_hbond_atom_site_label_D
_geom_hbond_atom_site_label_H
_geom_hbond_atom_site_label_A
_geom_hbond_site_symmetry_A
_geom_hbond_distance_DH
_geom_hbond_distance_HA
_geom_hbond_distance_DA
_geom_hbond_angle_DHA
N4 H4N O7 1_655 0.91 1.86 2.7527(19) 166
C6 H6 O2 1_455 0.95 2.36 3.2815(19) 163
C7 H7A O2 1_455 0.99 2.35 3.304(2) 162
C30 H30 O4 1_655 0.95 2.48 3.395(2) 161
C31 H31B O4 1_655 0.99 2.44 3.419(2) 170
C39 H39 N6 2_666 0.95 2.51 3.386(2) 154
N14 H14N O8 . 0.91 1.98 2.802(3) 149
C54 H54 O6 1_655 0.95 2.41 3.329(2) 163
C55 H55B O6 1_655 0.99 2.35 3.254(2) 151
O7 H7D O4 1_655 0.87 2.14 2.9668(19) 160
O7 H7C N1 . 0.87 1.96 2.8239(19) 176
O8 H8A N11 1_455 0.87 2.05 2.897(3) 164
O8 H8B N11 2_665 0.87 2.16 2.853(3) 136
C15 H15 Cg8 1_655 0.95 2.74 3.670(2) 168
C35 H35 Cg4 1_455 0.95 2.77 3.709(2) 169
C62 H62 Cg12 2_665 0.95 2.81 3.714(2) 159
loop_
_geom_torsion_atom_site_label_1
_geom_torsion_atom_site_label_2
_geom_torsion_atom_site_label_3
_geom_torsion_atom_site_label_4
_geom_torsion
C8 N1 N2 C9 -0.56(18)
C17 N4 N5 C18 176.79(15)
C7 O1 C1 C2 149.15(16)
C7 O1 C1 C6 -33.2(2)
O1 C1 C2 C3 177.38(18)
C6 C1 C2 C3 -0.4(3)
C1 C2 C3 C4 -0.1(3)
C2 C3 C4 C5 0.2(3)
C2 C3 C4 Cl1 179.51(16)
C3 C4 C5 C6 0.3(3)
Cl1 C4 C5 C6 -179.07(13)
C2 C1 C6 C5 0.8(3)
O1 C1 C6 C5 -176.77(15)
C4 C5 C6 C1 -0.8(3)
C1 O1 C7 C8 -171.47(13)
N2 N1 C8 N3 0.18(18)
N2 N1 C8 C7 177.31(15)
C9 N3 C8 N1 0.24(18)
C10 N3 C8 N1 -168.91(15)
C9 N3 C8 C7 -176.95(15)
C10 N3 C8 C7 13.9(3)
O1 C7 C8 N1 -120.09(17)
O1 C7 C8 N3 56.6(2)
N1 N2 C9 N3 0.73(18)
N1 N2 C9 S1 -177.01(12)
C8 N3 C9 N2 -0.61(18)
C10 N3 C9 N2 168.36(15)
C8 N3 C9 S1 177.29(12)
C10 N3 C9 S1 -13.7(2)
C16 S1 C9 N2 -7.22(17)
C16 S1 C9 N3 175.25(14)
C9 N3 C10 C11 -101.6(2)
C8 N3 C10 C11 65.1(2)
C9 N3 C10 C15 77.8(2)
C8 N3 C10 C15 -115.58(19)
C15 C10 C11 C12 0.7(3)
N3 C10 C11 C12 -179.99(17)
C10 C11 C12 C13 -0.6(3)
C11 C12 C13 C14 0.0(3)
C12 C13 C14 C15 0.4(3)
C11 C10 C15 C14 -0.3(3)
N3 C10 C15 C14 -179.58(16)
C13 C14 C15 C10 -0.3(3)
C9 S1 C16 C17 177.06(13)
N5 N4 C17 O2 177.84(14)
N5 N4 C17 C16 -4.0(2)
S1 C16 C17 O2 -11.9(2)
S1 C16 C17 N4 169.94(12)
N4 N5 C18 C19 179.70(14)
N5 C18 C19 C20 5.5(3)
N5 C18 C19 C24 -173.33(16)
C24 C19 C20 C21 0.4(3)
C18 C19 C20 C21 -178.38(18)
C19 C20 C21 C22 0.0(3)
C20 C21 C22 C23 -0.3(3)
C21 C22 C23 C24 0.3(3)
C22 C23 C24 C19 0.1(3)
C20 C19 C24 C23 -0.5(3)
C18 C19 C24 C23 178.37(16)
C32 N6 N7 C33 0.63(17)
C41 N9 N10 C42 -176.21(16)
C31 O3 C25 C26 -149.29(17)
C31 O3 C25 C30 33.8(2)
O3 C25 C26 C27 -176.77(19)
C30 C25 C26 C27 0.2(3)
C25 C26 C27 C28 -0.1(3)
C26 C27 C28 C29 0.2(3)
C26 C27 C28 Cl2 -178.96(17)
C27 C28 C29 C30 -0.4(3)
Cl2 C28 C29 C30 178.75(14)
O3 C25 C30 C29 176.29(16)
C26 C25 C30 C29 -0.4(3)
C28 C29 C30 C25 0.5(3)
C25 O3 C31 C32 176.58(14)
N7 N6 C32 N8 -0.41(18)
N7 N6 C32 C31 -177.17(15)
C33 N8 C32 N6 0.04(18)
C34 N8 C32 N6 166.64(15)
C33 N8 C32 C31 176.89(15)
C34 N8 C32 C31 -16.5(3)
O3 C31 C32 N6 119.30(17)
O3 C31 C32 N8 -57.1(2)
N6 N7 C33 N8 -0.62(18)
N6 N7 C33 S2 177.23(12)
C32 N8 C33 N7 0.38(18)
C34 N8 C33 N7 -165.96(15)
C32 N8 C33 S2 -177.63(12)
C34 N8 C33 S2 16.0(2)
C40 S2 C33 N7 11.95(17)
C40 S2 C33 N8 -170.39(14)
C33 N8 C34 C35 -87.0(2)
C32 N8 C34 C35 109.6(2)
C33 N8 C34 C39 93.7(2)
C32 N8 C34 C39 -69.7(2)
C39 C34 C35 C36 1.3(3)
N8 C34 C35 C36 -178.00(16)
C34 C35 C36 C37 0.4(3)
C35 C36 C37 C38 -1.5(3)
C36 C37 C38 C39 0.9(3)
C35 C34 C39 C38 -1.8(3)
N8 C34 C39 C38 177.46(17)
C37 C38 C39 C34 0.7(3)
C33 S2 C40 C41 176.14(13)
N10 N9 C41 O4 179.24(15)
N10 N9 C41 C40 0.9(2)
S2 C40 C41 O4 9.7(2)
S2 C40 C41 N9 -172.01(13)
N9 N10 C42 C43 -179.38(15)
N10 C42 C43 C44 173.62(17)
N10 C42 C43 C48 -5.2(3)
C48 C43 C44 C45 0.7(3)
C42 C43 C44 C45 -178.18(17)
C43 C44 C45 C46 -1.2(3)
C44 C45 C46 C47 0.8(3)
C45 C46 C47 C48 0.2(4)
C46 C47 C48 C43 -0.7(3)
C44 C43 C48 C47 0.3(3)
C42 C43 C48 C47 179.09(18)
C56 N11 N12 C63 0.71(19)
C65 N14 N15 C66 -176.10(16)
C55 O5 C49 C50 -158.03(16)
C55 O5 C49 C54 23.8(2)
O5 C49 C50 C51 -178.40(18)
C54 C49 C50 C51 -0.2(3)
C49 C50 C51 C52 0.5(3)
C50 C51 C52 C53 -0.1(3)
C50 C51 C52 Cl3 -179.50(16)
C51 C52 C53 C54 -0.5(3)
Cl3 C52 C53 C54 178.92(13)
O5 C49 C54 C53 177.66(16)
C50 C49 C54 C53 -0.4(3)
C52 C53 C54 C49 0.7(3)
C49 O5 C55 C56 171.56(14)
N12 N11 C56 N13 -0.38(19)
N12 N11 C56 C55 -177.96(16)
C63 N13 C56 N11 -0.09(19)
C57 N13 C56 N11 170.26(15)
C63 N13 C56 C55 177.53(16)
C57 N13 C56 C55 -12.1(3)
O5 C55 C56 N11 122.18(18)
O5 C55 C56 N13 -55.1(2)
C63 N13 C57 C62 -71.9(2)
C56 N13 C57 C62 119.97(19)
C63 N13 C57 C58 107.1(2)
C56 N13 C57 C58 -61.1(2)
C62 C57 C58 C59 0.5(3)
N13 C57 C58 C59 -178.39(16)
C57 C58 C59 C60 0.2(3)
C58 C59 C60 C61 -0.8(3)
C59 C60 C61 C62 0.6(3)
C58 C57 C62 C61 -0.7(3)
N13 C57 C62 C61 178.18(16)
C60 C61 C62 C57 0.2(3)
N11 N12 C63 N13 -0.79(19)
N11 N12 C63 S3 178.29(13)
C56 N13 C63 N12 0.56(19)
C57 N13 C63 N12 -169.72(16)
C56 N13 C63 S3 -178.58(12)
C57 N13 C63 S3 11.1(2)
C64 S3 C63 N12 -3.31(18)
C64 S3 C63 N13 175.68(15)
C63 S3 C64 C65 176.38(13)
N15 N14 C65 O6 -177.96(16)
N15 N14 C65 C64 3.5(2)
S3 C64 C65 O6 23.7(2)
S3 C64 C65 N14 -157.77(13)
N14 N15 C66 C67 -179.26(15)
N15 C66 C67 C72 -2.7(3)
N15 C66 C67 C68 176.14(17)
C72 C67 C68 C69 0.6(3)
C66 C67 C68 C69 -178.20(17)
C67 C68 C69 C70 -0.5(3)
C68 C69 C70 C71 -0.1(3)
C69 C70 C71 C72 0.5(3)
C70 C71 C72 C67 -0.3(3)
C68 C67 C72 C71 -0.2(3)
C66 C67 C72 C71 178.56(18)

_cod_database_fobs_code 1543174
