#------------------------------------------------------------------------------
#$Date: 2016-08-07 12:45:03 +0300 (Sun, 07 Aug 2016) $
#$Revision: 185679 $
#$URL: file:///home/coder/svn-repositories/cod/cif/1/54/32/1543212.cif $
#------------------------------------------------------------------------------
#
# This file is available in the Crystallography Open Database (COD),
# http://www.crystallography.net/
#
# All data on this site have been placed in the public domain by the
# contributors.
#
data_1543212
loop_
_publ_author_name
'Conboy, Gary'
'Spencer, Howard J.'
'Angioni, Enrico'
'Kanibolotsky, Alexander L.'
'Findlay, Neil J.'
'Coles, Simon J.'
'Wilson, Claire'
'Pitak, Mateusz B.'
'Risko, Chad'
'Coropceanu, Veaceslav'
'Br\'edas, Jean-Luc'
'Skabara, Peter J.'
_publ_section_title
;
 To bend or not to bend -- are heteroatom interactions within conjugated
 molecules effective in dictating conformation and planarity?
;
_journal_issue                   4
_journal_name_full               'Mater. Horiz.'
_journal_page_first              333
_journal_paper_doi               10.1039/C6MH00051G
_journal_volume                  3
_journal_year                    2016
_chemical_formula_moiety         'C34 H34 N4 O2 S2'
_chemical_formula_sum            'C34 H34 N4 O2 S2'
_chemical_formula_weight         594.77
_space_group_crystal_system      monoclinic
_space_group_IT_number           14
_space_group_name_Hall           '-P 2ybc'
_space_group_name_H-M_alt        'P 1 21/c 1'
_symmetry_Int_Tables_number      14
_symmetry_space_group_name_Hall  '-P 2ybc'
_symmetry_space_group_name_H-M   'P 1 21/c 1'
_atom_sites_solution_hydrogens   geom
_audit_creation_date             2015-12-07
_audit_creation_method
;
Olex2 1.2
(compiled 2015.09.30 svn.r3233 for OlexSys, GUI svn.r5103)
;
_audit_update_record
;
2015-12-07 deposited with the CCDC.
2016-04-26 downloaded from the CCDC.
;
_cell_angle_alpha                90
_cell_angle_beta                 109.041(8)
_cell_angle_gamma                90
_cell_formula_units_Z            2
_cell_length_a                   14.526(2)
_cell_length_b                   5.1215(7)
_cell_length_c                   20.577(3)
_cell_measurement_reflns_used    8189
_cell_measurement_temperature    100
_cell_measurement_theta_max      25.1
_cell_measurement_theta_min      3.0
_cell_volume                     1447.1(4)
_computing_cell_refinement
;
CrystalClear-SM Expert 3.1 b27 (Rigaku, 20112)
;
_computing_data_collection
;
CrystalClear-SM Expert 3.1 b27 (Rigaku, 20112)
;
_computing_data_reduction
;
CrystalClear-SM Expert 3.1 b27 (Rigaku, 20112)
;
_computing_molecular_graphics    'Olex2 (Dolomanov et al., 2009)'
_computing_publication_material  'Olex2 (Dolomanov et al., 2009)'
_computing_structure_refinement  'ShelXL (Sheldrick, 2015)'
_computing_structure_solution
;
Superflip (Palatinus & Chapuis, 2007;Palatinus & van der Lee, 2008;
Palatinus et al., 2012)
;
_diffrn_ambient_temperature      100(2)
_diffrn_detector                 'CCD plate'
_diffrn_detector_area_resol_mean 28.5714
_diffrn_detector_type            'Rigaku HG Saturn724+ (2x2 bin mode)'
_diffrn_measured_fraction_theta_full 0.996
_diffrn_measured_fraction_theta_max 0.996
_diffrn_measurement_details
;
scan:
    Number of images: 133
               Slice: -60.0000 - 73.0000
         Image width: 1.0000
            Exp time: 15.0000
       Rotation axis: Omega
               Omega: 0.0000
               Kappa: 14.0000
                 Phi: -180.0000
                 XTD: 44.9826
              2theta: -17.1738
scan:
    Number of images: 120
               Slice: -98.0000 - 22.0000
         Image width: 1.0000
            Exp time: 15.0000
       Rotation axis: Omega
               Omega: 0.0000
               Kappa: -72.0000
                 Phi: -129.0000
                 XTD: 44.9826
              2theta: -17.1738
scan:
    Number of images: 104
               Slice: -82.0000 - 22.0000
         Image width: 1.0000
            Exp time: 15.0000
       Rotation axis: Omega
               Omega: 0.0000
               Kappa: -72.0000
                 Phi: 25.0000
                 XTD: 44.9826
              2theta: -17.1738
scan:
    Number of images: 34
               Slice: -44.0000 - -10.0000
         Image width: 1.0000
            Exp time: 15.0000
       Rotation axis: Omega
               Omega: 0.0000
               Kappa: 72.0000
                 Phi: -180.0000
                 XTD: 44.9826
              2theta: -17.1738
scan:
    Number of images: 10
               Slice: 0.0000 - 10.0000
         Image width: 1.0000
            Exp time: 15.0000
       Rotation axis: Omega
               Omega: 0.0000
               Kappa: -44.0000
                 Phi: -129.0000
                 XTD: 44.9826
              2theta: -17.1738
scan:
    Number of images: 133
               Slice: -60.0000 - 73.0000
         Image width: 1.0000
            Exp time: 15.0000
       Rotation axis: Omega
               Omega: 0.0000
               Kappa: 14.0000
                 Phi: 77.0000
                 XTD: 44.9826
              2theta: -17.1738
scan:
    Number of images: 21
               Slice: -98.0000 - -77.0000
         Image width: 1.0000
            Exp time: 15.0000
       Rotation axis: Omega
               Omega: 0.0000
               Kappa: -72.0000
                 Phi: 128.0000
                 XTD: 44.9826
              2theta: -17.1738
;
_diffrn_measurement_device       'four-circle \k goniometer'
_diffrn_measurement_device_type  'Rigaku AFC12 (Right)'
_diffrn_measurement_method       'profile data from \w-scans'
_diffrn_measurement_specimen_support 'MiTeGen MicroLoop'
_diffrn_orient_matrix_type       d*Trek
_diffrn_orient_matrix_UB_11      0.049974
_diffrn_orient_matrix_UB_12      -0.001924
_diffrn_orient_matrix_UB_13      0.011045
_diffrn_orient_matrix_UB_21      -0.019666
_diffrn_orient_matrix_UB_22      -0.184591
_diffrn_orient_matrix_UB_23      0.056834
_diffrn_orient_matrix_UB_31      0.036297
_diffrn_orient_matrix_UB_32      -0.021975
_diffrn_orient_matrix_UB_33      -0.058814
_diffrn_radiation_collimation    'Confocal mirrors, HF Varimax '
_diffrn_radiation_type           MoK\a
_diffrn_radiation_wavelength     0.71075
_diffrn_reflns_av_R_equivalents  0.148
_diffrn_reflns_av_unetI/netI     0.260
_diffrn_reflns_Laue_measured_fraction_full 0.996
_diffrn_reflns_Laue_measured_fraction_max 0.996
_diffrn_reflns_limit_h_max       6
_diffrn_reflns_limit_h_min       -5
_diffrn_reflns_limit_k_max       16
_diffrn_reflns_limit_k_min       -16
_diffrn_reflns_limit_l_max       22
_diffrn_reflns_limit_l_min       -23
_diffrn_reflns_number            16020
_diffrn_reflns_point_group_measured_fraction_full 0.996
_diffrn_reflns_point_group_measured_fraction_max 0.996
_diffrn_reflns_theta_full        25.058
_diffrn_reflns_theta_max         25.058
_diffrn_reflns_theta_min         3.023
_diffrn_reflns_transf_matrix_11  0.049974
_diffrn_reflns_transf_matrix_12  -0.001924
_diffrn_reflns_transf_matrix_13  0.011045
_diffrn_reflns_transf_matrix_21  -0.019666
_diffrn_reflns_transf_matrix_22  -0.184591
_diffrn_reflns_transf_matrix_23  0.056834
_diffrn_reflns_transf_matrix_31  0.036297
_diffrn_reflns_transf_matrix_32  -0.021975
_diffrn_reflns_transf_matrix_33  -0.058814
_diffrn_source                   'Rotating Anode'
_diffrn_source_current           55.0
_diffrn_source_power             2.475
_diffrn_source_voltage           45.0
_exptl_absorpt_coefficient_mu    0.224
_exptl_absorpt_correction_T_max  1.000
_exptl_absorpt_correction_T_min  0.617
_exptl_absorpt_correction_type   multi-scan
_exptl_absorpt_process_details
;
CrystalClear-SM Expert 3.1 b27 (Rigaku, 20112)
;
_exptl_crystal_colour            Yellow
_exptl_crystal_density_diffrn    1.365
_exptl_crystal_description       Block
_exptl_crystal_F_000             628
_exptl_crystal_size_max          0.09
_exptl_crystal_size_mid          0.05
_exptl_crystal_size_min          0.03
_refine_diff_density_max         0.754
_refine_diff_density_min         -0.359
_refine_diff_density_rms         0.080
_refine_ls_extinction_method     none
_refine_ls_goodness_of_fit_ref   1.137
_refine_ls_hydrogen_treatment    constr
_refine_ls_matrix_type           full
_refine_ls_number_parameters     191
_refine_ls_number_reflns         2550
_refine_ls_number_restraints     291
_refine_ls_restrained_S_all      1.101
_refine_ls_R_factor_all          0.3045
_refine_ls_R_factor_gt           0.1450
_refine_ls_shift/su_max          0.000
_refine_ls_shift/su_mean         0.000
_refine_ls_structure_factor_coef Fsqd
_refine_ls_weighting_details
'w=1/[\s^2^(Fo^2^)+(0.2000P)^2^] where P=(Fo^2^+2Fc^2^)/3'
_refine_ls_weighting_scheme      calc
_refine_ls_wR_factor_gt          0.3462
_refine_ls_wR_factor_ref         0.4364
_reflns_Friedel_coverage         0.000
_reflns_number_gt                938
_reflns_number_total             2550
_reflns_threshold_expression     'I > 2\s(I)'
_cod_data_source_file            c6mh00051g2.cif
_cod_data_source_block           2013ncs0660
_cod_depositor_comments
;
The following automatic conversions were performed:

'_exptl_absorpt_correction_type' value 'Multi-scan' changed to
'multi-scan' according to
/usr/data/users/saulius/crontab/automatic-downloads/rss-feeds/RSC/lib/dictionaries/cif_core.dic
dictionary named 'cif_core.dic' version 2.4.2 from 2011-04-26.

Automatic conversion script
Id: cif_fix_values 4268 2015-11-12 08:31:59Z antanas 

 Adding full bibliography for 1543209--1543212.cif.
;
_cod_original_cell_volume        1447.0(4)
_cod_database_code               1543212
_shelx_space_group_comment
;
The symmetry employed for this shelxl refinement is uniquely defined
by the following loop, which should always be used as a source of
symmetry information in preference to the above space-group names.
They are only intended as comments.
;
_olex2_refinement_description
;
1. Fixed Uiso
 At 1.2 times of:
  All C(H) groups, All C(H,H) groups
 At 1.5 times of:
  All C(H,H,H) groups
2. Restrained distances
 C5-C6 = C7-C6 = C7-C8 = C8-C9 = C9-C10 = C11-C10
 1.51 with sigma of 0.01
3. Uiso/Uaniso restraints and constraints
All non-hydrogen atoms restrained to be isotropic: with sigma of 0.1 and sigma
for terminal atoms of 0.2
4. Rigid body (RIGU) restrains
 All non-hydrogen atoms
 with sigma for 1-2 distances of 0.004 and sigma for 1-3 distances of 0.004
5.a Secondary CH2 refined with riding coordinates:
 C6(H6A,H6B), C7(H7A,H7B), C8(H8A,H8B), C9(H9A,H9B), C10(H10A,H10B)
5.b Aromatic/amide H refined with riding coordinates:
 C15(H15), C16(H16), C17(H17), C18(H18)
5.c Idealised Me refined as rotating group:
 C11(H11A,H11B,H11C)
;
_shelx_res_file
;
    2013ncs0660.res created by SHELXL-2014/7

TITL proc2
CELL 0.71075 14.526 5.1215 20.577 90 109.041 90
ZERR 2 0.002 0.0007 0.003 0 0.008 0
LATT 1
SYMM -X,0.5+Y,0.5-Z
SFAC C H N O S
UNIT 68 68 8 4 4
DFIX 1.51 0.01 C5 C6 C7 C6 C7 C8 C8 C9 C9 C10 C11 C10
RIGU
ISOR

L.S. 4 0 0
PLAN  5
TEMP -173(2)
list -4
MORE -1
BOND $H
CONF
fmap 2 53
acta
OMIT -1 0 4
OMIT -3 1 6
OMIT -1 2 1
OMIT 2 2 5
REM <olex2.extras>
REM <HklSrc "%.\\2013ncs0660.hkl">
REM </olex2.extras>

WGHT    0.200000
FVAR       0.19111
S1    5    0.690327   -0.262821    0.498485    11.00000    0.07327    0.20227 =
         0.06441   -0.00223    0.03497    0.01877
O13   4    0.463212    0.463760    0.349239    11.00000    0.06992    0.19400 =
         0.05002    0.00399    0.03119    0.00857
N2    3    0.611714    0.122738    0.413239    11.00000    0.05330    0.18213 =
         0.04174   -0.01051    0.02443    0.01665
N20   3    0.352046    0.558837    0.400767    11.00000    0.06497    0.19935 =
         0.04838    0.00911    0.02477    0.01533
C1    1    0.464430    0.207104    0.449384    11.00000    0.05966    0.19272 =
         0.04491    0.00068    0.02601    0.01125
C2    1    0.550412    0.068073    0.455255    11.00000    0.06412    0.20041 =
         0.03549   -0.00806    0.01908    0.01119
C3    1    0.584872   -0.129985    0.503954    11.00000    0.05785    0.19586 =
         0.04445   -0.00606    0.02201    0.01067
C5    1    0.683594   -0.040707    0.434052    11.00000    0.07666    0.17864 =
         0.06653   -0.01054    0.04097    0.00974
C6    1    0.762422   -0.040449    0.400690    11.00000    0.09585    0.18506 =
         0.10984   -0.00179    0.07064    0.02073
AFIX  23
H6A   2    0.795708   -0.211895    0.409052    11.00000   -1.20000
H6B   2    0.731305   -0.020927    0.350396    11.00000   -1.20000
AFIX   0
C7    1    0.837342    0.169769    0.425665    11.00000    0.10426    0.16170 =
         0.14915    0.01077    0.07891    0.01963
AFIX  23
H7A   2    0.873864    0.143655    0.475047    11.00000   -1.20000
H7B   2    0.805234    0.342695    0.420069    11.00000   -1.20000
AFIX   0
C8    1    0.906990    0.158674    0.383875    11.00000    0.11866    0.26152 =
         0.17138    0.01515    0.09503    0.02241
AFIX  23
H8A   2    0.944335   -0.006484    0.394468    11.00000   -1.20000
H8B   2    0.868438    0.156978    0.334342    11.00000   -1.20000
AFIX   0
C9    1    0.976505    0.381305    0.397658    11.00000    0.13743    0.23777 =
         0.15127    0.06402    0.07884    0.03172
AFIX  23
H9A   2    1.010725    0.402393    0.447560    11.00000   -1.20000
H9B   2    0.942761    0.546388    0.378957    11.00000   -1.20000
AFIX   0
C10   1    1.046794    0.301682    0.360258    11.00000    0.14620    0.34580 =
         0.23384    0.01945    0.11115    0.00348
AFIX  23
H10A  2    1.101482    0.195461    0.389707    11.00000   -1.20000
H10B  2    1.013572    0.206271    0.317120    11.00000   -1.20000
AFIX   0
C11   1    1.078635    0.562262    0.347112    11.00000    0.20842    0.37346 =
         0.19430    0.05819    0.08974   -0.02140
AFIX 137
H11A  2    1.120726    0.546815    0.318537    11.00000   -1.50000
H11B  2    1.114869    0.645453    0.390881    11.00000   -1.50000
H11C  2    1.021590    0.668685    0.323131    11.00000   -1.50000
AFIX   0
C12   1    0.426295    0.413121    0.401788    11.00000    0.05582    0.19027 =
         0.03932   -0.00223    0.01959    0.00624
C14   1    0.407010    0.668833    0.314373    11.00000    0.06499    0.18795 =
         0.05078    0.00371    0.02443    0.00641
C15   1    0.413456    0.793602    0.255094    11.00000    0.07243    0.20218 =
         0.05448    0.01560    0.02541    0.00940
AFIX  43
H15   2    0.460724    0.747433    0.234286    11.00000   -1.20000
AFIX   0
C16   1    0.347937    0.981760    0.230465    11.00000    0.06864    0.19630 =
         0.05852    0.00826    0.02224    0.00188
AFIX  43
H16   2    0.348613    1.069454    0.189941    11.00000   -1.20000
AFIX   0
C17   1    0.278245    1.059156    0.260112    11.00000    0.07123    0.20891 =
         0.05743    0.00991    0.02276    0.00752
AFIX  43
H17   2    0.234620    1.198416    0.240976    11.00000   -1.20000
AFIX   0
C18   1    0.274299    0.926527    0.318661    11.00000    0.06808    0.19963 =
         0.05379    0.00153    0.01780    0.00925
AFIX  43
H18   2    0.227605    0.972744    0.339973    11.00000   -1.20000
AFIX   0
C19   1    0.339692    0.727636    0.344578    11.00000    0.06310    0.19714 =
         0.04957    0.00558    0.02486    0.01094
HKLF 4

REM  proc2
REM R1 =  0.1450 for     938 Fo > 4sig(Fo)  and  0.3045 for all    2550 data
REM    191 parameters refined using    291 restraints

END

WGHT      0.2000      0.0000

REM Highest difference peak  0.754,  deepest hole -0.359,  1-sigma level  0.080
Q1    1   1.0785  0.3288  0.3235  11.00000  0.05    0.75
Q2    1   0.9308  0.2775  0.3805  11.00000  0.05    0.45
Q3    1   0.9576  0.1364  0.4577  11.00000  0.05    0.43
Q4    1   0.8590  0.0993  0.4809  11.00000  0.05    0.35
Q5    1   1.0258  0.5472  0.3527  11.00000  0.05    0.27
;
_shelx_res_checksum              95190
_shelx_hkl_file
;
   1   0  -3 0.03000 0.41000   1
   1   0  -3 0.41000 1.18000   1
   2   0  -2 154.110 9.14000   1
  -2   0   2 154.260 8.67000   1
  -2   0   2 143.860 8.22000   1
   2   0  -2 146.800 8.01000   1
  -2   0   2 154.690 8.79000   1
   2   0  -2 132.500 7.35000   1
   0   0   3 -0.0700 1.91000   1
   0   0   3 -0.4300 0.36000   1
   0   0   3 0.04000 0.38000   1
   0   0  -3 -0.6100 1.54000   1
   0   0   3 0.14000 0.61000   1
  -2   0  -1 0.80000 1.39000   1
   2   0   1 0.02000 0.82000   1
   2   0   1 -0.1300 1.33000   1
  -2   0  -1 -0.0600 0.64000   1
   2   0  -3 0.23000 0.81000   1
   2   0  -3 -0.1200 0.83000   1
   2   0  -3 0.24000 1.38000   1
  -2   0   3 0.00000 0.87000   1
  -2   0   3 -0.0100 0.70000   1
   1   0   3 0.08000 1.00000   1
   1   0   3 0.57000 1.49000   1
   1   0   3 -0.1000 0.49000   1
   1   0   3 -0.3100 0.62000   1
  -1   0  -3 0.11000 0.75000   1
  -1   0  -3 -0.3000 1.22000   1
  -1   0   4 36.6500 4.07000   1
   1   0  -4 29.5800 3.29000   1
  -1   0   4 33.0000 1.87000   1
   0  -1   0 -0.2900 0.94000   1
   0  -1   0 -0.8300 2.20000   1
   0   1   0 0.16000 1.94000   1
   0   1   0 0.87000 1.28000   1
   0  -1   1 20.8300 1.88000   1
   0  -1   1 24.0000 2.11000   1
   0   1   1 22.3800 2.61000   1
   0  -1   1 15.1800 3.42000   1
   0   1   1 19.8100 1.88000   1
   0   1  -1 21.8000 2.32000   1
   0   1  -1 19.1800 4.03000   1
   0  -1  -1 16.2900 1.98000   1
   0  -1  -1 18.6700 2.49000   1
   0  -1  -1 20.0100 1.67000   1
  -2   0  -2 101.110 6.83000   1
  -2   0  -2 119.170 6.85000   1
   2   0   2 118.860 6.71000   1
   2   0   2 113.810 7.97000   1
   0   0   4 28.3800 3.99000   1
   0   0  -4 27.0800 3.50000   1
   0   0   4 27.5900 2.04000   1
   0   0   4 26.2000 1.67000   1
   0   0   4 32.6600 2.65000   1
  -3   0   1 0.18000 1.35000   1
   3   0  -1 0.22000 0.89000   1
   3   0  -1 0.44000 1.17000   1
   3   0  -1 -0.0700 1.40000   1
  -3   0   1 -0.2100 0.66000   1
  -3   0   1 0.35000 1.28000   1
  -1  -1   0 1.55000 2.00000   1
  -1  -1   0 0.70000 1.92000   1
  -1   1   0 0.64000 1.60000   1
  -1   1   0 0.70000 1.33000   1
  -1  -1   0 0.71000 1.27000   1
   1   1   0 0.56000 1.21000   1
   1   1   0 0.65000 1.61000   1
   1  -1   0 1.59000 1.60000   1
   1  -1   0 1.08000 0.76000   1
  -1   1   0 1.02000 1.10000   1
   1   1  -1 1.57000 1.57000   1
   1   1  -1 0.88000 0.82000   1
   1  -1  -1 1.79000 1.19000   1
  -1   1   1 1.45000 1.18000   1
  -1  -1   1 1.42000 1.23000   1
  -1  -1   1 1.53000 2.11000   1
  -1   1   1 1.93000 1.48000   1
  -1  -1   1 1.71000 1.49000   1
   1  -1  -1 1.40000 1.10000   1
   1   1  -1 1.45000 2.53000   1
   3   0  -2 88.3400 5.32000   1
   3   0  -2 95.4200 6.21000   1
  -3   0   2 101.660 6.58000   1
  -3   0   2 94.4800 5.38000   1
   3   0  -2 90.6600 6.19000   1
  -3   0   2 83.0200 5.28000   1
  -2   0   4 164.770 10.8500   1
   2   0  -4 172.630 9.87000   1
   2   0  -4 168.300 10.9500   1
   3   0   0 413.050 27.8000   1
   3   0   0 456.450 29.8600   1
   3   0   0 505.320 32.4700   1
  -3   0   0 477.310 30.7800   1
  -3   0   0 432.040 27.8900   1
  -3   0   0 422.920 28.6600   1
   1  -1   1 37.7800 3.37000   1
  -1   1  -1 31.7800 2.27000   1
  -1  -1  -1 32.9700 2.47000   1
   1  -1   1 36.4500 3.02000   1
   1   1   1 32.3700 2.77000   1
   1  -1   1 33.4900 2.41000   1
  -1   1  -1 33.3000 2.67000   1
  -1   1  -1 34.1300 2.79000   1
  -1   1  -1 32.1400 3.37000   1
   0   1   2 68.6400 4.58000   1
   0   1   2 63.7500 4.24000   1
   0  -1   2 67.8500 4.09000   1
   0  -1  -2 65.0400 4.00000   1
   0   1  -2 74.4600 4.76000   1
   0  -1  -2 64.6700 4.00000   1
   0   1  -2 62.8200 6.08000   1
   0   1  -2 78.4100 4.98000   1
   0  -1   2 62.3900 6.38000   1
   1   1  -2 287.810 17.4400   1
   1  -1  -2 233.810 13.8300   1
  -1   1   2 250.510 14.9500   1
   1   1  -2 246.540 17.7500   1
  -1  -1   2 231.560 16.1000   1
  -1   1   2 142.370 9.24000   1
  -1  -1   2 260.760 15.5000   1
  -1  -1   2 257.010 14.5800   1
   1   1  -2 247.390 15.1300   1
   1  -1  -2 240.680 14.4000   1
   3   0  -3 0.08000 1.04000   1
  -3   0   3 -0.1300 0.62000   1
  -3   0   3 -0.5700 1.18000   1
  -3   0   3 0.10000 0.85000   1
   3   0  -3 0.49000 1.42000   1
   3   0  -3 0.35000 1.09000   1
   2   1  -1 43.9800 3.65000   1
   2   1  -1 44.8700 4.24000   1
   2   1  -1 45.4900 3.89000   1
   2   1  -1 48.2100 3.47000   1
  -2  -1   1 47.9100 4.36000   1
  -2  -1   1 49.6900 3.87000   1
   2   1  -1 48.1000 3.66000   1
  -2  -1   1 49.4300 3.46000   1
  -2  -1   1 50.4100 4.51000   1
   2  -1  -1 44.7600 3.28000   1
   2  -1  -1 44.7600 3.20000   1
  -2   1   1 47.5600 3.78000   1
   2  -1  -1 46.9300 3.15000   1
  -2   1   1 48.8900 3.52000   1
  -1   0  -4 963.500 69.7600   1
   1   0   4 944.980 69.0800   1
   1   0   4 1004.63 71.0900   1
  -1   0  -4 919.860 69.6600   1
  -3   0  -1 0.00000 1.06000   1
  -3   0  -1 0.38000 1.70000   1
  -3   0  -1 0.02000 0.87000   1
   3   0   1 -0.0900 1.52000   1
   3   0   1 -0.0700 1.10000   1
   1   1   2 30.2300 2.20000   1
   1   1   2 24.6500 2.44000   1
  -1   1  -2 28.7700 2.07000   1
   1  -1   2 28.4500 2.61000   1
  -1   1  -2 26.3500 2.22000   1
  -1   1  -2 27.1200 2.68000   1
  -1  -1  -2 21.2100 1.82000   1
  -1  -1  -2 24.5300 2.47000   1
  -1   1  -2 26.3500 3.17000   1
  -1   1  -2 28.6200 2.33000   1
   1  -1   2 28.1000 2.29000   1
  -1  -1  -2 25.4400 2.25000   1
   1   0  -5 0.59000 1.70000   1
  -1   0   5 -0.3300 1.89000   1
  -1   0   5 0.20000 0.47000   1
  -1   0   5 0.14000 0.83000   1
   2   1   0 5.34000 2.27000   1
  -2  -1   0 5.03000 1.60000   1
  -2  -1   0 6.68000 2.43000   1
   2   1   0 4.01000 2.09000   1
  -2  -1   0 5.77000 1.74000   1
   2   1   0 6.23000 1.82000   1
   2   1   0 5.04000 2.43000   1
  -2   1   0 5.60000 1.58000   1
  -2   1   0 5.19000 1.43000   1
   2  -1   0 4.93000 1.83000   1
  -2   1   0 5.66000 1.68000   1
   2  -1   0 4.86000 1.20000   1
   2  -1   0 6.32000 1.32000   1
   2   0   3 0.22000 0.69000   1
   2   0   3 -0.2800 1.79000   1
  -2   0  -3 0.16000 0.76000   1
  -2   0  -3 0.56000 1.89000   1
  -2   0  -3 -0.2100 0.69000   1
  -1   1   3 172.240 10.5200   1
   1  -1  -3 200.110 12.3000   1
  -1   1   3 193.030 11.4600   1
   1  -1  -3 195.970 11.9100   1
  -1   1   3 188.950 11.3900   1
   1   1  -3 153.390 14.1900   1
   1   1  -3 201.670 12.4000   1
  -1  -1   3 191.530 13.2900   1
  -1  -1   3 190.540 11.2900   1
   2  -1  -2 13.8700 1.75000   1
  -2   1   2 12.1200 1.85000   1
  -2   1   2 15.9900 2.31000   1
  -2  -1   2 14.8600 3.12000   1
   2   1  -2 14.0700 1.85000   1
  -2  -1   2 16.5600 2.08000   1
   2  -1  -2 14.8800 1.92000   1
   2   1  -2 14.7300 1.74000   1
   2   1  -2 15.6300 2.10000   1
   2   1  -2 16.3300 1.98000   1
   2   1  -2 13.4000 3.28000   1
  -2  -1   2 14.2700 1.68000   1
   3   0  -4 78.2200 5.88000   1
   3   0  -4 78.1300 4.96000   1
  -3   0   4 81.7800 5.47000   1
   3   0  -4 83.7600 5.52000   1
  -3   0   4 87.5400 6.39000   1
  -3   0   4 83.0300 4.74000   1
   0  -1  -3 187.390 11.3700   1
   0   1   3 212.600 13.4600   1
   0   1   3 182.520 11.1900   1
   0  -1  -3 196.400 11.8500   1
   0  -1  -3 218.660 13.2600   1
   0  -1   3 196.860 15.0900   1
   0   1  -3 201.650 16.5900   1
   0  -1   3 205.270 12.0500   1
   2   0  -5 -0.1700 0.95000   1
  -2   0   5 -0.3700 1.73000   1
  -2   0   5 -0.4100 0.83000   1
   2   0  -5 0.39000 1.75000   1
   0   0   5 0.34000 0.58000   1
   0   0   5 0.50000 2.21000   1
   0   0   5 0.66000 1.16000   1
   0   0   5 -0.3700 1.04000   1
   0   0  -5 -0.1700 1.94000   1
  -2  -1  -1 54.8000 5.48000   1
  -2  -1  -1 51.4900 3.55000   1
   2   1   1 57.6600 4.71000   1
   2   1   1 55.0100 4.18000   1
   2   1   1 55.2300 3.70000   1
   2   1   1 52.9800 4.72000   1
  -2  -1  -1 55.7500 3.86000   1
  -2   1  -1 58.1600 3.97000   1
  -2   1  -1 54.5600 3.68000   1
  -2   1  -1 57.2000 3.88000   1
   2  -1   1 55.2900 3.86000   1
   2  -1   1 59.8200 4.31000   1
   2  -1   1 59.0800 4.33000   1
   2  -1   1 52.8700 3.37000   1
   2   1  -3 2.35000 1.55000   1
   2  -1  -3 2.10000 1.53000   1
   2  -1  -3 1.54000 1.27000   1
  -2   1   3 2.26000 0.94000   1
  -2  -1   3 2.13000 0.97000   1
  -2  -1   3 1.41000 1.31000   1
  -2   1   3 2.27000 1.15000   1
  -2   1   3 2.83000 1.16000   1
  -2  -1   3 1.23000 1.84000   1
   2   1  -3 2.16000 1.47000   1
   2   1  -3 1.40000 1.05000   1
   2   1  -3 2.00000 2.08000   1
   3   0   2 65.3900 5.38000   1
   3   0   2 63.3100 4.18000   1
  -3   0  -2 57.5700 4.52000   1
  -3   0  -2 62.0300 4.30000   1
  -3   0  -2 61.5200 3.89000   1
  -1   1  -3 672.400 46.2400   1
  -1  -1  -3 648.040 45.7700   1
   1  -1   3 701.150 48.6000   1
   1  -1   3 654.940 44.3800   1
   1   1   3 703.550 49.8300   1
   1  -1   3 691.850 48.3700   1
  -1   1  -3 717.450 51.7800   1
  -1   1  -3 742.010 51.5600   1
  -1  -1  -3 700.210 49.1300   1
  -1   1  -3 685.510 46.5800   1
  -1   1  -3 695.220 55.8300   1
  -4   0   2 0.76000 1.45000   1
  -4   0   2 1.50000 1.23000   1
  -4   0   2 0.71000 1.15000   1
   4   0  -2 1.25000 1.41000   1
   4   0  -2 1.17000 1.11000   1
   4   0  -2 2.47000 1.27000   1
  -1   1   4 28.6800 1.76000   1
   1  -1  -4 28.6500 2.45000   1
   1   1  -4 32.8500 3.03000   1
   1  -1  -4 25.5900 2.56000   1
   1   1  -4 33.9400 6.48000   1
  -1   1   4 28.0100 2.30000   1
  -1   1   4 30.3800 2.91000   1
  -1  -1   4 27.2300 2.07000   1
  -1   1   4 27.6500 2.80000   1
  -1  -1   4 27.7200 4.70000   1
   3   0  -5 0.57000 1.68000   1
   3   0  -5 0.03000 0.97000   1
  -3   0   5 0.13000 0.78000   1
  -3   0   5 0.20000 1.56000   1
   3   0  -5 -0.1500 1.00000   1
   4   0  -1 0.27000 0.99000   1
   4   0  -1 -0.2600 1.50000   1
  -4   0   1 -0.0500 0.92000   1
  -4   0   1 0.21000 1.48000   1
  -4   0   1 -1.4200 1.28000   1
   4   0  -1 0.79000 0.98000   1
  -4   0   3 0.51000 1.50000   1
  -4   0   3 0.43000 1.33000   1
   4   0  -3 0.01000 1.26000   1
   4   0  -3 0.00000 1.42000   1
   4   0  -3 -0.7200 1.20000   1
  -4   0   3 0.30000 1.00000   1
   2   1   2 624.960 43.9200   1
  -2   1  -2 623.760 42.3600   1
   2  -1   2 604.720 41.5000   1
   2   1   2 582.260 40.2100   1
   2  -1   2 585.100 38.9900   1
   2  -1   2 596.830 41.1400   1
   2   1   2 624.480 42.3900   1
  -2   1  -2 603.020 41.1600   1
  -2  -1  -2 607.710 42.6400   1
  -2  -1  -2 619.760 42.2600   1
  -2  -1  -2 586.180 43.5000   1
  -2   1  -2 592.980 39.7600   1
   0  -1  -4 137.900 8.19000   1
   0   1  -4 156.320 12.2700   1
   0   1   4 138.380 8.54000   1
   0   1   4 147.950 9.56000   1
   0   1  -4 164.470 9.46000   1
   0  -1   4 158.590 12.8200   1
   0  -1  -4 153.560 9.23000   1
  -3  -1   1 59.4000 4.69000   1
   3   1  -1 64.7900 5.08000   1
   3   1  -1 68.9100 5.54000   1
  -3  -1   1 71.1700 4.44000   1
   3   1  -1 69.8500 5.13000   1
  -3  -1   1 68.7500 4.65000   1
  -3  -1   1 70.7000 5.58000   1
  -3  -1   1 65.9200 5.14000   1
   3   1  -1 66.3300 5.09000   1
   3  -1  -1 71.9200 5.36000   1
   3  -1  -1 67.6500 4.05000   1
   3  -1  -1 71.8600 4.80000   1
  -3   1   1 66.0300 4.73000   1
  -3   1   1 68.3400 4.29000   1
  -3   1   1 66.0400 4.68000   1
  -3  -1   2 16.4500 2.41000   1
  -3  -1   2 15.8100 2.69000   1
  -3  -1   2 16.4400 2.15000   1
  -3  -1   2 15.2500 2.44000   1
   3   1  -2 18.0500 3.06000   1
   3   1  -2 16.8800 2.79000   1
   3   1  -2 15.1600 1.77000   1
   3   1  -2 14.2000 1.80000   1
   3   1  -2 16.6200 2.65000   1
   3  -1  -2 15.8700 2.46000   1
  -3   1   2 15.2600 2.22000   1
  -3   1   2 18.7200 2.25000   1
   3  -1  -2 17.9400 2.00000   1
   3  -1  -2 15.2300 1.89000   1
   2  -1  -4 5.61000 1.02000   1
   2   1  -4 5.28000 1.56000   1
   2  -1  -4 5.50000 1.57000   1
   2   1  -4 5.44000 1.81000   1
   2   1  -4 5.03000 3.41000   1
   2   1  -4 5.25000 0.95000   1
  -2  -1   4 5.41000 3.33000   1
  -2  -1   4 5.38000 1.03000   1
  -2   1   4 5.49000 1.19000   1
  -2   1   4 5.15000 1.38000   1
  -2   1   4 6.35000 1.74000   1
  -2  -1   4 5.87000 1.42000   1
  -2   0  -4 84.5400 7.02000   1
   2   0   4 86.9200 6.88000   1
   2   0   4 91.5600 5.27000   1
  -2   0  -4 91.4300 5.48000   1
   1   0   5 0.50000 1.14000   1
   1   0   5 0.03000 0.42000   1
   1   0   5 -0.0300 0.60000   1
  -1   0  -5 -0.1000 0.69000   1
  -1   0  -5 0.92000 1.76000   1
   1   0   5 -0.0900 0.57000   1
   4   0   0 27.2000 3.17000   1
  -4   0   0 27.9500 2.41000   1
  -4   0   0 22.7600 2.51000   1
  -4   0   0 28.5800 2.84000   1
   4   0   0 27.3300 2.85000   1
   1   0  -6 14.1400 1.23000   1
   1   0  -6 14.0400 2.66000   1
  -1   0   6 15.2300 3.23000   1
  -1   0   6 15.9800 1.07000   1
  -1   0   6 13.0300 1.34000   1
   3   1   0 105.190 7.57000   1
  -3  -1   0 101.680 6.84000   1
  -3  -1   0 99.9800 6.52000   1
  -3  -1   0 105.230 7.51000   1
  -3  -1   0 101.610 6.62000   1
   3   1   0 102.800 6.84000   1
   3   1   0 100.390 6.74000   1
   3   1   0 99.8600 7.42000   1
  -3  -1   0 98.8900 7.65000   1
  -3   1   0 95.3400 6.29000   1
  -3   1   0 102.530 6.59000   1
  -3   1   0 96.6300 6.36000   1
   3  -1   0 100.550 6.31000   1
   3  -1   0 96.8500 6.03000   1
   3  -1   0 102.970 6.57000   1
  -2   0   6 38.1100 2.49000   1
  -2   0   6 34.6700 4.03000   1
  -2   0   6 32.5900 2.45000   1
   2   0  -6 35.0800 3.86000   1
   3   1  -3 6.02000 2.70000   1
   3   1  -3 6.56000 1.32000   1
  -3  -1   3 5.94000 1.19000   1
   3   1  -3 8.11000 2.17000   1
  -3  -1   3 6.34000 1.58000   1
  -3  -1   3 6.72000 1.75000   1
  -3  -1   3 7.04000 1.72000   1
   3   1  -3 7.11000 1.79000   1
   3  -1  -3 5.15000 1.44000   1
  -3   1   3 6.93000 1.98000   1
  -3   1   3 6.42000 1.60000   1
   3  -1  -3 5.32000 1.35000   1
   3  -1  -3 6.50000 1.87000   1
  -3   1   3 6.09000 1.40000   1
  -4   0   4 7.49000 1.94000   1
   4   0  -4 8.63000 2.20000   1
   4   0  -4 7.49000 1.24000   1
   4   0  -4 7.01000 1.24000   1
  -4   0   4 7.13000 1.48000   1
  -4   0   4 8.43000 1.92000   1
   3   0   3 0.70000 1.20000   1
   3   0   3 0.49000 1.12000   1
  -3   0  -3 -0.1000 0.68000   1
  -3   0  -3 0.18000 1.95000   1
  -3   0  -3 -0.3000 0.86000   1
   0   0   6 5.55000 1.54000   1
   0   0  -6 5.31000 2.40000   1
   0   0   6 4.35000 0.84000   1
   0   0   6 4.40000 2.74000   1
  -1  -1  -4 322.890 20.8900   1
   1   1   4 328.700 21.5600   1
   1  -1   4 304.790 18.3100   1
   1   1   4 324.060 21.1300   1
  -1   1  -4 318.420 26.4400   1
  -1   1  -4 330.050 20.5200   1
  -1  -1  -4 317.870 20.3600   1
  -1   1  -4 315.170 21.3800   1
  -1   1  -4 323.090 20.1600   1
   3   1   1 215.340 15.0300   1
   3   1   1 206.530 13.2400   1
  -3  -1  -1 190.940 13.0300   1
   3   1   1 206.600 13.2400   1
   3   1   1 198.940 12.8200   1
  -3  -1  -1 204.300 12.9700   1
  -3  -1  -1 222.800 14.2500   1
  -3   1  -1 210.420 12.7300   1
  -3   1  -1 211.300 13.0300   1
   3  -1   1 211.700 12.7800   1
   3  -1   1 222.440 14.2100   1
   3  -1   1 220.910 13.3700   1
  -3   1  -1 217.130 14.1400   1
   3  -1   1 219.710 13.6600   1
  -4   0  -1 0.44000 1.73000   1
   4   0   1 0.97000 1.54000   1
   4   0   1 0.56000 1.21000   1
  -4   0  -1 -0.0500 0.89000   1
  -4   0  -1 0.07000 0.87000   1
  -1   1   5 9.63000 1.11000   1
   1  -1  -5 9.99000 1.49000   1
  -1   1   5 11.3500 1.91000   1
  -1   1   5 9.29000 1.56000   1
  -1   1   5 11.1100 1.35000   1
   1  -1  -5 10.3300 1.53000   1
   1  -1  -5 11.0500 1.07000   1
  -1  -1   5 11.0400 1.37000   1
   1   1  -5 13.9000 4.77000   1
   1   1  -5 12.1100 1.45000   1
  -1  -1   5 12.7500 3.58000   1
  -2  -1  -3 535.820 37.0200   1
   2   1   3 459.360 31.6300   1
   2  -1   3 531.790 34.7200   1
   2   1   3 528.410 35.7800   1
  -2   1  -3 562.090 37.7500   1
   2  -1   3 520.480 35.9200   1
  -2  -1  -3 561.460 37.7100   1
   2  -1   3 537.300 36.0400   1
  -2  -1  -3 551.440 40.7700   1
  -2   1  -3 539.200 35.5500   1
  -2  -1  -3 600.540 41.3000   1
  -2   1  -3 536.390 36.0700   1
   3   1  -4 19.7900 2.64000   1
  -3   1   4 14.5500 1.80000   1
   3   1  -4 17.6200 2.23000   1
   3   1  -4 17.0300 1.71000   1
  -3   1   4 20.1900 2.02000   1
  -3  -1   4 17.6900 3.26000   1
   3  -1  -4 14.5900 1.54000   1
  -3   1   4 18.2100 2.04000   1
  -3  -1   4 20.1100 2.23000   1
  -3  -1   4 18.1900 2.05000   1
   3   1  -4 15.5400 3.60000   1
   3  -1  -4 16.7100 2.34000   1
   3  -1  -4 17.9400 1.66000   1
   3   0  -6 42.7800 3.32000   1
  -3   0   6 46.7200 4.42000   1
   3   0  -6 43.3200 4.24000   1
  -3   0   6 45.1900 3.24000   1
   2  -1  -5 15.3600 1.77000   1
   2  -1  -5 13.9100 1.90000   1
  -2   1   5 14.1200 2.22000   1
  -2   1   5 14.9000 1.65000   1
  -2   1   5 14.1300 2.03000   1
   2  -1  -5 14.7200 1.58000   1
   2   1  -5 14.7100 1.88000   1
  -2  -1   5 15.4900 2.08000   1
  -2  -1   5 14.2700 3.80000   1
   2   1  -5 16.2100 2.07000   1
   2   1  -5 16.9100 4.49000   1
  -4   0   5 0.15000 0.92000   1
  -4   0   5 -0.3400 1.34000   1
   4   0  -5 0.73000 1.12000   1
   4   0  -5 -0.1900 1.18000   1
   4   0  -5 0.22000 1.00000   1
  -4   0   5 0.42000 1.47000   1
   0   1   5 1.11000 1.50000   1
   0  -1   5 0.03000 1.62000   1
   0   1   5 0.47000 0.82000   1
   0  -1   5 1.22000 0.67000   1
   0   1  -5 0.82000 1.09000   1
   0  -1  -5 0.37000 0.65000   1
   0   1  -5 2.50000 2.76000   1
   0  -1  -5 1.21000 0.93000   1
   0   1  -5 0.67000 0.84000   1
   0  -1  -5 1.13000 0.84000   1
   0   1   5 0.95000 1.32000   1
   0  -1   5 2.13000 2.89000   1
  -3  -1  -2 45.3100 3.66000   1
   3   1   2 46.2100 3.69000   1
   3  -1   2 40.7100 3.20000   1
   3   1   2 41.4200 4.45000   1
   3   1   2 39.9500 3.76000   1
   3   1   2 43.5800 3.50000   1
   3  -1   2 45.5100 3.51000   1
  -3  -1  -2 42.8600 3.15000   1
  -3   1  -2 44.6900 3.21000   1
  -3  -1  -2 44.5800 5.28000   1
  -3   1  -2 43.8300 3.12000   1
  -3   1  -2 43.4100 3.40000   1
   2   0   5 -0.0100 0.71000   1
   2   0   5 -0.3200 1.67000   1
   2   0   5 -0.4400 0.76000   1
  -2   0  -5 0.54000 2.05000   1
  -2   0  -5 0.10000 0.75000   1
  -2   0  -5 0.75000 0.61000   1
  -2   0  -5 0.38000 0.61000   1
   4   1  -2 9.20000 1.35000   1
  -4   1   2 9.68000 1.67000   1
   4   1  -2 11.7000 2.43000   1
  -4  -1   2 9.46000 1.48000   1
   4   1  -2 8.64000 2.56000   1
   4  -1  -2 8.67000 1.25000   1
   4   1  -2 10.5800 1.99000   1
   4  -1  -2 11.1900 2.30000   1
   4   1  -2 8.47000 1.52000   1
  -4   1   2 9.33000 2.04000   1
  -4  -1   2 8.87000 1.67000   1
  -4  -1   2 10.0900 1.89000   1
  -4   1   2 9.05000 1.92000   1
  -4   1   2 11.4600 1.81000   1
  -4  -1   2 11.3600 1.73000   1
   4   0   2 2.12000 1.26000   1
  -4   0  -2 1.65000 1.38000   1
   4   0   2 3.19000 1.38000   1
  -4   0  -2 1.56000 0.94000   1
  -4   0  -2 2.33000 2.08000   1
   1   0   6 5.00000 0.81000   1
   1   0   6 6.39000 1.53000   1
  -1   0  -6 4.93000 2.07000   1
  -1   0  -6 5.19000 1.02000   1
  -1   0  -6 6.81000 2.56000   1
  -1   0  -6 4.39000 1.11000   1
  -1   0  -6 4.17000 0.53000   1
   3  -1  -5 7.63000 1.16000   1
  -3   1   5 7.70000 1.28000   1
  -3   1   5 8.23000 1.38000   1
   3  -1  -5 8.14000 1.39000   1
  -3   1   5 8.71000 1.97000   1
   3  -1  -5 7.01000 1.80000   1
   3   1  -5 7.78000 1.21000   1
   3   1  -5 8.08000 1.65000   1
  -3  -1   5 8.63000 2.20000   1
  -3  -1   5 8.37000 1.51000   1
   3   1  -5 7.43000 1.79000   1
   3   1  -5 8.45000 2.45000   1
  -4  -1   1 19.4100 2.20000   1
  -4  -1   1 20.8400 2.49000   1
  -4   1   1 19.7400 2.41000   1
  -4   1   1 20.9500 2.18000   1
   4  -1  -1 19.0100 2.71000   1
  -4   1   1 20.6800 2.53000   1
  -4  -1   1 19.2500 2.02000   1
   4   1  -1 20.9300 2.56000   1
   4   1  -1 21.1800 2.71000   1
   4  -1  -1 19.7500 1.82000   1
   4   1  -1 19.6600 2.72000   1
  -4  -1   1 18.6600 1.96000   1
  -4  -1   1 19.2700 2.80000   1
   4   1  -1 20.1800 2.32000   1
  -2   0   7 -0.0900 2.05000   1
  -2   0   7 0.27000 0.66000   1
   2   0  -7 -0.6000 1.59000   1
  -2   0   7 -0.4800 0.78000   1
  -4   1   3 7.07000 1.56000   1
  -4  -1   3 7.56000 1.55000   1
  -4   1   3 5.86000 1.39000   1
  -4   1   3 5.53000 1.33000   1
  -4  -1   3 6.21000 1.75000   1
  -4   1   3 7.84000 1.53000   1
   4   1  -3 8.44000 1.39000   1
   4   1  -3 7.11000 1.70000   1
   4  -1  -3 6.37000 1.48000   1
   4   1  -3 7.03000 1.98000   1
   4  -1  -3 5.90000 1.37000   1
   4   1  -3 7.73000 1.98000   1
   4  -1  -3 7.07000 2.01000   1
   4   1  -3 6.58000 1.90000   1
  -4  -1   3 7.27000 2.25000   1
  -1   0   7 0.05000 0.27000   1
  -1   0   7 -0.2600 1.92000   1
   1   0  -7 0.14000 0.42000   1
   1   0  -7 0.40000 1.50000   1
   5   0  -2 57.1500 4.81000   1
  -5   0   2 72.6900 5.36000   1
  -5   0   2 64.2300 4.37000   1
  -5   0   2 60.0300 4.36000   1
   5   0  -2 73.9100 5.26000   1
   5   0  -2 73.0800 5.22000   1
   3   0   4 4.13000 1.06000   1
  -3   0  -4 3.45000 1.21000   1
  -3   0  -4 4.39000 1.10000   1
  -3   0  -4 5.05000 2.47000   1
   3   0   4 6.24000 2.21000   1
   5   0  -3 0.98000 1.54000   1
   5   0  -3 0.09000 0.79000   1
   5   0  -3 0.06000 1.31000   1
  -5   0   3 -0.3400 0.93000   1
  -5   0   3 0.08000 1.56000   1
  -5   0   3 -0.6900 0.94000   1
   2  -1   4 82.7100 5.98000   1
   2  -1   4 83.0000 5.59000   1
  -2   1  -4 83.2100 5.07000   1
  -2  -1  -4 86.2900 5.72000   1
  -2  -1  -4 80.2900 7.58000   1
  -2  -1  -4 82.1000 5.41000   1
   2   1   4 84.3300 5.96000   1
  -4   0   6 32.4700 2.56000   1
  -4   0   6 32.9300 3.01000   1
   4   0  -6 30.5100 2.49000   1
   4   0  -6 31.8600 3.43000   1
   4   0  -6 31.8500 2.76000   1
  -1   1  -5 0.34000 1.19000   1
  -1   1  -5 0.39000 0.67000   1
  -1   1  -5 -0.1600 2.56000   1
  -1   1  -5 0.11000 0.68000   1
  -1  -1  -5 -0.1400 0.86000   1
   1  -1   5 0.08000 0.49000   1
   1   1   5 1.38000 1.28000   1
   1  -1   5 0.41000 0.68000   1
  -1  -1  -5 -0.1200 0.74000   1
   1   1   5 -0.0100 1.41000   1
   4   1   0 34.7400 3.73000   1
  -4  -1   0 32.1400 2.64000   1
  -4  -1   0 29.1900 2.32000   1
  -4  -1   0 27.8600 2.56000   1
  -4  -1   0 32.3000 3.88000   1
  -4  -1   0 30.6600 2.91000   1
   4   1   0 30.2100 2.92000   1
   4   1   0 29.1900 2.87000   1
   4   1   0 31.4900 2.55000   1
  -4   1   0 30.3800 2.35000   1
   4  -1   0 29.6500 2.61000   1
   4  -1   0 33.1000 3.25000   1
  -4   1   0 31.8700 3.12000   1
  -4   1   0 31.7300 2.68000   1
  -5   0   1 0.10000 1.03000   1
  -5   0   1 -0.6400 0.91000   1
  -5   0   1 0.13000 1.26000   1
   5   0  -1 0.19000 1.63000   1
   5   0  -1 0.01000 1.31000   1
   5   0  -1 0.07000 1.30000   1
   1  -1  -6 10.4900 1.40000   1
  -1   1   6 10.1400 1.80000   1
   1  -1  -6 8.54000 1.33000   1
  -1   1   6 10.1100 1.61000   1
  -1   1   6 10.0400 1.52000   1
  -1   1   6 10.1500 1.21000   1
   1  -1  -6 11.2000 0.97000   1
  -1  -1   6 24.7600 3.95000   1
  -1  -1   6 11.9000 1.14000   1
   1   1  -6 12.3800 1.54000   1
   1   1  -6 12.0700 3.36000   1
   2   1  -6 30.2900 5.13000   1
   2  -1  -6 27.5500 1.93000   1
   2  -1  -6 31.4200 2.49000   1
   2  -1  -6 27.0900 2.35000   1
  -2   1   6 26.4700 2.13000   1
   2   1  -6 30.5300 2.49000   1
  -2   1   6 26.7300 2.53000   1
  -2   1   6 27.3800 2.83000   1
  -2  -1   6 30.2000 3.45000   1
   2   1  -6 32.2700 2.48000   1
  -2  -1   6 31.2200 2.63000   1
   3   0  -7 -0.4600 1.79000   1
   3   0  -7 0.21000 0.78000   1
  -3   0   7 0.38000 0.69000   1
  -3   0   7 1.56000 1.64000   1
  -5   0   4 1.38000 1.58000   1
  -5   0   4 0.76000 0.75000   1
   5   0  -4 1.64000 1.21000   1
  -5   0   4 0.79000 1.47000   1
   5   0  -4 0.60000 1.02000   1
   5   0  -4 1.32000 1.50000   1
   4   1  -4 74.3000 5.29000   1
   4  -1  -4 71.7000 4.83000   1
   4   1  -4 69.9700 5.38000   1
   4   1  -4 72.6200 4.82000   1
   4  -1  -4 70.7100 4.76000   1
  -4   1   4 81.2700 5.59000   1
  -4   1   4 56.5500 4.61000   1
  -4  -1   4 74.0300 5.23000   1
  -4  -1   4 75.8200 5.48000   1
  -4  -1   4 71.4600 5.40000   1
  -4   1   4 70.2600 4.47000   1
  -4  -1   4 75.3100 4.78000   1
   4   1  -4 72.1900 4.94000   1
   4  -1  -4 70.8700 4.81000   1
   0   0   7 0.21000 1.09000   1
   0   0  -7 0.37000 1.76000   1
   0   0   7 0.02000 0.54000   1
   3   1   3 18.5700 2.62000   1
   3   1   3 18.5800 2.07000   1
  -3  -1  -3 18.4800 2.05000   1
  -3  -1  -3 17.2900 1.63000   1
   3   1   3 18.0200 3.03000   1
  -3  -1  -3 18.7700 3.90000   1
   3  -1   3 18.5900 2.07000   1
  -3   1  -3 17.9800 1.77000   1
  -3   1  -3 19.9500 1.84000   1
  -3   1  -3 17.3100 2.09000   1
   3  -1   3 16.9500 2.04000   1
  -5   0   0 13.5400 2.71000   1
  -5   0   0 13.3000 1.39000   1
  -5   0   0 14.6000 1.73000   1
   5   0   0 15.7100 2.40000   1
   5   0   0 15.4800 1.73000   1
   0   1  -6 0.43000 0.72000   1
   0   1   6 0.32000 1.16000   1
   0   1   6 0.11000 0.99000   1
   0  -1   6 0.60000 1.43000   1
   0   1   6 0.15000 0.82000   1
   0  -1   6 0.64000 2.56000   1
   0  -1   6 0.17000 0.64000   1
   0  -1   6 0.29000 0.49000   1
   0   1  -6 0.94000 3.54000   1
   0  -1  -6 0.06000 0.63000   1
   0  -1  -6 -0.1100 0.83000   1
   0   1  -6 0.17000 0.61000   1
   0   1  -6 -0.0200 1.11000   1
   0  -1  -6 0.24000 0.79000   1
  -4   1  -1 36.8100 3.33000   1
  -4   1  -1 35.2700 2.83000   1
  -4  -1  -1 37.7600 4.32000   1
  -4  -1  -1 31.5800 2.74000   1
   4   1   1 32.7800 2.98000   1
   4   1   1 33.3100 3.92000   1
   4  -1   1 34.6000 2.67000   1
   4  -1   1 33.2200 2.88000   1
   4   1   1 33.3100 3.19000   1
   4   1   1 32.9400 3.63000   1
  -4  -1  -1 34.9200 3.54000   1
  -4  -1  -1 32.2800 3.08000   1
  -4   1  -1 33.3600 2.86000   1
  -3  -1   6 4.98000 2.71000   1
  -3   1   6 2.98000 1.13000   1
  -3   1   6 4.59000 1.57000   1
   3   1  -6 3.55000 1.00000   1
   3  -1  -6 4.42000 1.23000   1
  -3  -1   6 2.59000 1.16000   1
   3   1  -6 3.64000 1.21000   1
   3   1  -6 4.17000 2.19000   1
   3  -1  -6 4.82000 1.37000   1
   3  -1  -6 4.03000 1.35000   1
  -3   1   6 3.83000 1.04000   1
  -5   0   5 0.31000 1.39000   1
  -5   0   5 -1.3700 0.98000   1
  -5   0   5 0.42000 1.38000   1
   5   0  -5 -0.6200 1.16000   1
   5   0  -5 -0.6700 1.22000   1
   5   0  -5 -0.3800 1.09000   1
  -4   0  -3 -0.2100 0.93000   1
   4   0   3 0.70000 1.67000   1
   4   0   3 -0.3000 1.23000   1
  -4   0  -3 -0.2800 0.94000   1
  -4   0  -3 -0.2700 1.72000   1
  -4  -1   5 2.79000 1.32000   1
   4   1  -5 1.23000 2.18000   1
   4  -1  -5 1.62000 1.50000   1
   4  -1  -5 2.06000 1.11000   1
  -4   1   5 1.79000 1.07000   1
  -4  -1   5 1.66000 1.05000   1
  -4   1   5 0.50000 1.13000   1
  -4  -1   5 3.65000 2.08000   1
   4  -1  -5 1.24000 1.30000   1
   4  -1  -5 1.39000 0.81000   1
  -4  -1   5 1.40000 1.12000   1
   4   1  -5 2.17000 1.41000   1
  -4   1   5 1.75000 1.03000   1
   4   1  -5 1.51000 0.90000   1
   2   0   6 22.6600 1.63000   1
  -2   0  -6 22.6000 1.80000   1
   2   0   6 24.3700 1.86000   1
  -2   0  -6 22.9100 1.57000   1
  -2   0  -6 21.5400 3.38000   1
   4   0  -7 0.37000 0.93000   1
   4   0  -7 0.13000 1.53000   1
  -4   0   7 -0.1600 0.68000   1
  -4   0   7 -0.7200 1.50000   1
   4   0  -7 -0.0200 0.81000   1
  -5   0  -1 0.93000 0.73000   1
  -5   0  -1 -0.6400 0.57000   1
   5   0   1 0.35000 1.33000   1
   5   0   1 -0.1800 1.14000   1
  -5   0  -1 0.10000 1.17000   1
  -2  -1  -5 4.51000 1.11000   1
   2   1   5 4.28000 1.54000   1
  -2   1  -5 4.47000 1.14000   1
   2   1   5 2.90000 1.15000   1
  -2  -1  -5 2.60000 3.02000   1
   2  -1   5 3.93000 1.29000   1
   2  -1   5 4.43000 1.86000   1
  -2  -1  -5 3.71000 0.74000   1
  -2   1  -5 3.70000 2.43000   1
  -2  -1  -5 3.97000 0.98000   1
  -2   1  -5 4.06000 1.09000   1
  -2   1  -5 3.82000 0.87000   1
   3   0   5 1.28000 1.19000   1
  -3   0  -5 0.19000 1.91000   1
  -3   0  -5 0.16000 0.55000   1
  -3   0  -5 -0.0300 0.68000   1
  -3   0  -5 -0.2900 0.77000   1
   2   0  -8 11.6600 1.19000   1
  -2   0   8 10.2100 2.77000   1
  -2   0   8 13.6300 1.20000   1
   1   0   7 -0.0900 0.52000   1
   1   0   7 0.25000 1.12000   1
  -1   0  -7 0.52000 0.74000   1
  -1   0  -7 0.31000 1.96000   1
  -1   0  -7 0.65000 1.49000   1
   0  -2   0 1.14000 1.05000   1
   0  -2   0 2.13000 1.51000   1
   0   2   0 0.83000 1.24000   1
   0   2   0 1.00000 2.80000   1
   0  -2   0 0.90000 0.70000   1
   4  -1   2 2.48000 1.48000   1
   4  -1   2 4.41000 1.35000   1
   4   1   2 2.20000 1.95000   1
   4   1   2 2.23000 1.47000   1
  -4  -1  -2 2.41000 2.57000   1
  -4  -1  -2 4.06000 1.14000   1
  -4   1  -2 2.86000 1.07000   1
  -4  -1  -2 1.80000 1.15000   1
  -4   1  -2 4.05000 1.12000   1
  -4   1  -2 2.19000 1.40000   1
  -4  -1  -2 2.55000 1.30000   1
   4   1   2 1.78000 1.28000   1
   4   1   2 1.24000 1.18000   1
  -1   1  -6 75.6000 5.36000   1
  -1  -1  -6 65.4200 4.22000   1
  -1  -1  -6 71.5500 4.61000   1
  -1   1  -6 76.0500 4.12000   1
  -1   1  -6 74.7000 4.23000   1
  -1   1  -6 88.6700 9.46000   1
   1   1   6 78.9900 5.29000   1
   1   1   6 64.3600 4.52000   1
   1  -1   6 76.2900 3.83000   1
   5   0  -6 431.950 29.0000   1
   5   0  -6 418.300 28.2600   1
   5   0  -6 410.030 27.5900   1
  -5   0   6 428.860 30.2800   1
  -5   0   6 437.020 29.4000   1
  -5   0   6 423.030 28.7900   1
   2   1  -7 0.46000 0.83000   1
   2  -1  -7 -0.2300 0.80000   1
   2  -1  -7 0.10000 0.79000   1
   2   1  -7 -0.9100 2.84000   1
   2  -1  -7 0.88000 0.85000   1
  -2   1   7 -0.3000 1.20000   1
  -2  -1   7 -0.8000 1.66000   1
  -2   1   7 0.39000 0.70000   1
  -2  -1   7 0.28000 0.71000   1
   1   0  -8 62.0000 5.27000   1
  -1   0   8 52.9800 5.43000   1
  -1   0   8 54.2300 4.00000   1
   0   2  -1 2.18000 2.96000   1
   0   2  -1 2.09000 1.77000   1
   0  -2  -1 1.87000 1.45000   1
   0   2   1 0.59000 2.31000   1
   0   2   1 0.37000 0.45000   1
   0   2   1 1.66000 1.83000   1
   0  -2   1 2.24000 1.61000   1
   0  -2   1 1.76000 0.59000   1
   0  -2   1 1.97000 0.77000   1
   0  -2   1 2.08000 2.00000   1
   0  -2  -1 2.24000 1.08000   1
  -1   1   7 -0.0300 0.68000   1
  -1  -1   7 -0.7100 2.19000   1
  -1   1   7 0.79000 1.35000   1
   1  -1  -7 -0.1300 0.63000   1
   1   1  -7 1.30000 2.15000   1
  -1  -1   7 -0.1200 0.64000   1
  -1   1   7 -0.0800 0.45000   1
  -1   1   7 -0.6600 1.11000   1
  -1   1   7 0.25000 0.98000   1
   1  -1  -7 0.00000 0.70000   1
   5   1  -2 5.01000 2.00000   1
  -5   1   2 4.31000 1.76000   1
  -5  -1   2 4.67000 1.82000   1
  -5  -1   2 6.39000 1.79000   1
   5   1  -2 4.00000 1.93000   1
   5   1  -2 6.39000 1.90000   1
   5  -1  -2 3.58000 1.38000   1
  -5   1   2 5.00000 1.32000   1
  -5  -1   2 5.30000 1.38000   1
  -5   1   2 5.77000 1.53000   1
   5   1  -2 5.97000 1.31000   1
  -5  -1   2 4.78000 1.12000   1
  -5   1   2 5.81000 1.67000   1
   5   1  -2 7.24000 1.81000   1
   5  -1  -2 5.37000 1.50000   1
  -3  -1  -4 2.63000 1.17000   1
  -3  -1  -4 3.05000 0.84000   1
  -3   1  -4 1.93000 0.87000   1
   3   1   4 2.53000 1.11000   1
   3   1   4 2.62000 1.57000   1
   3  -1   4 2.75000 1.72000   1
   3  -1   4 2.32000 1.41000   1
  -3   1  -4 2.07000 1.21000   1
  -3  -1  -4 1.46000 0.89000   1
  -3  -1  -4 2.34000 2.00000   1
  -1  -2   0 1.07000 1.81000   1
  -1   2   0 1.39000 0.80000   1
   1  -2   0 1.27000 0.90000   1
  -1  -2   0 0.96000 1.06000   1
  -1   2   0 0.89000 1.63000   1
  -1  -2   0 1.32000 0.73000   1
  -1   2   0 1.47000 1.10000   1
  -1   2   0 0.89000 3.82000   1
   1   2   0 2.13000 1.90000   1
   1   2   0 1.67000 2.09000   1
  -5  -1   3 1.68000 1.45000   1
   5  -1  -3 2.61000 1.27000   1
   5  -1  -3 2.39000 1.27000   1
   5   1  -3 2.63000 1.40000   1
   5   1  -3 1.82000 1.21000   1
  -5  -1   3 1.55000 1.40000   1
  -5   1   3 3.98000 1.35000   1
  -5  -1   3 2.58000 1.21000   1
  -5   1   3 2.50000 1.68000   1
   5   1  -3 1.90000 1.41000   1
  -5   1   3 1.65000 1.56000   1
  -5  -1   3 2.02000 1.22000   1
  -5   1   3 3.11000 1.24000   1
  -1   2   1 5.44000 1.59000   1
  -1   2   1 5.75000 1.22000   1
  -1   2   1 5.38000 1.03000   1
  -1  -2   1 2.55000 2.32000   1
  -1   2   1 5.68000 2.73000   1
   1   2  -1 5.31000 4.47000   1
   1   2  -1 7.99000 2.20000   1
   1  -2  -1 5.18000 1.17000   1
  -1  -2   1 7.91000 2.29000   1
  -1  -2   1 4.52000 0.94000   1
   3   0  -8 26.8500 3.15000   1
   3   0  -8 27.7800 2.24000   1
  -3   0   8 29.1700 2.65000   1
  -3   0   8 30.5800 2.34000   1
  -3   0   8 23.3700 3.45000   1
   4  -1  -6 16.5000 1.92000   1
  -4  -1   6 15.5000 1.86000   1
  -4   1   6 15.3300 2.12000   1
  -4   1   6 15.1700 1.72000   1
  -4  -1   6 11.2300 2.95000   1
  -4  -1   6 17.3700 2.04000   1
  -4   1   6 16.7200 2.27000   1
   4  -1  -6 15.1500 1.81000   1
   4   1  -6 13.9500 2.01000   1
   4   1  -6 18.6600 2.60000   1
   4  -1  -6 14.0500 2.17000   1
   5   1  -1 7.49000 2.00000   1
  -5  -1   1 8.17000 1.75000   1
  -5   1   1 5.95000 1.39000   1
  -5   1   1 6.00000 1.66000   1
   5   1  -1 5.61000 1.51000   1
  -5   1   1 5.35000 1.37000   1
   5  -1  -1 7.75000 1.88000   1
   5   1  -1 5.58000 1.38000   1
   5  -1  -1 6.96000 1.47000   1
   5   1  -1 7.87000 1.60000   1
  -5  -1   1 5.93000 1.43000   1
  -5  -1   1 5.83000 1.71000   1
  -5  -1   1 7.07000 2.02000   1
   1   2   1 0.37000 1.22000   1
  -1   2  -1 0.29000 0.97000   1
  -1   2  -1 -0.1600 3.07000   1
  -1   2  -1 0.37000 1.35000   1
   1  -2   1 0.41000 0.61000   1
   1  -2   1 -0.0400 0.54000   1
   1  -2   1 0.88000 1.73000   1
   1   2   1 -0.1200 1.95000   1
  -1  -2  -1 0.49000 0.74000   1
  -1  -2  -1 0.16000 1.01000   1
  -1  -2  -1 -0.3200 1.77000   1
   0  -2  -2 18.6500 1.71000   1
   0   2   2 23.8600 3.07000   1
   0  -2   2 22.2700 2.00000   1
   0  -2   2 18.8900 1.30000   1
   0   2   2 16.6800 1.54000   1
   0  -2   2 21.6400 2.79000   1
   0  -2   2 25.6800 3.19000   1
   0   2   2 18.0500 1.58000   1
   0  -2  -2 22.1200 2.53000   1
   0  -2  -2 19.0100 1.63000   1
   0   2  -2 25.4700 2.92000   1
   0   2  -2 24.5400 5.00000   1
  -1   2   2 0.78000 0.96000   1
  -1  -2   2 -0.2000 2.10000   1
  -1   2   2 0.65000 1.72000   1
  -1   2   2 0.06000 1.01000   1
   1  -2  -2 1.13000 1.02000   1
   1   2  -2 1.21000 3.17000   1
   1   2  -2 1.39000 1.72000   1
  -1   2   2 2.64000 2.60000   1
  -1  -2   2 0.66000 1.25000   1
  -1  -2   2 1.02000 0.71000   1
  -3   1   7 21.4000 2.43000   1
  -3  -1   7 23.4500 3.62000   1
  -3   1   7 22.3800 1.90000   1
   3  -1  -7 21.9300 2.12000   1
   3   1  -7 25.0900 4.34000   1
   3  -1  -7 24.2700 2.19000   1
   3   1  -7 24.4600 2.10000   1
  -3  -1   7 23.6500 2.04000   1
  -3   1   7 23.9500 2.69000   1
  -5   1   4 2.24000 1.60000   1
  -5   1   4 1.62000 1.07000   1
  -5  -1   4 0.90000 1.79000   1
   5   1  -4 1.13000 1.55000   1
   5  -1  -4 0.94000 1.60000   1
   5   1  -4 2.79000 1.40000   1
   5  -1  -4 1.45000 1.19000   1
  -5   1   4 1.30000 1.27000   1
  -5  -1   4 1.43000 1.39000   1
  -5  -1   4 1.13000 1.15000   1
   5   1  -4 1.72000 1.16000   1
  -5   1   4 2.32000 1.13000   1
  -5  -1   4 2.61000 1.31000   1
  -4   0  -4 1.88000 1.07000   1
   4   0   4 -0.1700 1.72000   1
  -4   0  -4 0.53000 1.96000   1
  -4   0  -4 0.75000 0.75000   1
   4   0   4 -0.1000 1.00000   1
   5   0   2 1.95000 1.22000   1
  -5   0  -2 0.82000 1.09000   1
  -5   0  -2 1.35000 0.91000   1
  -5   0  -2 1.08000 1.96000   1
  -5   0  -2 0.99000 1.05000   1
   5   0   2 1.45000 1.23000   1
   0  -1   7 39.5100 3.50000   1
   0   1   7 38.1400 3.01000   1
   0   1   7 33.1000 2.32000   1
   0  -1   7 33.7800 1.90000   1
   0  -1   7 37.9700 2.56000   1
   0  -1  -7 35.7800 2.70000   1
   0  -1  -7 36.4300 2.66000   1
   0   1  -7 34.8600 3.19000   1
   0   1  -7 33.8900 5.00000   1
   0  -1  -7 32.7800 2.79000   1
   0   1   7 27.7600 2.55000   1
   0  -1   7 34.4000 5.02000   1
   0   0   8 41.6600 2.47000   1
   0   0   8 41.1700 2.87000   1
   0   0  -8 46.9100 4.57000   1
  -5   1   0 29.1900 2.72000   1
   5   1   0 29.8800 3.05000   1
  -5   1   0 28.5000 2.55000   1
   5   1   0 31.5400 3.50000   1
  -5  -1   0 30.2200 3.68000   1
  -5  -1   0 33.0700 3.06000   1
  -5  -1   0 27.4500 2.57000   1
  -5  -1   0 31.0400 3.02000   1
  -5   1   0 28.6500 2.23000   1
   5  -1   0 30.0300 2.83000   1
   5   1   0 28.7100 2.55000   1
   5   1   0 28.8900 3.33000   1
   5  -1   0 29.8300 3.04000   1
  -6   0   3 0.39000 1.23000   1
   6   0  -3 -0.3100 0.82000   1
   6   0  -3 0.26000 1.27000   1
   6   0  -3 0.96000 1.75000   1
  -6   0   3 0.00000 1.04000   1
  -6   0   3 0.01000 0.62000   1
   2   2  -1 7.80000 1.72000   1
   2  -2  -1 6.43000 1.98000   1
   2  -2  -1 4.81000 1.20000   1
  -2   2   1 3.88000 1.89000   1
  -2   2   1 5.84000 2.10000   1
  -2  -2   1 5.56000 1.42000   1
  -2  -2   1 7.34000 2.15000   1
  -2  -2   1 4.60000 2.55000   1
  -2   2   1 4.93000 1.14000   1
  -2   2   1 4.42000 1.29000   1
   2   2  -1 4.81000 2.57000   1
  -6   0   2 135.750 9.13000   1
  -6   0   2 152.600 9.95000   1
  -6   0   2 121.910 8.15000   1
   6   0  -2 147.090 9.89000   1
   6   0  -2 137.350 9.14000   1
   6   0  -2 150.470 9.65000   1
  -1  -2  -2 -0.2000 0.75000   1
   1  -2   2 0.09000 0.78000   1
  -1   2  -2 0.84000 0.95000   1
   1  -2   2 0.19000 1.50000   1
  -1  -2  -2 -0.0100 1.49000   1
   1  -2   2 0.27000 0.63000   1
   1   2   2 2.25000 1.32000   1
   1   2   2 0.45000 1.31000   1
  -1   2  -2 1.04000 1.31000   1
  -1  -2  -2 0.20000 0.77000   1
  -1   2  -2 -0.6700 3.31000   1
   2  -2   0 -0.1000 1.43000   1
   2  -2   0 0.05000 0.81000   1
   2  -2   0 0.10000 0.79000   1
  -2   2   0 -0.6900 2.22000   1
  -2   2   0 0.11000 0.94000   1
  -2  -2   0 -0.7900 1.56000   1
  -2  -2   0 -0.1200 1.44000   1
  -2   2   0 0.09000 0.88000   1
  -2  -2   0 -0.0600 0.75000   1
   2   2   0 0.00000 1.35000   1
   2   2   0 0.13000 1.55000   1
  -1  -2   3 3.58000 1.02000   1
  -1  -2   3 2.45000 2.32000   1
  -1   2   3 2.48000 1.50000   1
  -1   2   3 3.74000 0.90000   1
  -1   2   3 4.84000 1.32000   1
  -1  -2   3 4.55000 1.07000   1
  -1   2   3 3.58000 2.36000   1
   1   2  -3 5.35000 1.34000   1
   1   2  -3 4.47000 1.77000   1
   1  -2  -3 3.86000 0.89000   1
   1   2  -3 5.32000 3.99000   1
  -1  -2   3 3.86000 1.80000   1
  -2   2   2 7.44000 1.89000   1
   2   2  -2 9.79000 2.31000   1
   2  -2  -2 5.78000 1.34000   1
   2  -2  -2 6.50000 1.92000   1
  -2  -2   2 4.53000 2.42000   1
  -2  -2   2 6.73000 1.10000   1
   2   2  -2 7.14000 2.82000   1
  -2   2   2 5.10000 2.63000   1
  -2   2   2 5.28000 1.00000   1
  -2  -2   2 7.41000 1.85000   1
  -2  -2   2 7.18000 1.55000   1
  -2   2   2 7.05000 1.45000   1
   6   0  -4 8.98000 1.63000   1
   6   0  -4 8.58000 1.48000   1
  -6   0   4 8.66000 2.28000   1
  -6   0   4 8.38000 1.20000   1
  -6   0   4 9.19000 2.00000   1
   6   0  -4 9.77000 2.28000   1
  -5  -1   5 11.9200 1.67000   1
  -5   1   5 8.23000 1.10000   1
  -5  -1   5 8.16000 2.47000   1
  -5  -1   5 11.4600 1.56000   1
  -5   1   5 9.19000 1.65000   1
  -5   1   5 8.78000 2.08000   1
  -5  -1   5 10.9200 1.81000   1
   5   1  -5 7.89000 1.91000   1
   5  -1  -5 11.1100 2.00000   1
   5  -1  -5 9.15000 2.06000   1
   5   1  -5 10.6000 2.78000   1
   5   1  -5 10.3700 1.55000   1
   5  -1  -5 8.19000 1.17000   1
   4   0  -8 4.32000 0.88000   1
   4   0  -8 7.47000 2.18000   1
  -4   0   8 8.42000 2.14000   1
   4   0  -8 8.14000 1.38000   1
  -4   0   8 7.55000 1.12000   1
  -4  -1  -3 16.7900 1.75000   1
  -4   1  -3 19.2400 1.85000   1
  -4  -1  -3 18.2400 1.92000   1
  -4   1  -3 17.7500 1.30000   1
   4   1   3 19.4900 2.25000   1
   4   1   3 16.6400 2.41000   1
   4  -1   3 17.0300 2.10000   1
   4  -1   3 18.4700 2.18000   1
   4   1   3 16.0400 3.03000   1
  -4  -1  -3 18.5100 2.21000   1
  -4   1  -3 20.5800 2.43000   1
  -4  -1  -3 18.3800 2.81000   1
   0  -2  -3 8.06000 1.64000   1
   0  -2  -3 7.56000 1.41000   1
   0   2  -3 9.56000 1.88000   1
   0   2  -3 6.76000 1.43000   1
   0  -2   3 7.42000 2.02000   1
   0   2   3 7.53000 1.68000   1
   0  -2   3 6.57000 1.91000   1
   0   2   3 8.37000 1.36000   1
   0  -2   3 6.04000 1.19000   1
   0  -2   3 3.15000 2.08000   1
   0  -2   3 6.02000 0.57000   1
   0   2   3 8.88000 1.60000   1
   0  -2  -3 6.98000 1.18000   1
   0   2  -3 10.0000 4.28000   1
   0   2  -3 5.68000 0.96000   1
   5   0  -7 0.03000 0.88000   1
   5   0  -7 0.07000 1.60000   1
  -5   0   7 -0.7900 0.82000   1
  -5   0   7 0.10000 1.13000   1
   5   0  -7 -0.4500 1.13000   1
  -6   0   1 0.25000 0.82000   1
  -6   0   1 0.12000 0.84000   1
   6   0  -1 0.79000 1.46000   1
   6   0  -1 -0.2500 0.92000   1
   6   0  -1 -1.0000 0.97000   1
  -6   0   1 0.97000 1.42000   1
  -2  -2  -1 -1.8400 1.41000   1
  -2   2  -1 0.01000 2.27000   1
  -2   2  -1 -0.1000 0.85000   1
   2  -2   1 -0.3500 1.45000   1
   2   2   1 -0.6300 1.61000   1
   2  -2   1 -0.0900 1.08000   1
   2  -2   1 0.21000 0.78000   1
  -2   2  -1 0.09000 0.41000   1
   2  -2   1 0.46000 0.75000   1
   2   2   1 -0.1200 1.13000   1
  -2  -2  -1 0.52000 0.99000   1
  -2  -2  -1 0.08000 0.51000   1
  -2   2  -1 -0.1700 1.28000   1
  -2   2   3 0.22000 1.81000   1
  -2  -2   3 0.39000 0.98000   1
  -2   2   3 0.82000 1.00000   1
  -2  -2   3 1.93000 2.21000   1
   2  -2  -3 0.82000 0.77000   1
  -2   2   3 0.76000 1.55000   1
  -2  -2   3 0.47000 1.10000   1
   2  -2  -3 0.15000 1.52000   1
   2   2  -3 2.40000 2.59000   1
   2   2  -3 0.96000 1.69000   1
  -2   2   3 0.53000 0.96000   1
   2   2  -3 0.24000 1.02000   1
   6   0  -5 -0.6100 1.09000   1
   6   0  -5 -0.1900 1.13000   1
   6   0  -5 -0.5100 1.26000   1
  -6   0   5 0.00000 0.86000   1
  -6   0   5 -0.8200 0.95000   1
  -6   0   5 -0.4200 1.47000   1
   2  -1   6 18.8800 2.78000   1
  -2  -1  -6 20.5500 2.17000   1
  -2  -1  -6 20.1700 3.83000   1
  -2   1  -6 19.0100 3.10000   1
  -2   1  -6 18.1100 2.23000   1
  -2   1  -6 18.7000 1.54000   1
  -2   1  -6 16.5900 1.33000   1
  -2   1  -6 20.1900 1.69000   1
   2   1   6 20.1600 1.97000   1
   2   1   6 16.0500 1.98000   1
  -4   1   7 9.80000 1.89000   1
   4   1  -7 10.0700 1.77000   1
   4  -1  -7 10.2500 1.48000   1
  -4  -1   7 11.4500 2.99000   1
   4   1  -7 9.11000 1.20000   1
   4  -1  -7 8.93000 1.77000   1
   4  -1  -7 11.9300 1.68000   1
   4   1  -7 12.1000 3.06000   1
  -4  -1   7 9.47000 1.49000   1
  -4   1   7 8.81000 1.37000   1
  -4  -1   7 9.26000 1.53000   1
  -4   1   7 10.0700 1.63000   1
   2   0   7 -0.0100 0.64000   1
  -2   0  -7 -0.7000 0.67000   1
  -2   0  -7 -0.0600 0.43000   1
  -2   0  -7 0.17000 1.33000   1
  -2   0  -7 -0.1000 0.40000   1
  -5   1  -1 1.37000 1.15000   1
   5   1   1 1.81000 1.39000   1
   5  -1   1 2.54000 1.36000   1
   5   1   1 2.18000 1.74000   1
   5   1   1 1.29000 1.86000   1
   5   1   1 2.37000 1.50000   1
   5  -1   1 2.45000 0.60000   1
  -5  -1  -1 1.98000 1.39000   1
  -5  -1  -1 3.40000 1.26000   1
  -5  -1  -1 2.66000 1.16000   1
  -5  -1  -1 2.71000 1.07000   1
  -5   1  -1 2.09000 1.06000   1
  -5   1  -1 2.54000 1.65000   1
  -5  -1  -1 3.25000 1.52000   1
   5  -1   1 1.68000 1.52000   1
   3   0   6 5.20000 1.87000   1
  -3   0  -6 2.90000 0.78000   1
  -3   0  -6 2.87000 1.75000   1
  -3   0  -6 2.48000 0.87000   1
  -3   0  -6 2.26000 0.70000   1
  -3   1  -5 12.5400 1.67000   1
  -3   1  -5 11.5500 1.28000   1
  -3   1  -5 13.0200 1.38000   1
   3   1   5 9.90000 1.89000   1
   3   1   5 11.8200 1.50000   1
  -3  -1  -5 10.8400 2.67000   1
  -3  -1  -5 8.90000 1.61000   1
  -3  -1  -5 11.7600 1.11000   1
  -3  -1  -5 10.7500 1.60000   1
  -3   1  -5 10.2500 1.19000   1
   3  -1   5 12.8000 2.06000   1
   3  -1   5 11.7700 1.39000   1
  -1  -2  -3 4.53000 1.68000   1
  -1   2  -3 6.88000 1.67000   1
  -1  -2  -3 5.30000 1.06000   1
  -1   2  -3 5.68000 1.31000   1
   1  -2   3 6.11000 1.80000   1
   1  -2   3 6.07000 0.87000   1
   1   2   3 8.43000 1.66000   1
  -1   2  -3 9.47000 4.57000   1
   1  -2   3 6.38000 1.04000   1
  -1  -2  -3 5.71000 1.18000   1
   2   1  -8 12.5300 1.53000   1
  -2   1   8 9.13000 1.96000   1
   2   1  -8 13.3400 3.92000   1
  -2  -1   8 11.2700 3.27000   1
  -2   1   8 8.65000 1.10000   1
  -2  -1   8 11.4600 1.16000   1
  -2   1   8 10.0500 1.81000   1
   1   1   7 17.8600 2.50000   1
  -1  -1  -7 13.1700 2.35000   1
   1  -1   7 16.8800 1.65000   1
  -1   1  -7 16.6000 5.33000   1
  -1  -1  -7 15.4200 1.59000   1
   1   1   7 15.5200 2.34000   1
  -1   1  -7 16.6400 1.39000   1
  -1   1  -7 16.0100 2.11000   1
  -1  -1  -7 16.8200 1.81000   1
   1   2  -4 31.5800 2.71000   1
   1  -2  -4 24.6500 2.09000   1
   1   2  -4 27.4300 5.36000   1
  -1   2   4 23.9600 2.96000   1
  -1   2   4 26.5900 2.42000   1
  -1  -2   4 25.8000 2.14000   1
  -1   2   4 29.4700 2.75000   1
  -1   2   4 30.4100 3.44000   1
   1   2  -4 31.3200 3.05000   1
  -1  -2   4 23.2500 3.94000   1
  -6   0   0 5.20000 1.48000   1
   6   0   0 2.74000 1.74000   1
   6   0   0 6.30000 1.81000   1
  -6   0   0 4.36000 1.17000   1
  -6   0   0 6.17000 2.02000   1
   2   0  -9 0.03000 0.54000   1
  -2   0   9 -0.4000 0.52000   1
  -2   0   9 -0.1500 1.72000   1
  -2   0   9 0.51000 0.77000   1
   2   0  -9 0.02000 1.41000   1
   5  -1  -6 9.55000 1.60000   1
  -5   1   6 10.6700 1.64000   1
  -5   1   6 10.2000 1.85000   1
  -5  -1   6 11.4600 2.11000   1
   5  -1  -6 11.8100 2.00000   1
   5   1  -6 10.7900 2.14000   1
   5   1  -6 13.9700 2.01000   1
  -5  -1   6 11.3900 1.77000   1
  -5   1   6 11.9400 1.33000   1
   5   1  -6 11.3200 1.53000   1
   5  -1  -6 11.8500 1.94000   1
  -5  -1   6 12.2100 1.92000   1
  -5  -1   6 13.1000 1.75000   1
   5   0   3 1.04000 1.46000   1
   5   0   3 -0.4700 0.96000   1
  -5   0  -3 0.02000 0.64000   1
  -5   0  -3 0.01000 0.86000   1
  -5   0  -3 -0.2300 1.21000   1
  -1   1   8 38.7800 2.55000   1
  -1   1   8 42.9200 3.78000   1
  -1  -1   8 47.1700 2.90000   1
  -1   1   8 50.6400 4.06000   1
  -1   1   8 49.7800 3.67000   1
   1   1  -8 47.4500 5.24000   1
   1  -1  -8 49.3000 3.21000   1
   1  -1  -8 45.8300 3.04000   1
  -1  -1   8 44.7700 5.46000   1
   1   0   8 17.8400 1.31000   1
   1   0   8 20.6300 2.29000   1
  -1   0  -8 20.8500 1.68000   1
  -1   0  -8 17.1200 1.06000   1
  -1   0  -8 24.5100 3.56000   1
  -1   0  -8 21.6500 2.82000   1
  -2   2  -2 39.6200 3.36000   1
   2  -2   2 34.6100 2.92000   1
   2  -2   2 38.4600 2.81000   1
  -2   2  -2 42.0800 5.35000   1
   2   2   2 37.7200 4.07000   1
  -2   2  -2 32.2200 2.65000   1
  -2  -2  -2 34.8600 3.64000   1
  -2  -2  -2 32.6900 4.36000   1
   2  -2   2 36.5900 2.98000   1
  -2  -2  -2 32.5300 2.70000   1
   2  -2   2 41.7600 3.70000   1
  -2  -2  -2 31.8200 3.02000   1
   2   2   2 34.3300 2.87000   1
   0  -2  -4 43.7500 3.56000   1
   0  -2  -4 42.2100 3.27000   1
   0   2  -4 39.6400 2.66000   1
   0  -2  -4 41.5800 3.01000   1
   0   2  -4 45.3300 3.22000   1
   0   2  -4 49.9900 3.90000   1
   0   2   4 41.6500 3.15000   1
   0  -2   4 35.8400 4.12000   1
   0   2   4 38.2400 2.91000   1
   0  -2   4 41.5600 2.95000   1
   0  -2   4 47.1800 4.24000   1
   0   2   4 49.9000 4.56000   1
   0   2  -4 42.6200 5.54000   1
  -3  -2   1 4.23000 1.93000   1
  -3  -2   1 3.25000 1.70000   1
   3   2  -1 3.32000 1.37000   1
  -3  -2   1 3.71000 1.81000   1
  -3  -2   1 2.24000 1.34000   1
   3  -2  -1 4.33000 2.02000   1
   3  -2  -1 3.35000 1.01000   1
  -3   2   1 2.34000 1.13000   1
  -3   2   1 4.19000 1.26000   1
   3  -2  -1 4.01000 1.10000   1
  -3   0   9 -0.0500 0.83000   1
   3   0  -9 -0.0700 0.78000   1
   3   0  -9 0.67000 1.54000   1
  -3   0   9 0.27000 1.92000   1
  -3   0   9 0.22000 0.71000   1
   3   2  -2 20.5100 3.19000   1
  -3  -2   2 19.2100 2.78000   1
  -3  -2   2 23.6400 3.64000   1
  -3  -2   2 21.0400 2.85000   1
  -3  -2   2 18.0700 2.22000   1
   3  -2  -2 17.5400 1.62000   1
   3  -2  -2 21.5500 2.94000   1
   3  -2  -2 18.3700 1.80000   1
  -3   2   2 18.9100 2.63000   1
  -3   2   2 19.9800 2.04000   1
  -3   1   8 63.4400 4.10000   1
   3  -1  -8 69.5700 4.82000   1
   3  -1  -8 70.5400 4.65000   1
   3   1  -8 68.7200 5.96000   1
   3  -1  -8 60.4800 4.12000   1
   3   1  -8 69.8200 4.06000   1
  -3   1   8 67.2600 4.75000   1
  -3  -1   8 65.3400 6.61000   1
   2  -2  -4 0.99000 1.04000   1
   2  -2  -4 1.18000 1.47000   1
   2   2  -4 -0.8000 2.73000   1
   2   2  -4 1.33000 1.00000   1
   2   2  -4 0.97000 1.48000   1
  -2   2   4 1.38000 0.95000   1
  -2   2   4 0.71000 1.59000   1
  -2  -2   4 1.11000 0.94000   1
  -2  -2   4 0.61000 2.18000   1
  -2  -2   4 0.28000 0.51000   1
  -2   2   4 0.76000 1.65000   1
  -1   0   9 -0.0600 0.67000   1
  -1   0   9 -0.5100 1.08000   1
  -1   0   9 -2.1900 1.70000   1
   1   0  -9 0.08000 1.69000   1
   1   0  -9 0.04000 0.25000   1
   6   0  -6 1.39000 1.50000   1
   6   0  -6 3.20000 1.79000   1
  -6   0   6 1.88000 1.20000   1
   6   0  -6 1.54000 1.08000   1
  -6   0   6 1.54000 0.73000   1
  -6   0   6 0.77000 1.45000   1
  -4   0  -5 -0.8100 1.93000   1
  -4   0  -5 -0.2400 0.61000   1
   4   0   5 -0.0300 1.61000   1
   4   0   5 0.16000 0.78000   1
   3   2   0 1.63000 1.43000   1
  -3  -2   0 0.94000 1.88000   1
  -3  -2   0 1.28000 1.42000   1
  -3  -2   0 0.58000 1.73000   1
   3   2   0 1.34000 1.90000   1
  -3  -2   0 0.52000 0.81000   1
  -3   2   0 0.28000 1.40000   1
  -3   2   0 0.82000 1.01000   1
   3  -2   0 1.93000 1.19000   1
   3  -2   0 1.36000 0.70000   1
  -3  -2   3 0.22000 1.10000   1
   3   2  -3 1.10000 1.78000   1
   3   2  -3 0.57000 1.02000   1
   3   2  -3 1.42000 2.24000   1
  -3  -2   3 1.35000 1.18000   1
  -3  -2   3 -0.0300 1.61000   1
   3  -2  -3 0.65000 0.73000   1
  -3   2   3 1.57000 0.75000   1
  -3   2   3 0.77000 1.53000   1
   3  -2  -3 1.67000 1.61000   1
   5   0  -8 63.4700 5.20000   1
   5   0  -8 61.4200 4.23000   1
   5   0  -8 65.1000 4.65000   1
  -5   0   8 67.7100 5.91000   1
  -5   0   8 69.1600 4.60000   1
   4   1   4 112.580 9.13000   1
   4  -1   4 124.090 8.02000   1
   4   1   4 123.740 8.42000   1
  -4  -1  -4 113.730 7.72000   1
  -4   1  -4 118.950 7.46000   1
  -4  -1  -4 112.890 7.73000   1
  -4  -1  -4 128.220 10.6400   1
  -4  -1  -4 117.970 8.07000   1
  -4   1  -4 120.180 8.04000   1
   4   1   4 110.790 7.74000   1
   4  -1   4 116.810 8.40000   1
  -5  -1  -2 0.22000 1.23000   1
   5   1   2 1.04000 1.47000   1
   5   1   2 0.48000 1.69000   1
   5   1   2 0.25000 1.28000   1
   5  -1   2 1.89000 1.14000   1
  -5   1  -2 -0.1500 0.87000   1
   5   1   2 -0.2000 1.29000   1
  -5   1  -2 0.79000 0.90000   1
  -5  -1  -2 0.47000 1.16000   1
  -5  -1  -2 0.51000 2.09000   1
  -5  -1  -2 0.92000 0.90000   1
  -5   1  -2 -0.4900 1.34000   1
   5  -1   2 0.55000 1.26000   1
   0   1  -8 6.08000 0.87000   1
   0  -1  -8 4.59000 1.52000   1
   0  -1   8 3.65000 1.04000   1
   0   1   8 4.43000 0.86000   1
   0  -1   8 6.66000 1.89000   1
   0   1   8 6.90000 1.90000   1
   0   1  -8 7.26000 3.07000   1
   0   1   8 5.73000 1.62000   1
  -6   0  -1 -0.0400 0.98000   1
  -6   0  -1 0.23000 0.66000   1
  -6   0  -1 -0.6200 0.79000   1
   6   0   1 0.42000 1.21000   1
   6   0   1 -0.8800 1.43000   1
  -6   0  -1 0.05000 1.61000   1
   6  -1  -3 -0.2300 1.12000   1
  -6   1   3 0.23000 0.94000   1
   6   1  -3 0.54000 1.21000   1
  -6  -1   3 0.15000 1.37000   1
   6   1  -3 -0.8100 1.42000   1
  -6   1   3 -0.0200 1.03000   1
  -6  -1   3 0.55000 0.90000   1
  -6  -1   3 1.68000 1.33000   1
  -6   1   3 0.26000 1.08000   1
   6   1  -3 -0.4500 0.75000   1
  -6  -1   3 0.12000 0.95000   1
   6  -1  -3 0.18000 0.90000   1
   6   1  -3 0.95000 1.54000   1
  -6   1   3 0.07000 0.94000   1
   1  -2   4 13.6000 1.40000   1
   1  -2   4 14.3300 1.26000   1
   1   2   4 17.1700 1.40000   1
  -1   2  -4 16.3300 1.93000   1
  -1  -2  -4 15.2400 1.70000   1
  -1  -2  -4 15.1200 1.88000   1
  -1   2  -4 20.4700 2.17000   1
  -1   2  -4 17.8500 5.65000   1
   1   2   4 19.9700 2.98000   1
  -1   2  -4 16.8600 1.75000   1
  -3  -2  -1 3.82000 2.08000   1
  -3  -2  -1 6.34000 2.64000   1
   3   2   1 7.19000 1.73000   1
   3   2   1 7.05000 1.79000   1
  -3  -2  -1 5.47000 1.57000   1
  -3   2  -1 6.19000 1.04000   1
   3  -2   1 8.25000 2.24000   1
  -3   2  -1 8.35000 1.58000   1
   3  -2   1 5.54000 1.38000   1
   3  -2   1 8.16000 2.02000   1
   3  -2   1 5.66000 1.16000   1
   6   1  -2 66.1200 4.46000   1
   6   1  -2 68.2200 5.48000   1
   6   1  -2 64.5000 5.28000   1
   6   1  -2 70.2300 5.59000   1
  -6  -1   2 59.0600 5.16000   1
  -6  -1   2 62.8200 5.25000   1
  -6  -1   2 62.4300 4.51000   1
  -6  -1   2 60.3900 4.73000   1
  -6   1   2 60.2500 5.00000   1
   6  -1  -2 62.1600 4.77000   1
   6  -1  -2 64.1300 4.69000   1
  -6   1   2 60.1700 4.19000   1
  -6   1   2 66.2000 5.38000   1
  -6   1   2 57.5800 4.16000   1
  -4   0   9 0.28000 0.94000   1
   4   0  -9 -0.0600 1.59000   1
   4   0  -9 -0.1000 0.97000   1
  -4   0   9 -0.5700 0.71000   1
  -4   0   9 -0.4000 1.56000   1
  -1   2   5 2.25000 0.57000   1
  -1   2   5 1.57000 1.18000   1
  -1   2   5 2.54000 1.02000   1
   1  -2  -5 2.19000 1.13000   1
  -1   2   5 2.58000 1.38000   1
  -1   2   5 2.41000 1.43000   1
  -1  -2   5 2.78000 0.88000   1
   1   2  -5 1.65000 2.65000   1
   1   2  -5 2.11000 1.12000   1
   1   2  -5 2.61000 1.88000   1
  -1  -2   5 1.06000 2.40000   1
  -2  -2  -3 0.78000 1.12000   1
  -2   2  -3 0.70000 1.23000   1
  -2   2  -3 0.48000 0.66000   1
  -2   2  -3 2.16000 2.49000   1
   2  -2   3 1.46000 0.76000   1
   2   2   3 1.44000 1.30000   1
   2  -2   3 0.82000 0.88000   1
   2  -2   3 0.37000 0.78000   1
   2   2   3 1.17000 0.94000   1
  -2  -2  -3 1.31000 2.25000   1
  -2  -2  -3 0.31000 1.07000   1
  -2  -2  -3 0.57000 0.72000   1
  -2   2  -3 3.62000 2.92000   1
  -6  -1   4 17.8000 2.66000   1
  -6   1   4 19.9400 2.74000   1
  -6   1   4 16.2700 1.94000   1
  -6  -1   4 15.8700 2.32000   1
   6   1  -4 19.7400 2.71000   1
   6   1  -4 18.9900 2.93000   1
   6   1  -4 20.6500 2.36000   1
   6  -1  -4 19.5600 2.08000   1
  -6  -1   4 16.6500 2.05000   1
   6  -1  -4 19.7800 2.15000   1
  -6   1   4 18.1600 2.03000   1
  -6   1   4 17.2800 1.72000   1
  -6  -1   4 16.0700 1.91000   1
   3   2  -4 4.05000 0.94000   1
   3   2  -4 5.08000 2.77000   1
  -3  -2   4 3.63000 2.38000   1
  -3  -2   4 3.33000 0.93000   1
   3   2  -4 5.64000 1.41000   1
   3   2  -4 3.46000 1.19000   1
  -3  -2   4 3.23000 0.87000   1
   3  -2  -4 4.45000 1.88000   1
   3  -2  -4 3.95000 0.91000   1
  -3   2   4 3.56000 1.30000   1
  -3   2   4 3.33000 1.16000   1
   4   1  -8 35.8900 3.83000   1
   4   1  -8 41.0400 3.22000   1
  -4   1   8 38.2300 3.77000   1
  -4   1   8 38.5100 3.36000   1
  -4  -1   8 39.5200 3.14000   1
  -4   1   8 38.0800 2.82000   1
  -4  -1   8 33.4900 3.74000   1
  -4  -1   8 36.4400 3.01000   1
   4  -1  -8 38.5300 3.02000   1
   4  -1  -8 35.8400 3.23000   1
   0   0   9 0.72000 1.24000   1
   0   0  -9 -0.4100 1.85000   1
   0   0   9 0.07000 0.49000   1
   5  -1  -7 32.1400 2.74000   1
  -5   1   7 33.4900 3.36000   1
  -5   1   7 32.7500 2.36000   1
  -5  -1   7 36.7400 3.04000   1
   5   1  -7 34.1700 3.40000   1
   5   1  -7 33.8900 2.66000   1
  -5  -1   7 32.0700 3.53000   1
   5  -1  -7 32.8100 3.12000   1
  -5   1   7 28.5800 2.86000   1
  -5  -1   7 31.4700 2.87000   1
   5   1  -7 36.5200 3.25000   1
  -5  -1   7 34.1700 2.80000   1
   5  -1  -7 38.8800 3.76000   1
  -2   2   5 1.15000 1.62000   1
  -2   2   5 1.42000 0.76000   1
  -2   2   5 1.81000 1.34000   1
   2  -2  -5 4.13000 1.12000   1
   2  -2  -5 2.10000 1.46000   1
  -2   2   5 1.08000 1.65000   1
  -2   2   5 2.10000 1.00000   1
  -2  -2   5 -0.2400 2.28000   1
   2   2  -5 0.99000 3.32000   1
   2   2  -5 2.50000 0.84000   1
  -2  -2   5 1.17000 0.95000   1
  -6  -1   1 10.8400 1.85000   1
  -6  -1   1 11.9800 2.58000   1
  -6  -1   1 11.4000 1.34000   1
   6   1  -1 13.9800 2.38000   1
   6   1  -1 13.5100 2.27000   1
   6   1  -1 10.6100 2.29000   1
  -6  -1   1 10.6300 1.95000   1
  -6   1   1 11.7800 1.90000   1
   6  -1  -1 12.4400 1.88000   1
  -6   1   1 12.4300 1.96000   1
   6  -1  -1 11.9000 2.28000   1
  -6   1   1 13.5900 2.45000   1
  -6   1   1 9.70000 1.63000   1
   6   0  -7 0.15000 1.13000   1
   6   0  -7 -0.1800 1.39000   1
   6   0  -7 -0.2400 0.98000   1
  -6   0   7 0.24000 0.77000   1
  -6   0   7 -0.4100 1.33000   1
  -6   0   7 0.45000 1.22000   1
   0  -2  -5 12.4500 1.60000   1
   0   2   5 11.1200 2.45000   1
   0   2   5 11.2300 1.50000   1
   0  -2  -5 12.6700 1.55000   1
   0   2   5 12.5900 2.09000   1
   0   2  -5 17.0600 2.00000   1
   0  -2   5 10.3900 1.83000   1
   0  -2   5 13.5300 1.58000   1
   0   2  -5 11.7800 1.67000   1
   0   2  -5 13.2000 1.73000   1
   0   2  -5 12.4600 3.95000   1
   6  -1  -5 -1.3000 1.38000   1
  -6  -1   5 0.64000 1.14000   1
  -6  -1   5 0.35000 0.92000   1
  -6   1   5 0.40000 1.48000   1
  -6  -1   5 -0.6300 1.16000   1
  -6   1   5 1.02000 0.88000   1
  -6   1   5 0.73000 1.03000   1
  -6   1   5 -0.9900 1.31000   1
  -6  -1   5 0.66000 1.14000   1
   6  -1  -5 0.64000 1.16000   1
   6   1  -5 -0.8900 1.79000   1
   6   1  -5 0.74000 1.33000   1
   6  -1  -5 -0.2100 1.32000   1
   6   1  -5 0.37000 1.26000   1
  -2   1  -7 4.75000 4.16000   1
  -2  -1  -7 5.66000 2.88000   1
  -2   1  -7 3.85000 0.71000   1
  -2  -1  -7 4.70000 1.19000   1
  -2  -1  -7 3.56000 1.23000   1
  -2   1  -7 3.04000 1.31000   1
  -2   1  -7 3.18000 0.77000   1
   2   1   7 4.26000 1.57000   1
   2   1   7 4.33000 1.10000   1
   2  -1   7 3.80000 1.02000   1
  -2   1  -7 5.44000 2.21000   1
   5   0   4 65.6600 5.78000   1
  -5   0  -4 65.1700 5.71000   1
   5   0   4 68.9300 4.92000   1
  -5   0  -4 62.8300 4.40000   1
  -5   0  -4 63.3400 4.89000   1
  -3   1  -6 30.6300 2.30000   1
  -3   1  -6 30.2100 2.18000   1
  -3   1  -6 28.2700 2.90000   1
  -3  -1  -6 28.7500 2.66000   1
   3  -1   6 29.2700 2.45000   1
   3   1   6 29.3800 2.66000   1
  -3  -1  -6 31.3200 2.84000   1
   3  -1   6 31.6100 3.20000   1
  -3  -1  -6 28.2900 1.98000   1
   3   1   6 27.6900 2.26000   1
  -3  -1  -6 27.2000 3.46000   1
  -3  -2  -2 2.18000 1.40000   1
   3   2   2 1.86000 1.01000   1
  -3  -2  -2 0.28000 0.83000   1
   3   2   2 2.37000 1.95000   1
  -3  -2  -2 0.77000 2.37000   1
   3  -2   2 1.95000 0.85000   1
  -3   2  -2 1.07000 0.98000   1
  -3   2  -2 2.05000 1.11000   1
  -3   2  -2 1.13000 1.30000   1
   3  -2   2 1.65000 1.65000   1
   3  -2   2 1.69000 1.61000   1
   3  -2   2 1.77000 0.81000   1
  -4  -2   2 0.13000 1.67000   1
   4   2  -2 1.49000 1.73000   1
  -4  -2   2 0.27000 1.30000   1
  -4  -2   2 1.31000 1.50000   1
   4   2  -2 1.37000 1.25000   1
   4   2  -2 2.43000 1.49000   1
  -4  -2   2 0.49000 0.87000   1
   4   2  -2 -0.2000 1.69000   1
   4  -2  -2 1.59000 0.92000   1
  -4   2   2 -0.2100 1.08000   1
  -4   2   2 1.42000 1.11000   1
   4  -2  -2 0.37000 1.18000   1
   4  -2  -2 0.63000 0.86000   1
  -3   0  -7 0.49000 1.99000   1
  -3   0  -7 -0.1600 0.72000   1
  -3   0  -7 -0.4800 0.55000   1
   3   0   7 0.08000 0.74000   1
  -3   0  -7 -0.1100 0.60000   1
   6   1   0 61.0300 4.84000   1
   6   1   0 54.0300 4.26000   1
   6   1   0 70.4800 5.59000   1
   6   1   0 63.1400 5.13000   1
  -6  -1   0 61.8300 4.47000   1
  -6  -1   0 56.7900 4.58000   1
  -6  -1   0 72.0600 6.28000   1
  -6  -1   0 60.8000 4.55000   1
   6  -1   0 59.3700 3.88000   1
   6  -1   0 63.7200 4.62000   1
  -6   1   0 60.4600 4.63000   1
   6  -1   0 59.3900 4.40000   1
  -6   1   0 70.0100 5.44000   1
  -6   1   0 62.9800 4.75000   1
   2  -1  -9 47.7300 3.23000   1
   2  -1  -9 46.0900 3.14000   1
  -2   1   9 44.4100 3.76000   1
  -2   1   9 45.4000 2.94000   1
  -2   1   9 48.7600 3.93000   1
   2   1  -9 48.9700 4.91000   1
  -2  -1   9 45.5700 3.08000   1
   2   1  -9 46.1500 3.12000   1
  -2  -1   9 46.9300 5.38000   1
   2   0   8 6.66000 0.75000   1
   2   0   8 4.84000 1.11000   1
   2   0   8 7.28000 0.93000   1
  -2   0  -8 11.9600 2.48000   1
  -2   0  -8 6.37000 0.84000   1
   3  -2  -5 12.8800 2.15000   1
  -3   2   5 9.12000 2.07000   1
  -3   2   5 9.79000 1.47000   1
   3  -2  -5 8.38000 1.45000   1
   3   2  -5 9.31000 2.08000   1
  -3  -2   5 8.68000 1.52000   1
  -3  -2   5 7.75000 1.01000   1
  -3  -2   5 3.86000 2.54000   1
   3   2  -5 9.89000 1.22000   1
   3   2  -5 9.50000 2.66000   1
   3   2  -5 9.20000 1.30000   1
  -4  -2   1 9.31000 1.91000   1
   4   2  -1 7.08000 1.80000   1
  -4  -2   1 6.46000 1.47000   1
  -4  -2   1 3.32000 1.96000   1
   4   2  -1 7.64000 1.71000   1
  -4  -2   1 9.99000 2.25000   1
   4   2  -1 7.93000 2.03000   1
   4   2  -1 3.11000 2.04000   1
   4  -2  -1 7.78000 1.65000   1
  -4   2   1 7.27000 1.49000   1
  -4   2   1 8.24000 1.96000   1
   4  -2  -1 5.53000 1.28000   1
   4  -2  -1 7.11000 1.37000   1
  -6   0  -2 0.41000 0.98000   1
  -6   0  -2 0.90000 0.82000   1
  -6   0  -2 0.82000 1.83000   1
   6   0   2 1.63000 1.32000   1
   6   0   2 1.38000 1.58000   1
  -6   0  -2 2.02000 1.11000   1
  -5  -1  -3 0.91000 1.88000   1
  -5   1  -3 2.26000 1.53000   1
  -5  -1  -3 1.96000 0.96000   1
   5  -1   3 0.92000 1.31000   1
   5   1   3 2.05000 1.53000   1
   5  -1   3 1.80000 1.36000   1
   5   1   3 1.57000 1.88000   1
   5   1   3 2.10000 1.35000   1
  -5  -1  -3 1.28000 1.01000   1
  -5   1  -3 1.93000 0.92000   1
  -5   1  -3 3.05000 0.96000   1
  -5  -1  -3 1.54000 1.10000   1
   4   2  -3 45.9800 3.76000   1
   4   2  -3 47.5800 4.77000   1
   4  -2  -3 41.6300 2.97000   1
   4   2  -3 41.7200 3.82000   1
  -4  -2   3 44.2100 3.95000   1
  -4   2   3 43.3800 3.20000   1
  -4   2   3 47.3500 3.74000   1
  -4  -2   3 43.0800 4.61000   1
   4   2  -3 41.0500 3.13000   1
   4   2  -3 47.3200 4.21000   1
   4  -2  -3 42.1800 3.17000   1
   4  -2  -3 46.4300 3.70000   1
   1   1   8 48.4600 4.13000   1
  -1  -1  -8 40.1600 3.02000   1
  -1   1  -8 47.5100 5.91000   1
  -1  -1  -8 37.9100 2.84000   1
  -1   1  -8 46.2800 4.18000   1
   1   1   8 43.8500 3.30000   1
   1  -1   8 43.4600 3.12000   1
   7   0  -3 0.08000 0.85000   1
   7   0  -3 -0.3200 1.50000   1
  -7   0   3 -0.4300 0.87000   1
  -7   0   3 -0.1800 1.07000   1
  -7   0   3 -0.7200 1.13000   1
   7   0  -3 -0.6400 1.01000   1
   7   0  -4 146.040 9.72000   1
  -7   0   4 121.860 8.27000   1
  -7   0   4 129.440 8.88000   1
  -7   0   4 132.640 9.54000   1
   7   0  -4 146.660 9.60000   1
   7   0  -4 116.500 7.89000   1
  -3   1   9 26.3700 3.10000   1
  -3   1   9 27.1800 2.65000   1
  -3   1   9 28.2900 2.34000   1
   3  -1  -9 27.0200 2.58000   1
   3  -1  -9 25.5900 2.18000   1
   3   1  -9 27.7700 2.29000   1
  -3  -1   9 24.1700 3.88000   1
   3   1  -9 28.4900 4.28000   1
  -3  -1   9 27.7000 2.16000   1
  -1   1   9 6.41000 0.90000   1
  -1   1   9 7.37000 1.92000   1
  -1   1   9 5.82000 1.37000   1
   1  -1  -9 5.63000 0.95000   1
   1   1  -9 6.00000 0.99000   1
  -1  -1   9 4.64000 0.78000   1
  -1  -1   9 6.11000 2.71000   1
   1   1  -9 7.08000 3.62000   1
  -2   2  -4 0.08000 0.62000   1
   2   2   4 -0.0800 0.60000   1
   2  -2   4 0.47000 0.60000   1
   2  -2   4 0.24000 0.64000   1
   2   2   4 1.09000 1.51000   1
  -2  -2  -4 0.12000 0.84000   1
  -2   2  -4 -0.4200 1.15000   1
  -2  -2  -4 0.54000 0.87000   1
  -2  -2  -4 -1.1600 2.15000   1
  -2   2  -4 -0.1200 0.78000   1
  -2  -2  -4 0.40000 0.83000   1
  -2   2  -4 -0.1700 0.99000   1
  -2   2  -4 -0.3100 0.73000   1
  -2   2  -4 -1.2300 3.67000   1
  -1  -2  -5 4.74000 1.20000   1
  -1  -2  -5 3.26000 1.02000   1
   1   2   5 7.37000 2.01000   1
  -1   2  -5 4.50000 1.10000   1
  -1   2  -5 4.06000 1.03000   1
  -1   2  -5 6.85000 1.54000   1
   1  -2   5 3.34000 0.86000   1
  -1   2  -5 3.07000 0.58000   1
  -1   2  -5 4.99000 4.49000   1
   1  -2   5 3.74000 0.81000   1
   7   0  -2 0.62000 1.24000   1
   7   0  -2 -0.3800 1.11000   1
  -7   0   2 0.17000 1.63000   1
  -7   0   2 1.12000 0.77000   1
  -7   0   2 0.04000 0.61000   1
   7   0  -2 0.48000 1.33000   1
  -6   1   6 7.91000 1.35000   1
  -6  -1   6 8.31000 2.27000   1
  -6   1   6 9.89000 1.66000   1
  -6  -1   6 9.85000 1.38000   1
   6  -1  -6 10.9000 1.59000   1
   6   1  -6 6.66000 1.47000   1
   6  -1  -6 8.67000 1.45000   1
   6   1  -6 7.18000 1.54000   1
   6   1  -6 8.95000 2.52000   1
   6  -1  -6 8.55000 1.94000   1
  -6  -1   6 10.6100 1.79000   1
  -6   1   6 9.31000 1.55000   1
  -6  -1   6 8.74000 1.25000   1
  -2   0  10 53.5700 6.05000   1
   2   0 -10 52.8700 4.50000   1
  -2   0  10 55.9400 3.59000   1
  -2   0  10 59.3900 3.38000   1
  -5   0   9 1.07000 1.52000   1
   5   0  -9 0.18000 1.46000   1
   5   0  -9 0.11000 1.10000   1
   5   0  -9 0.48000 0.64000   1
  -5   0   9 -0.1000 0.67000   1
   4   2   0 9.05000 2.00000   1
   4   2   0 8.13000 1.82000   1
  -4  -2   0 11.1600 2.55000   1
   4   2   0 8.53000 2.53000   1
  -4  -2   0 7.70000 1.71000   1
  -4  -2   0 7.31000 1.69000   1
   4   2   0 10.6200 1.71000   1
  -4  -2   0 7.76000 1.53000   1
  -4   2   0 7.26000 1.11000   1
   4  -2   0 8.57000 1.25000   1
   4  -2   0 8.86000 1.37000   1
  -4   2   0 10.2600 1.90000   1
   4  -2   0 8.45000 2.25000   1
   4   1   5 4.38000 1.44000   1
   4   1   5 3.56000 1.57000   1
  -4   1  -5 4.54000 1.11000   1
  -4   1  -5 4.13000 1.56000   1
  -4  -1  -5 5.27000 2.91000   1
  -4   1  -5 4.31000 0.98000   1
  -4  -1  -5 3.66000 0.87000   1
  -4  -1  -5 4.04000 0.92000   1
   4  -1   5 5.13000 1.60000   1
  -4  -1  -5 3.33000 1.49000   1
   4   1   5 2.78000 2.00000   1
   4  -1   5 5.53000 1.52000   1
   1  -2  -6 10.0900 1.46000   1
  -1   2   6 12.0000 2.32000   1
  -1   2   6 8.79000 1.38000   1
  -1   2   6 12.0000 1.93000   1
   1   2  -6 12.4100 4.46000   1
   1   2  -6 9.41000 1.23000   1
  -1  -2   6 9.16000 1.06000   1
   1   2  -6 10.5900 1.71000   1
  -1  -2   6 9.82000 3.07000   1
  -4   0  -6 6.93000 0.99000   1
   4   0   6 7.71000 1.68000   1
   4   0   6 8.19000 1.43000   1
  -4   0  -6 9.57000 2.53000   1
  -4   0  -6 8.33000 1.26000   1
   3   0 -10 124.230 8.96000   1
   3   0 -10 129.880 7.90000   1
  -3   0  10 131.110 10.9600   1
   2  -2  -6 7.11000 1.31000   1
  -2   2   6 7.99000 1.24000   1
   2  -2  -6 7.25000 1.32000   1
  -2   2   6 7.16000 1.67000   1
  -2   2   6 7.55000 1.78000   1
  -2   2   6 8.47000 2.29000   1
  -2   2   6 7.47000 0.92000   1
   2   2  -6 6.14000 1.39000   1
  -2  -2   6 7.03000 2.02000   1
   2   2  -6 12.4500 4.03000   1
   2   2  -6 8.75000 2.20000   1
  -2  -2   6 8.26000 1.25000   1
   7   0  -5 -0.8700 1.27000   1
   7   0  -5 1.22000 1.61000   1
   7   0  -5 -0.2600 1.03000   1
  -7   0   5 -0.7600 0.86000   1
  -7   0   5 -0.3300 1.60000   1
  -7   0   5 -1.4400 1.28000   1
  -4   2   4 11.8600 2.16000   1
  -4  -2   4 9.79000 2.54000   1
  -4   2   4 9.96000 1.61000   1
   4   2  -4 9.62000 1.56000   1
   4   2  -4 10.4900 1.78000   1
   4   2  -4 11.7500 2.26000   1
  -4   2   4 9.75000 1.16000   1
   4  -2  -4 10.4200 1.44000   1
   4   2  -4 11.2500 2.92000   1
   4  -2  -4 7.84000 1.12000   1
   4  -2  -4 10.4100 1.70000   1
   4   2  -4 12.0900 2.09000   1
  -4  -2   4 9.55000 1.26000   1
  -1   0  -9 0.14000 0.28000   1
  -1   0  -9 0.12000 1.05000   1
  -1   0  -9 -0.2000 1.99000   1
   1   0   9 0.25000 1.13000   1
   1   0   9 -0.1200 0.42000   1
  -5   1   8 6.83000 1.17000   1
   5   1  -8 9.54000 2.60000   1
   5  -1  -8 5.73000 1.55000   1
   5   1  -8 6.13000 1.58000   1
   5   1  -8 6.71000 1.12000   1
   5  -1  -8 6.87000 1.02000   1
   5  -1  -8 6.89000 1.57000   1
  -5   1   8 6.75000 1.58000   1
  -5  -1   8 7.39000 2.00000   1
  -5   1   8 7.38000 1.78000   1
  -5  -1   8 6.96000 1.31000   1
  -5  -1   8 7.80000 1.33000   1
   6   0  -8 35.6900 3.02000   1
   6   0  -8 30.0700 3.31000   1
  -6   0   8 32.4400 3.48000   1
  -6   0   8 27.9800 2.51000   1
   6   0  -8 24.8200 2.05000   1
   1   0 -10 4.29000 2.60000   1
  -1   0  10 3.23000 0.74000   1
  -1   0  10 8.61000 2.08000   1
  -1   0  10 4.25000 1.18000   1
  -7   0   1 0.73000 0.83000   1
   7   0  -1 -0.8000 1.32000   1
  -7   0   1 0.94000 1.17000   1
   7   0  -1 0.53000 1.40000   1
  -7   0   1 1.06000 0.86000   1
  -3  -2  -3 2.68000 1.19000   1
  -3  -2  -3 1.81000 0.99000   1
  -3  -2  -3 2.55000 2.44000   1
  -3  -2  -3 2.50000 0.88000   1
   3   2   3 3.31000 0.98000   1
   3   2   3 3.31000 1.39000   1
  -3   2  -3 2.11000 0.98000   1
   3  -2   3 2.78000 0.77000   1
   3  -2   3 1.65000 0.81000   1
   3  -2   3 1.86000 1.57000   1
  -3   2  -3 1.96000 1.90000   1
  -3   2  -3 2.79000 0.90000   1
  -3   2  -3 1.97000 1.15000   1
   6   1   1 16.8600 2.30000   1
  -6  -1  -1 13.1700 1.39000   1
   6   1   1 16.9500 2.39000   1
  -6  -1  -1 15.4300 2.07000   1
  -6  -1  -1 16.7900 3.23000   1
  -6  -1  -1 14.0000 1.86000   1
   6   1   1 17.2600 2.38000   1
   6   1   1 16.6300 2.74000   1
  -6  -1  -1 12.8200 2.10000   1
  -6   1  -1 19.0600 2.55000   1
  -6   1  -1 15.9600 1.90000   1
   6  -1   1 17.0000 2.29000   1
   6  -1   1 14.5600 1.82000   1
  -6   1  -1 13.9100 1.71000   1
   0   2   6 30.4300 2.48000   1
   0   2   6 39.4100 3.53000   1
   0  -2  -6 29.1400 2.48000   1
   0   2   6 36.8600 3.58000   1
   0  -2  -6 28.0700 2.34000   1
   0  -2   6 29.3900 2.83000   1
   0  -2   6 31.5900 2.22000   1
   0   2  -6 29.4000 2.80000   1
   0   2  -6 33.1600 6.77000   1
   0   2  -6 35.3300 2.80000   1
   0   2  -6 31.3100 2.40000   1
   4  -1  -9 2.10000 0.92000   1
  -4   1   9 2.69000 0.84000   1
  -4   1   9 2.73000 1.45000   1
  -4   1   9 3.33000 1.27000   1
   4  -1  -9 3.10000 1.18000   1
   4  -1  -9 2.81000 1.16000   1
   4   1  -9 3.09000 2.40000   1
  -4  -1   9 3.20000 1.26000   1
  -4  -1   9 3.74000 0.95000   1
  -4  -1   9 3.61000 2.58000   1
   4   1  -9 2.89000 0.73000   1
   4   1  -9 3.08000 1.34000   1
  -4  -2  -1 23.9600 3.52000   1
  -4  -2  -1 21.0100 2.60000   1
   4   2   1 24.7100 3.39000   1
  -4  -2  -1 18.0900 2.45000   1
   4   2   1 23.1100 2.85000   1
   4   2   1 21.0200 2.43000   1
  -4   2  -1 22.1700 2.29000   1
   4  -2   1 22.3500 2.00000   1
   4  -2   1 23.8400 2.98000   1
   4  -2   1 29.6900 2.84000   1
   4  -2   1 20.9100 2.10000   1
  -4   2  -1 23.9800 2.58000   1
  -4   2  -1 22.9200 2.26000   1
   3   2  -6 17.5000 1.53000   1
  -3  -2   6 17.1600 1.84000   1
  -3   2   6 18.0300 2.15000   1
  -3  -2   6 19.3100 1.42000   1
   3   2  -6 20.7400 2.58000   1
   3  -2  -6 20.7900 2.71000   1
  -3   2   6 20.7100 1.99000   1
  -3  -2   6 17.1100 2.68000   1
   3   2  -6 20.0800 1.86000   1
   3   2  -6 21.2500 4.36000   1
   3   2  -6 22.9600 2.58000   1
   3  -2  -6 19.1100 1.76000   1
  -3   2   6 24.2600 2.13000   1
   4   0 -10 15.0100 2.46000   1
  -4   0  10 12.1900 1.52000   1
  -4   0  10 13.0200 1.62000   1
  -4   0  10 9.65000 2.50000   1
   4   0 -10 12.5000 1.60000   1
   0   1   9 9.72000 1.51000   1
   0   1   9 6.93000 0.90000   1
   0  -1   9 7.78000 1.60000   1
   0  -1   9 8.58000 1.20000   1
   0   1   9 8.38000 1.42000   1
   0   1  -9 8.20000 2.03000   1
   0   1  -9 8.12000 0.89000   1
   0  -1  -9 7.29000 1.77000   1
   0   1  -9 13.3000 4.30000   1
   0  -1  -9 10.7500 1.27000   1
   7   0  -6 164.510 11.1300   1
   7   0  -6 171.510 11.7200   1
  -7   0   6 147.570 11.1000   1
  -7   0   6 142.220 9.54000   1
  -7   0   6 141.620 9.30000   1
   7   0  -6 161.790 10.8000   1
   4   2  -5 10.5100 2.14000   1
   4   2  -5 8.34000 1.50000   1
   4  -2  -5 6.49000 1.06000   1
   4   2  -5 8.94000 1.46000   1
  -4  -2   5 10.9300 2.32000   1
   4  -2  -5 10.9700 2.01000   1
  -4   2   5 7.81000 1.21000   1
  -4   2   5 9.78000 1.63000   1
  -4   2   5 7.74000 1.47000   1
   4   2  -5 8.41000 1.42000   1
  -4  -2   5 6.94000 1.21000   1
  -4  -2   5 6.89000 1.22000   1
  -6   1   7 15.0700 2.14000   1
  -6  -1   7 14.2900 1.92000   1
   6   1  -7 13.8100 2.79000   1
   6   1  -7 17.0900 2.13000   1
   6   1  -7 14.5200 1.62000   1
  -6  -1   7 16.1700 1.80000   1
   6  -1  -7 16.3200 1.82000   1
   6  -1  -7 12.6300 1.74000   1
   6  -1  -7 17.1700 2.21000   1
  -6   1   7 16.5600 2.49000   1
  -6  -1   7 15.7300 2.10000   1
  -6   1   7 15.7900 1.78000   1
  -6  -1   7 12.0100 2.81000   1
  -6   0  -3 0.13000 0.65000   1
  -6   0  -3 0.08000 1.26000   1
  -6   0  -3 -0.0900 0.84000   1
   6   0   3 -0.5500 1.04000   1
  -6   0  -3 -0.0400 0.86000   1
   6   0   3 -0.5100 1.36000   1
  -5   0  -5 -0.0600 0.64000   1
  -5   0  -5 -0.3900 1.66000   1
   5   0   5 -0.2700 1.38000   1
   5   0   5 0.23000 0.79000   1
  -7   0   0 23.8600 2.40000   1
   7   0   0 28.2000 2.54000   1
   7   0   0 20.7400 2.94000   1
  -7   0   0 29.2100 3.32000   1
  -7   0   0 20.1700 2.26000   1
   5   1   4 49.9000 3.89000   1
   5   1   4 40.8900 4.51000   1
   5  -1   4 48.1100 3.82000   1
  -5   1  -4 42.3500 3.12000   1
  -5  -1  -4 46.1500 3.82000   1
  -5  -1  -4 40.8500 3.51000   1
  -5   1  -4 43.2000 3.53000   1
  -5  -1  -4 49.3600 5.46000   1
  -5   1  -4 39.1700 2.58000   1
  -5   1  -4 46.9800 3.94000   1
  -5  -1  -4 43.2500 3.41000   1
   5  -1   4 42.5200 3.91000   1
   5   1   4 47.5600 4.04000   1
  -2   2  -5 15.2700 1.67000   1
   2   2   5 16.3400 1.97000   1
   2  -2   5 13.2300 1.54000   1
   2  -2   5 13.9700 1.39000   1
  -2   2  -5 13.9200 5.22000   1
  -2   2  -5 10.3700 1.53000   1
  -2  -2  -5 18.4500 3.65000   1
  -2  -2  -5 12.3200 1.71000   1
  -2   2  -5 12.9700 1.49000   1
  -2   2  -5 13.3800 1.37000   1
  -2  -2  -5 13.6800 1.72000   1
   0   0 -10 9.31000 2.50000   1
   0   0  10 9.46000 0.90000   1
   0   0  10 12.3900 1.87000   1
  -3   1  -7 0.19000 0.42000   1
  -3  -1  -7 0.33000 0.66000   1
  -3   1  -7 0.12000 0.66000   1
   3  -1   7 0.43000 0.65000   1
  -3   1  -7 -0.3200 0.98000   1
  -3  -1  -7 0.83000 1.66000   1
  -3  -1  -7 0.17000 0.86000   1
   3   1   7 0.27000 0.88000   1
  -3   1  -7 0.26000 0.75000   1
   3  -1   7 0.67000 1.30000   1
   3   1   7 -0.2200 1.00000   1
  -4  -2  -2 6.12000 1.47000   1
  -4  -2  -2 6.71000 1.49000   1
   4   2   2 8.40000 1.92000   1
   4   2   2 8.40000 2.34000   1
   4   2   2 8.23000 1.78000   1
  -4  -2  -2 9.84000 2.87000   1
   4  -2   2 8.33000 1.22000   1
   4  -2   2 8.10000 1.72000   1
  -4   2  -2 5.99000 1.31000   1
  -4   2  -2 7.94000 1.61000   1
  -4   2  -2 7.69000 1.32000   1
   4  -2   2 6.28000 1.45000   1
   4  -2   2 7.47000 1.14000   1
  -2   1  -8 46.7300 3.82000   1
  -2  -1  -8 52.5300 5.53000   1
  -2  -1  -8 42.0400 3.36000   1
  -2   1  -8 48.1000 2.97000   1
  -2  -1  -8 41.9400 2.90000   1
   2   1   8 49.1000 3.23000   1
  -2   1  -8 38.5700 3.45000   1
  -2   1  -8 44.6500 7.16000   1
  -1   2  -6 0.86000 0.46000   1
   1   2   6 1.11000 1.01000   1
   1   2   6 2.38000 1.60000   1
   1  -2   6 1.22000 0.58000   1
  -1   2  -6 0.30000 0.70000   1
  -1   2  -6 -0.4400 4.06000   1
  -1   2  -6 0.21000 0.89000   1
  -1   2  -6 0.54000 1.22000   1
  -1  -2  -6 0.62000 0.63000   1
  -1  -2  -6 1.29000 0.87000   1
  -6  -1  -2 6.83000 1.31000   1
  -6  -1  -2 7.87000 1.24000   1
   6   1   2 7.03000 1.67000   1
   6   1   2 9.77000 2.19000   1
   6   1   2 7.78000 1.83000   1
  -6  -1  -2 5.13000 1.38000   1
  -6  -1  -2 6.36000 1.85000   1
  -6  -1  -2 7.14000 1.56000   1
  -6   1  -2 7.78000 1.33000   1
  -6   1  -2 6.40000 1.18000   1
   6  -1   2 8.34000 1.80000   1
  -6   1  -2 7.50000 1.32000   1
   6  -1   2 6.10000 1.63000   1
   2   2  -7 14.7400 1.87000   1
  -2  -2   7 14.2200 3.09000   1
   2  -2  -7 11.6000 1.56000   1
  -2  -2   7 12.8000 1.37000   1
  -2   2   7 14.0700 1.98000   1
  -2   2   7 13.4000 2.07000   1
   2   2  -7 14.5500 4.31000   1
  -2   2   7 12.9100 1.85000   1
  -2   2   7 11.4100 1.36000   1
   7   0  -7 0.02000 0.66000   1
  -7   0   7 0.63000 0.75000   1
   7   0  -7 -0.2700 0.84000   1
   7   0  -7 -0.3900 0.98000   1
  -7   0   7 0.62000 1.37000   1
  -7   0   7 -0.2500 0.81000   1
  -1   2   7 1.99000 1.47000   1
   1   2  -7 1.99000 0.76000   1
   1  -2  -7 1.60000 0.99000   1
   1   2  -7 2.32000 1.14000   1
  -1  -2   7 1.95000 0.78000   1
  -1   2   7 3.18000 1.69000   1
   1   2  -7 1.40000 3.87000   1
  -1  -2   7 1.23000 2.27000   1
  -1   2   7 2.22000 0.84000   1
  -7   1   3 -0.1500 0.84000   1
  -7  -1   3 -0.4300 0.79000   1
  -7  -1   3 0.73000 1.24000   1
  -7   1   3 -0.5600 1.29000   1
  -7  -1   3 0.01000 0.79000   1
  -7   1   3 0.59000 1.02000   1
   7   1  -3 -0.2900 0.73000   1
   7  -1  -3 0.78000 1.02000   1
   7   1  -3 0.60000 1.00000   1
   7  -1  -3 -0.2600 0.97000   1
   7   1  -3 0.46000 1.14000   1
   7   1  -3 0.45000 0.96000   1
  -7  -1   3 0.52000 1.21000   1
  -7   1   3 0.48000 0.99000   1
  -5  -2   2 26.2700 2.39000   1
   5  -2  -2 30.9100 3.58000   1
   5   2  -2 30.0400 3.29000   1
  -5  -2   2 26.2400 3.02000   1
  -5  -2   2 26.1300 3.30000   1
  -5  -2   2 27.9900 3.21000   1
  -5   2   2 27.3800 2.68000   1
   5  -2  -2 27.5800 2.50000   1
   5  -2  -2 29.5300 2.71000   1
  -5   2   2 34.5100 3.32000   1
   5   2  -2 28.8700 3.55000   1
   5   2  -2 27.9600 3.19000   1
   5   2  -2 26.3300 2.85000   1
   3   2   4 0.37000 0.72000   1
   3   2   4 1.19000 1.49000   1
  -3  -2  -4 -0.1600 0.78000   1
  -3  -2  -4 0.19000 0.86000   1
  -3  -2  -4 0.44000 2.39000   1
  -3  -2  -4 0.02000 0.76000   1
   3  -2   4 -0.1400 1.19000   1
  -3   2  -4 -0.1100 0.68000   1
  -3   2  -4 0.28000 0.75000   1
   3  -2   4 -0.0800 0.71000   1
   3  -2   4 0.21000 0.53000   1
  -3   2  -4 0.04000 1.98000   1
   7  -1  -4 31.9300 2.74000   1
  -7  -1   4 29.9100 2.89000   1
  -7  -1   4 29.0600 3.28000   1
  -7   1   4 40.6900 3.76000   1
  -7   1   4 41.1600 3.60000   1
  -7  -1   4 40.8000 3.63000   1
   7   1  -4 40.2200 3.57000   1
  -7   1   4 32.7500 3.18000   1
   7   1  -4 37.7100 4.03000   1
   7   1  -4 33.9500 2.56000   1
   7  -1  -4 38.1300 3.12000   1
   7   1  -4 35.5700 2.94000   1
  -7  -1   4 36.3100 3.49000   1
  -7   1   4 34.4900 3.46000   1
   5  -2  -3 9.91000 1.48000   1
   5   2  -3 11.4400 1.40000   1
   5   2  -3 13.3300 2.51000   1
   5  -2  -3 12.1000 1.60000   1
   5   2  -3 13.3200 2.39000   1
  -5   2   3 13.0100 2.25000   1
   5  -2  -3 11.3400 2.16000   1
  -5  -2   3 10.2500 1.77000   1
   5   2  -3 12.4300 1.90000   1
   5   2  -3 10.4700 2.10000   1
  -5   2   3 12.0700 1.60000   1
  -5  -2   3 13.0300 2.40000   1
  -5  -2   3 9.84000 1.56000   1
   6   0  -9 -0.3000 0.72000   1
  -6   0   9 -0.1200 0.91000   1
  -6   0   9 0.59000 0.65000   1
   6   0  -9 0.27000 1.33000   1
   6   0  -9 -1.0100 0.95000   1
  -4  -2   6 0.89000 0.75000   1
   4   2  -6 -0.0300 0.90000   1
   4  -2  -6 0.76000 1.32000   1
   4   2  -6 -0.0300 1.45000   1
   4  -2  -6 1.18000 0.65000   1
   4   2  -6 -0.0700 0.89000   1
  -4   2   6 0.60000 0.76000   1
   4   2  -6 0.07000 0.79000   1
  -4   2   6 0.10000 0.84000   1
  -4  -2   6 0.68000 0.97000   1
  -4   2   6 2.27000 1.54000   1
   4   2  -6 0.35000 2.32000   1
  -4  -2   6 -0.1200 1.96000   1
   7  -1  -2 20.9300 2.60000   1
   7  -1  -2 18.3600 2.38000   1
   7   1  -2 16.7000 2.05000   1
   7   1  -2 19.7900 2.85000   1
  -7   1   2 16.3300 2.02000   1
  -7   1   2 20.5400 2.88000   1
  -7  -1   2 15.5500 1.93000   1
   7   1  -2 21.0800 2.14000   1
  -7   1   2 22.6900 2.50000   1
  -7  -1   2 21.0100 2.84000   1
  -7   1   2 16.2200 1.96000   1
  -7  -1   2 17.3000 1.89000   1
  -7  -1   2 17.0700 2.49000   1
   5   0 -10 37.7900 3.14000   1
  -5   0  10 39.6500 3.03000   1
   5   0 -10 36.0700 2.87000   1
  -5   0  10 40.3300 3.01000   1
  -5   0  10 35.5500 3.98000   1
   5   0 -10 36.3500 2.64000   1
   2   1 -10 18.8100 1.45000   1
  -2   1  10 18.1700 1.47000   1
  -2   1  10 19.6500 2.70000   1
  -2   1  10 15.2000 2.64000   1
   2  -1 -10 18.9000 1.73000   1
  -2  -1  10 17.2500 1.51000   1
   2   1 -10 18.4400 3.04000   1
   2  -1 -10 18.9500 1.56000   1
  -2  -1  10 16.2000 2.73000   1
  -2   1  10 16.7100 1.93000   1
   2  -1 -10 17.6900 1.58000   1
  -5   1   9 33.7900 2.95000   1
  -5   1   9 25.2300 2.43000   1
  -5   1   9 25.5000 3.27000   1
   5   1  -9 30.0700 2.67000   1
   5   1  -9 31.5900 2.47000   1
   5  -1  -9 25.3000 2.59000   1
  -5  -1   9 28.2400 2.61000   1
   5   1  -9 30.6900 3.96000   1
   5  -1  -9 26.4200 2.67000   1
  -5  -1   9 27.9300 3.69000   1
  -5  -1   9 28.1400 2.59000   1
  -5   2   1 -0.5300 1.03000   1
  -5  -2   1 1.23000 1.50000   1
  -5   2   1 0.00000 0.55000   1
   5   2  -1 0.67000 1.08000   1
   5  -2  -1 -0.4700 0.81000   1
   5  -2  -1 -0.3400 0.96000   1
  -5  -2   1 0.53000 1.17000   1
   5   2  -1 -0.1300 1.45000   1
   5  -2  -1 0.81000 0.73000   1
  -5  -2   1 0.04000 0.69000   1
   5   2  -1 -1.1500 1.31000   1
  -5  -2   1 -0.3000 1.10000   1
  -5   2   1 -0.5600 1.11000   1
   5   2  -1 0.42000 1.25000   1
   3   0   8 56.4900 3.49000   1
  -3   0  -8 55.1800 3.77000   1
  -3   0  -8 56.8100 5.23000   1
  -3   0  -8 47.8600 3.15000   1
  -4  -1  -6 1.34000 0.59000   1
  -4  -1  -6 1.23000 1.73000   1
   4   1   6 0.97000 0.94000   1
   4  -1   6 0.28000 1.35000   1
   4  -1   6 1.09000 0.83000   1
   4   1   6 0.47000 1.27000   1
  -4   1  -6 1.88000 0.69000   1
  -4   1  -6 0.19000 0.67000   1
  -4  -1  -6 0.68000 0.97000   1
  -4   1  -6 0.81000 0.66000   1
  -4  -1  -6 1.23000 0.87000   1
  -4   1  -6 0.43000 1.37000   1
   3  -1 -10 -0.3100 0.66000   1
   3   1 -10 0.20000 0.80000   1
  -3   1  10 -0.2600 1.06000   1
   3   1 -10 0.57000 1.56000   1
   3  -1 -10 -0.4600 0.72000   1
  -3   1  10 -0.2900 0.98000   1
  -3  -1  10 0.73000 1.80000   1
  -3  -1  10 0.20000 0.74000   1
  -3   1  10 0.15000 0.65000   1
   3  -2  -7 0.98000 0.97000   1
  -3  -2   7 0.72000 1.56000   1
  -3   2   7 0.55000 0.82000   1
  -3   2   7 1.00000 0.88000   1
   3  -2  -7 0.69000 1.29000   1
   3   2  -7 0.27000 0.69000   1
   3   2  -7 -2.5700 2.87000   1
   3   2  -7 0.97000 1.23000   1
   3   2  -7 0.90000 0.61000   1
   3   2  -7 0.12000 1.28000   1
  -3   2   7 1.15000 0.65000   1
  -3   2   7 1.90000 1.44000   1
  -3  -2   7 0.31000 0.80000   1
  -5   2   4 45.4400 3.64000   1
   5  -2  -4 38.8700 3.04000   1
   5  -2  -4 53.9000 4.64000   1
   5   2  -4 49.3400 5.00000   1
  -5  -2   4 43.1100 4.28000   1
   5   2  -4 44.3400 3.74000   1
   5   2  -4 50.8200 5.03000   1
   5   2  -4 46.8300 4.24000   1
   5  -2  -4 43.0100 3.43000   1
  -5   2   4 40.3500 3.20000   1
  -5  -2   4 45.3400 5.13000   1
  -5   2   4 40.8200 3.74000   1
   5   2  -4 45.9600 3.55000   1
  -5  -2   4 41.3700 3.44000   1
   7   1  -5 10.8500 1.66000   1
  -7   1   5 9.02000 1.49000   1
  -7   1   5 12.9400 2.33000   1
  -7  -1   5 9.23000 1.63000   1
  -7   1   5 9.13000 1.79000   1
   7  -1  -5 11.2800 1.72000   1
  -7  -1   5 7.94000 1.48000   1
   7   1  -5 10.4200 2.48000   1
  -7   1   5 13.2100 2.06000   1
  -7  -1   5 10.7300 1.87000   1
   7  -1  -5 13.0300 2.23000   1
   7   1  -5 14.1500 2.02000   1
  -7  -1   5 11.6100 1.84000   1
   2   0   9 -0.2100 0.79000   1
   2   0   9 0.19000 0.51000   1
  -2   0  -9 0.05000 0.66000   1
  -2   0  -9 0.17000 0.25000   1
  -2   0  -9 1.08000 1.73000   1
  -2   0  -9 -0.6200 0.93000   1
  -2   0  -9 1.14000 2.13000   1
   1   1   9 36.6300 2.53000   1
   1   1   9 29.1700 2.04000   1
  -1  -1  -9 31.0500 2.40000   1
  -1   1  -9 35.5200 5.13000   1
  -1  -1  -9 31.9100 2.40000   1
  -1  -1  -9 35.1100 3.65000   1
   1   1   9 34.9900 2.73000   1
  -1   1  -9 36.2200 3.60000   1
   1  -1   9 38.7700 2.87000   1
   1   1   9 39.3700 3.60000   1
  -7   0  -1 0.10000 0.86000   1
   7   0   1 0.27000 0.94000   1
   7   0   1 -0.1100 1.24000   1
  -7   0  -1 0.67000 0.69000   1
  -7   0  -1 -0.4000 1.60000   1
  -7   0  -1 -0.2100 0.98000   1
  -6  -1   8 15.5800 2.30000   1
  -6   1   8 15.1700 2.03000   1
  -6  -1   8 19.4600 2.16000   1
   6   1  -8 18.4100 2.16000   1
   6  -1  -8 15.6300 1.49000   1
   6  -1  -8 14.2300 1.70000   1
   6   1  -8 20.1800 3.10000   1
  -6  -1   8 16.7800 1.95000   1
   6   1  -8 18.2800 1.82000   1
  -6  -1   8 17.5100 1.61000   1
  -6   1   8 18.0600 2.47000   1
  -6   1   8 15.9300 1.74000   1
   6  -1  -8 18.9800 2.30000   1
   0   2  -7 1.06000 0.83000   1
   0   2  -7 1.26000 1.13000   1
   0   2  -7 -1.3700 3.88000   1
   0  -2   7 0.80000 0.46000   1
   0   2   7 -0.2700 1.01000   1
   0  -2   7 1.22000 1.03000   1
   0   2   7 0.54000 1.40000   1
   0   2   7 0.62000 0.80000   1
   0  -2   7 0.50000 0.68000   1
   0  -2  -7 0.52000 0.77000   1
   0  -2  -7 0.52000 0.74000   1
   0   2  -7 1.30000 0.89000   1
  -4   0  -7 0.05000 0.48000   1
   4   0   7 0.83000 1.32000   1
  -4   0  -7 0.05000 0.64000   1
  -4   0  -7 -0.4700 1.81000   1
   1  -1 -10 17.1500 1.91000   1
  -1   1  10 18.5500 1.82000   1
  -1  -1  10 15.4300 3.33000   1
   1   1 -10 22.1100 3.35000   1
   1  -1 -10 20.6500 1.79000   1
  -1   1  10 17.7900 2.02000   1
  -1  -1  10 18.5000 1.69000   1
  -1  -1  10 13.8600 1.03000   1
  -7   1   1 12.2700 1.52000   1
   7  -1  -1 14.7500 2.23000   1
   7   1  -1 15.2800 2.26000   1
   7   1  -1 14.5500 2.26000   1
   7   1  -1 14.4800 2.29000   1
  -7  -1   1 12.2300 1.58000   1
  -7   1   1 14.3100 1.99000   1
  -7   1   1 10.1000 1.82000   1
  -7  -1   1 12.5800 2.57000   1
   7  -1  -1 13.2700 1.58000   1
  -7   1   1 8.94000 1.30000   1
  -7  -1   1 10.2000 1.94000   1
  -7  -1   1 12.3200 1.89000   1
   5  -2   0 -0.0700 0.78000   1
  -5  -2   0 0.54000 1.80000   1
  -5   2   0 1.19000 0.87000   1
  -5  -2   0 -0.4800 1.31000   1
   5  -2   0 0.68000 1.34000   1
  -5  -2   0 0.89000 1.23000   1
  -5   2   0 -0.7900 1.16000   1
   5   2   0 1.09000 1.35000   1
   5   2   0 0.02000 1.54000   1
   5  -2   0 0.69000 0.94000   1
   5   2   0 2.16000 1.42000   1
  -5   2   0 0.92000 1.14000   1
  -5  -2   0 1.35000 0.76000   1
   5   2   0 -0.3400 1.32000   1
   3   0 -11 -1.1400 1.38000   1
  -3   0  11 0.37000 0.85000   1
  -3   0  11 -0.1700 0.55000   1
   3   0 -11 0.21000 0.56000   1
  -3   0  11 -0.5700 1.44000   1
  -2   0  11 0.56000 1.57000   1
   2   0 -11 -0.1300 0.37000   1
  -2   0  11 -0.0200 0.64000   1
  -4   1  10 20.9300 2.24000   1
  -4  -1  10 20.5600 1.91000   1
  -4   1  10 19.2100 1.69000   1
  -4  -1  10 19.1800 2.90000   1
  -4   1  10 18.9800 2.76000   1
   4   1 -10 19.8400 2.88000   1
   4  -1 -10 16.7700 1.61000   1
   4   1 -10 18.6200 1.48000   1
   4   1 -10 19.9800 1.93000   1
   4  -1 -10 20.1600 2.27000   1
   4  -1 -10 18.6700 1.81000   1
   5   2  -5 1.16000 1.07000   1
   5  -2  -5 -0.1600 0.93000   1
   5   2  -5 0.08000 1.22000   1
   5   2  -5 -0.1700 1.80000   1
   5   2  -5 -0.3200 0.87000   1
   5   2  -5 0.40000 0.85000   1
   5  -2  -5 0.09000 0.80000   1
  -5  -2   5 -0.2600 0.94000   1
  -5  -2   5 1.87000 1.71000   1
  -5   2   5 0.74000 0.82000   1
  -5   2   5 0.72000 1.38000   1
  -5  -2   5 0.09000 0.76000   1
  -5   2   5 0.79000 0.78000   1
  -4   2  -3 8.94000 1.74000   1
  -4  -2  -3 7.23000 1.37000   1
  -4  -2  -3 11.4700 2.94000   1
  -4  -2  -3 8.05000 1.46000   1
  -4   2  -3 7.63000 1.40000   1
  -4   2  -3 7.33000 1.29000   1
   4  -2   3 8.29000 1.42000   1
   4  -2   3 8.07000 1.13000   1
   4   2   3 9.31000 2.25000   1
   4   2   3 7.85000 1.80000   1
   4   2   3 7.66000 1.48000   1
   4  -2   3 9.48000 1.91000   1
  -7   1   6 8.56000 1.53000   1
  -7   1   6 6.85000 1.01000   1
  -7  -1   6 8.47000 1.62000   1
  -7   1   6 6.72000 1.61000   1
  -7   1   6 5.75000 1.44000   1
   7   1  -6 8.22000 2.20000   1
   7  -1  -6 9.27000 1.84000   1
   7  -1  -6 7.49000 1.74000   1
   7   1  -6 7.00000 1.28000   1
   7   1  -6 5.82000 1.43000   1
  -7  -1   6 8.91000 1.77000   1
  -7  -1   6 6.17000 1.27000   1
  -6   0  -4 5.97000 1.44000   1
   6   0   4 4.27000 1.84000   1
  -6   0  -4 3.30000 0.82000   1
  -6   0  -4 3.82000 0.97000   1
   6   0   4 2.61000 1.34000   1
  -6   0  -4 6.04000 2.13000   1
  -7   0   8 1.84000 1.45000   1
   7   0  -8 2.92000 1.10000   1
  -7   0   8 2.29000 0.95000   1
  -7   0   8 2.87000 1.10000   1
   7   0  -8 3.24000 0.98000   1
   7   0  -8 3.57000 1.69000   1
  -1   0 -10 -0.2600 1.41000   1
   1   0  10 0.06000 0.42000   1
   1   0  10 1.02000 1.09000   1
   1   0  10 -0.0700 0.39000   1
  -1   0 -10 0.31000 1.70000   1
   6   1   3 1.41000 1.27000   1
   6   1   3 2.54000 1.27000   1
  -6   1  -3 1.78000 0.93000   1
  -6  -1  -3 1.80000 0.91000   1
  -6  -1  -3 0.92000 1.11000   1
  -6  -1  -3 1.90000 2.24000   1
   6  -1   3 1.01000 1.26000   1
   6  -1   3 2.78000 1.26000   1
  -6   1  -3 1.96000 1.41000   1
  -6   1  -3 1.14000 0.80000   1
  -6  -1  -3 1.97000 0.84000   1
   4   0 -11 -0.3800 1.53000   1
  -4   0  11 0.34000 1.48000   1
  -4   0  11 0.21000 0.53000   1
  -4   0  11 0.09000 0.83000   1
   4   0 -11 -0.0100 0.63000   1
  -5   1  -5 1.54000 0.63000   1
  -5  -1  -5 3.04000 0.84000   1
  -5  -1  -5 5.06000 1.03000   1
  -5  -1  -5 2.40000 0.88000   1
  -5   1  -5 2.83000 0.79000   1
  -5   1  -5 3.57000 0.94000   1
  -5  -1  -5 3.55000 2.46000   1
  -5   1  -5 3.94000 1.52000   1
   5   1   5 2.67000 1.47000   1
   5  -1   5 2.37000 1.32000   1
   5  -1   5 2.16000 1.42000   1
   5   1   5 2.76000 1.46000   1
  -7  -1   0 39.1000 3.17000   1
  -7  -1   0 43.5700 4.42000   1
  -7  -1   0 33.3900 3.75000   1
  -7   1   0 41.2000 3.40000   1
  -7   1   0 49.1100 4.26000   1
  -7   1   0 34.6100 3.28000   1
  -7  -1   0 41.6200 3.88000   1
   7   1   0 43.6700 4.04000   1
   7  -1   0 45.1400 4.08000   1
   7  -1   0 40.9000 3.79000   1
   7   1   0 43.5500 4.29000   1
   7   1   0 43.5800 4.17000   1
  -2  -2  -6 64.2400 6.63000   1
   2  -2   6 58.0900 3.79000   1
  -2  -2  -6 55.6700 4.44000   1
  -2   2  -6 50.8300 4.04000   1
  -2   2  -6 58.5500 4.28000   1
  -2   2  -6 69.3400 4.79000   1
  -2   2  -6 62.5000 7.03000   1
  -2   2  -6 55.2300 3.64000   1
  -2  -2  -6 44.0000 3.49000   1
   2  -2   6 53.4800 4.23000   1
   2   2   6 54.8200 4.31000   1
  -1   0  11 -0.2200 0.49000   1
  -1   0  11 0.54000 1.66000   1
  -1   0  11 0.58000 0.77000   1
  -1   0  11 0.24000 0.83000   1
   1   0 -11 0.37000 1.24000   1
   4  -2  -7 4.75000 1.64000   1
  -4  -2   7 4.41000 1.18000   1
   4   2  -7 4.95000 0.95000   1
   4   2  -7 5.65000 2.93000   1
   4   2  -7 4.53000 1.50000   1
   4   2  -7 4.47000 1.63000   1
  -4  -2   7 4.68000 0.89000   1
  -4   2   7 5.74000 1.87000   1
  -4   2   7 3.88000 1.19000   1
  -4   2   7 4.25000 0.82000   1
   5  -2   1 0.49000 0.93000   1
   5   2   1 -0.2100 0.93000   1
   5  -2   1 0.22000 0.66000   1
   5   2   1 -1.2500 1.56000   1
  -5   2  -1 0.57000 0.83000   1
  -5  -2  -1 -0.0100 0.95000   1
  -5  -2  -1 0.38000 1.14000   1
  -5  -2  -1 1.05000 1.95000   1
   5  -2   1 0.34000 0.90000   1
   5  -2   1 0.23000 0.91000   1
  -5   2  -1 0.10000 1.09000   1
   5   2   1 0.48000 1.29000   1
   5   2   1 1.43000 1.10000   1
  -5   0  -6 17.3300 1.77000   1
  -5   0  -6 15.0100 1.54000   1
   5   0   6 21.7400 2.22000   1
  -5   0  -6 16.6600 3.03000   1
   5   0   6 14.9800 2.67000   1
   0   1  10 3.55000 0.62000   1
   0   1  10 5.64000 1.80000   1
   0  -1  10 4.83000 1.03000   1
   0   1  10 4.28000 1.11000   1
   0  -1 -10 3.75000 0.88000   1
   0   1 -10 2.89000 1.81000   1
   0   1 -10 6.49000 3.74000   1
  -3  -2  -5 26.4400 2.59000   1
   3  -2   5 35.7100 3.16000   1
  -3  -2  -5 28.9500 2.83000   1
  -3   2  -5 34.7000 2.78000   1
  -3   2  -5 27.9900 2.53000   1
  -3   2  -5 31.3600 2.57000   1
  -3   2  -5 44.1000 5.15000   1
   3   2   5 31.2800 3.18000   1
   3  -2   5 30.4000 2.87000   1
  -3   2  -5 30.0700 2.44000   1
   3   2   5 36.7000 3.95000   1
  -3  -2  -5 36.3500 5.05000   1
   3  -2   5 32.3600 2.32000   1
   8   0  -4 1.61000 1.32000   1
  -8   0   4 0.45000 1.16000   1
   8   0  -4 0.04000 1.45000   1
   2   2  -8 2.12000 1.00000   1
   2  -2  -8 1.15000 0.82000   1
   2   2  -8 2.22000 3.41000   1
  -2   2   8 1.71000 0.92000   1
  -2   2   8 2.16000 1.36000   1
  -2  -2   8 2.15000 0.71000   1
  -2   2   8 2.19000 0.48000   1
  -2   2   8 1.78000 1.63000   1
  -1   2  -7 1.95000 0.89000   1
   1   2   7 2.02000 1.15000   1
   1  -2   7 1.81000 0.69000   1
  -1   2  -7 1.72000 0.54000   1
  -1  -2  -7 1.47000 0.83000   1
  -1  -2  -7 1.78000 0.86000   1
  -1   2  -7 1.48000 0.91000   1
  -1   2  -7 2.12000 0.74000   1
  -1   2  -7 1.41000 4.19000   1
   1   2   7 3.01000 1.61000   1
  -8   0   3 -0.7600 1.58000   1
   8   0  -3 -1.3200 1.54000   1
   8   0  -3 -1.2200 1.29000   1
  -7   0  -2 24.4500 2.74000   1
  -7   0  -2 28.2200 2.76000   1
   7   0   2 33.0500 3.29000   1
  -7   0  -2 21.7200 2.53000   1
  -7   0  -2 32.8500 3.59000   1
  -5   2   6 20.0400 2.19000   1
  -5   2   6 19.2500 2.02000   1
   5  -2  -6 21.9200 2.60000   1
   5  -2  -6 18.3400 1.92000   1
   5   2  -6 21.1500 2.77000   1
   5   2  -6 18.1100 2.39000   1
   5   2  -6 22.8900 3.58000   1
   5   2  -6 16.5700 1.97000   1
   5   2  -6 18.8500 2.13000   1
  -5   2   6 19.6900 2.16000   1
  -5  -2   6 19.8900 1.94000   1
  -5  -2   6 16.4000 2.10000   1
   1  -2  -8 0.02000 0.49000   1
  -1   2   8 0.75000 1.34000   1
  -1   2   8 -0.4400 0.64000   1
  -1   2   8 -0.4300 1.21000   1
   1   2  -8 0.65000 0.92000   1
  -1  -2   8 0.24000 0.47000   1
   1   2  -8 1.42000 2.96000   1
   8   0  -5 0.68000 1.34000   1
   8   0  -5 -0.0700 1.13000   1
  -8   0   5 -0.4600 1.40000   1
  -7  -1   7 10.8800 1.84000   1
  -7   1   7 8.60000 1.37000   1
  -7  -1   7 10.6200 1.64000   1
   7  -1  -7 12.0400 1.93000   1
   7   1  -7 9.81000 1.88000   1
   7   1  -7 9.26000 1.81000   1
   7   1  -7 12.6600 1.57000   1
   7  -1  -7 12.2000 1.99000   1
  -7   1   7 11.9400 2.15000   1
  -7   1   7 9.34000 1.80000   1
  -7  -1   7 11.2900 1.85000   1
   6   0 -10 10.7900 1.56000   1
  -6   0  10 9.38000 2.21000   1
   6   0 -10 10.0700 2.08000   1
   6   0 -10 10.0100 1.36000   1
  -6   0  10 10.2100 1.47000   1
  -3  -2   8 8.55000 1.23000   1
  -3   2   8 11.9600 2.05000   1
   3   2  -8 10.2900 0.89000   1
   3  -2  -8 13.2500 1.89000   1
   3   2  -8 13.2300 1.83000   1
   3   2  -8 12.7300 1.90000   1
   3   2  -8 14.9900 4.14000   1
   3  -2  -8 8.95000 1.39000   1
  -3   2   8 12.1300 1.83000   1
  -3   2   8 10.6900 1.35000   1
  -3   2   8 10.6900 1.36000   1
   8   0  -2 16.1300 2.43000   1
   8   0  -2 17.9500 2.81000   1
  -8   0   2 14.7800 2.10000   1
  -6   1   9 69.4200 6.18000   1
   6   1  -9 78.9100 5.17000   1
  -6  -1   9 77.5500 6.00000   1
   6  -1  -9 88.3500 6.26000   1
   6   1  -9 85.4200 6.14000   1
   6   1  -9 91.5100 7.19000   1
   6  -1  -9 87.3000 6.45000   1
  -6   1   9 88.7300 6.52000   1
  -6   1   9 74.4500 5.63000   1
  -6  -1   9 78.0200 6.09000   1
   5   1 -10 15.0700 1.41000   1
  -5   1  10 14.8800 2.09000   1
   5  -1 -10 14.1200 1.92000   1
   5   1 -10 16.3000 3.08000   1
  -5   1  10 15.2800 2.47000   1
  -5  -1  10 13.9200 1.66000   1
   5  -1 -10 13.0600 1.76000   1
  -5  -1  10 14.0000 1.66000   1
   5   1 -10 12.5500 1.67000   1
  -5   1  10 14.7900 1.55000   1
   3  -1   8 -1.0500 1.19000   1
  -3  -1  -8 1.18000 2.25000   1
  -3   1  -8 1.26000 0.97000   1
   3  -1   8 0.32000 0.60000   1
  -3   1  -8 0.42000 0.32000   1
  -3   1  -8 0.95000 1.59000   1
  -3   1  -8 0.66000 0.61000   1
  -3  -1  -8 0.48000 0.66000   1
   3   1   8 -0.1100 0.95000   1
  -8   0   6 128.540 9.26000   1
   8   0  -6 126.660 9.11000   1
   8   0  -6 135.570 9.20000   1
  -2   1  -9 7.01000 4.03000   1
  -2  -1  -9 6.67000 2.90000   1
  -2  -1  -9 6.97000 2.04000   1
  -2   1  -9 9.01000 0.85000   1
   2   1   9 7.99000 1.29000   1
  -2   1  -9 7.63000 1.62000   1
  -2  -1  -9 5.69000 0.91000   1
   7   1   1 1.12000 1.31000   1
   7  -1   1 1.47000 0.95000   1
   7  -1   1 1.51000 1.22000   1
  -7  -1  -1 0.45000 0.69000   1
  -7  -1  -1 0.59000 0.98000   1
  -7  -1  -1 0.98000 0.66000   1
  -7   1  -1 1.05000 0.90000   1
   7   1   1 1.45000 1.36000   1
  -7  -1  -1 1.84000 1.02000   1
  -7   1  -1 1.06000 0.81000   1
  -7   1  -1 1.37000 1.59000   1
  -7  -1  -1 1.21000 1.91000   1
  -5   0  11 -0.0200 1.24000   1
  -5   0  11 -0.6200 1.50000   1
  -5   0  11 -0.2200 0.64000   1
   5   0 -11 0.05000 1.34000   1
   5   0 -11 0.44000 0.94000   1
   5   0 -11 -0.2800 0.30000   1
  -4  -2  -4 0.16000 0.68000   1
   4   2   4 1.24000 1.16000   1
   4  -2   4 1.42000 0.90000   1
   4   2   4 0.07000 0.87000   1
   4  -2   4 0.41000 1.20000   1
   4   2   4 -0.8400 1.39000   1
  -4   2  -4 -0.0700 1.04000   1
  -4   2  -4 0.84000 0.99000   1
   4  -2   4 -0.3000 0.63000   1
  -4   2  -4 0.98000 0.74000   1
  -4  -2  -4 1.42000 0.84000   1
  -4  -2  -4 -0.3900 2.42000   1
   0   0 -11 -0.4300 1.62000   1
   0   0  11 -0.4400 1.12000   1
  -7   0   9 -0.1300 0.66000   1
   7   0  -9 0.57000 0.80000   1
  -7   0   9 -1.2700 1.15000   1
   7   0  -9 0.09000 1.32000   1
   7   0  -9 0.66000 1.01000   1
  -5   2  -2 25.6800 2.76000   1
   5   2   2 20.7700 2.49000   1
   5  -2   2 30.8100 2.48000   1
   5  -2   2 26.5500 2.58000   1
   5  -2   2 28.4000 2.71000   1
   5   2   2 29.1300 3.44000   1
   5  -2   2 26.0500 2.25000   1
   5   2   2 29.7100 2.90000   1
   5   2   2 30.9200 3.13000   1
  -5   2  -2 31.3000 2.75000   1
  -5  -2  -2 32.1800 4.27000   1
  -5   2  -2 24.4700 2.54000   1
  -5  -2  -2 23.6100 3.29000   1
  -4  -1  -7 13.3400 3.01000   1
  -4   1  -7 5.97000 0.83000   1
   4  -1   7 7.86000 1.80000   1
   4   1   7 8.78000 1.45000   1
   4  -1   7 6.75000 1.24000   1
   4   1   7 8.08000 1.64000   1
  -4  -1  -7 5.60000 0.88000   1
  -4  -1  -7 8.75000 1.15000   1
  -4   1  -7 7.87000 1.00000   1
  -4   1  -7 5.43000 0.85000   1
  -4   1  -7 7.76000 1.56000   1
   0   2   8 12.8800 2.10000   1
   0  -2   8 8.38000 0.85000   1
   0  -2   8 8.63000 0.99000   1
   0   2  -8 8.39000 0.72000   1
   0   2  -8 9.23000 1.20000   1
   0   2   8 14.2100 2.05000   1
   0   2   8 7.78000 1.11000   1
   0  -2  -8 8.72000 1.21000   1
   0   2  -8 9.55000 3.64000   1
  -8   0   1 0.48000 1.06000   1
   8   0  -1 1.20000 1.32000   1
   6  -2  -3 -0.3900 1.40000   1
   6   2  -3 0.28000 1.48000   1
   6   2  -3 1.58000 1.14000   1
   6  -2  -3 0.34000 0.92000   1
  -6  -2   3 0.95000 1.23000   1
  -6  -2   3 1.24000 1.34000   1
  -6   2   3 0.24000 0.89000   1
  -6   2   3 0.66000 0.80000   1
   6   2  -3 -0.4900 1.23000   1
   6   2  -3 -0.4600 1.65000   1
  -6  -2   2 4.38000 1.81000   1
  -6  -2   2 1.98000 1.62000   1
   6   2  -2 4.08000 1.52000   1
   6   2  -2 4.34000 1.54000   1
   6   2  -2 3.96000 1.77000   1
   6   2  -2 4.46000 1.59000   1
   6  -2  -2 4.82000 1.17000   1
   6  -2  -2 5.19000 1.82000   1
  -6   2   2 5.14000 1.53000   1
  -6   2   2 4.31000 1.50000   1
  -3   1  11 3.40000 0.75000   1
   3  -1 -11 5.19000 0.91000   1
  -3   1  11 5.13000 1.56000   1
   3  -1 -11 4.98000 1.29000   1
   3   1 -11 4.26000 2.62000   1
  -3   1  11 5.43000 1.35000   1
  -3  -1  11 4.47000 1.01000   1
   3   1 -11 4.16000 1.07000   1
   2  -1 -11 4.09000 0.97000   1
  -2   1  11 3.99000 0.76000   1
  -2   1  11 4.13000 1.08000   1
   2   1 -11 3.85000 0.79000   1
   2   1 -11 3.20000 2.08000   1
   2  -1 -11 2.77000 0.77000   1
  -2  -1  11 3.12000 0.70000   1
   2  -1 -11 3.34000 0.82000   1
  -2   1  11 6.12000 1.83000   1
   6   2  -4 13.5700 1.64000   1
   6   2  -4 14.5700 1.69000   1
  -6  -2   4 11.2000 2.55000   1
  -6  -2   4 13.4400 1.84000   1
   6   2  -4 17.1800 2.75000   1
   6   2  -4 14.8700 2.53000   1
   6   2  -4 12.5100 1.87000   1
   6  -2  -4 17.4900 2.64000   1
   6  -2  -4 15.4700 1.82000   1
  -6   2   4 13.3900 2.42000   1
  -6   2   4 11.1200 1.76000   1
  -3   0  -9 0.07000 0.35000   1
  -3   0  -9 0.59000 1.63000   1
  -3   0  -9 0.01000 0.40000   1
  -3   0  -9 -0.0800 0.55000   1
   3   0   9 0.22000 0.47000   1
   4   2  -8 0.37000 0.58000   1
   4   2  -8 0.43000 1.10000   1
   4  -2  -8 -0.5500 1.22000   1
  -4   2   8 0.50000 0.68000   1
  -4   2   8 1.15000 0.73000   1
  -4  -2   8 -0.3200 0.80000   1
   4   2  -8 0.62000 1.16000   1
  -4   2   8 -0.2400 1.39000   1
   4   2  -8 -0.3700 2.33000   1
   5   2  -7 7.24000 1.94000   1
  -5   2   7 6.61000 1.36000   1
  -5   2   7 6.39000 1.42000   1
  -5   2   7 6.51000 1.16000   1
  -5  -2   7 5.21000 1.24000   1
   5   2  -7 7.16000 1.28000   1
   5  -2  -7 6.71000 1.68000   1
   5   2  -7 5.99000 1.57000   1
   5   2  -7 8.72000 2.64000   1
  -6   1  -4 1.96000 1.31000   1
   6  -1   4 1.51000 1.12000   1
   6   1   4 0.02000 1.10000   1
   6   1   4 0.81000 1.10000   1
   6  -1   4 0.73000 1.13000   1
  -6  -1  -4 1.67000 1.91000   1
  -6   1  -4 0.72000 0.77000   1
  -6   1  -4 0.16000 0.67000   1
  -6  -1  -4 0.40000 0.72000   1
  -6  -1  -4 0.81000 0.84000   1
  -6  -1  -4 1.17000 0.89000   1
   6   0   5 0.67000 0.84000   1
  -6   0  -5 0.07000 1.18000   1
  -6   0  -5 -0.1700 0.59000   1
  -6   0  -5 -0.8800 0.85000   1
   7   1  -8 5.51000 2.01000   1
   7  -1  -8 4.75000 1.48000   1
   7   1  -8 5.30000 1.46000   1
   7  -1  -8 2.80000 1.51000   1
   7   1  -8 4.75000 0.98000   1
  -7   1   8 4.78000 1.27000   1
  -7  -1   8 5.25000 1.45000   1
  -7  -1   8 3.66000 0.88000   1
  -7   1   8 4.07000 0.99000   1
  -7   1   8 3.66000 1.00000   1
  -6  -2   1 0.96000 1.70000   1
  -6  -2   1 1.08000 1.14000   1
   6   2  -1 1.51000 1.83000   1
   6   2  -1 1.93000 1.30000   1
   6   2  -1 1.50000 1.42000   1
  -6  -2   1 2.01000 1.29000   1
   6   2  -1 1.29000 1.32000   1
  -6   2   1 1.10000 1.26000   1
  -6   2   1 2.50000 1.22000   1
   6  -2  -1 0.51000 0.75000   1
   6  -2  -1 2.15000 1.42000   1
   6  -2  -1 0.11000 0.95000   1
   8   0  -7 0.55000 1.23000   1
   8   0  -7 0.13000 1.15000   1
  -8   0   7 -0.8200 1.29000   1
  -1   1 -10 15.0200 2.53000   1
  -1  -1 -10 13.5400 2.13000   1
   1   1  10 16.5100 2.41000   1
   1   1  10 15.3800 1.91000   1
   1  -1  10 15.9000 1.61000   1
  -1   1 -10 15.7200 1.07000   1
  -1   1 -10 17.2700 4.71000   1
  -1  -1 -10 13.7700 1.33000   1
  -4   0  -8 -0.3200 1.84000   1
  -4   0  -8 0.06000 0.47000   1
  -4   0  -8 1.02000 0.60000   1
  -4   0  -8 0.28000 0.67000   1
  -2   0 -10 30.3600 3.66000   1
   2   0  10 31.3600 2.76000   1
   2   0  10 29.2100 1.89000   1
  -2   0 -10 30.7400 2.37000   1
  -2   0 -10 28.5100 3.94000   1
  -7   0  -3 0.39000 0.61000   1
  -7   0  -3 -0.2700 0.87000   1
  -7   0  -3 -0.0500 1.08000   1
   7   0   3 -0.2000 1.10000   1
   4   1 -11 0.62000 0.78000   1
   4  -1 -11 0.02000 0.86000   1
  -4   1  11 -0.8200 1.31000   1
   4   1 -11 0.27000 0.53000   1
   4  -1 -11 -0.0900 0.55000   1
   4   1 -11 -1.1100 1.90000   1
   4  -1 -11 -0.6300 0.87000   1
  -4   1  11 0.45000 0.61000   1
  -4   1  11 0.77000 1.05000   1
  -6  -2   5 -0.3800 0.79000   1
   6   2  -5 -0.2600 0.72000   1
   6   2  -5 -0.0300 1.11000   1
   6   2  -5 0.76000 1.64000   1
   6   2  -5 -0.1000 1.44000   1
   6   2  -5 0.02000 0.82000   1
  -6   2   5 -0.3500 0.84000   1
  -6   2   5 0.17000 0.78000   1
   6  -2  -5 0.41000 1.28000   1
  -1   1  11 1.45000 0.53000   1
  -1  -1  11 0.67000 0.33000   1
  -1  -1  11 2.00000 0.95000   1
  -1  -1  11 0.86000 1.04000   1
   1  -1 -11 1.58000 0.59000   1
   1   1 -11 1.16000 0.41000   1
   1   1 -11 4.00000 3.12000   1
  -1   1  11 2.02000 1.47000   1
  -1   1  11 1.42000 0.92000   1
   1  -1 -11 1.09000 0.86000   1
   1   1 -11 1.54000 0.49000   1
  -2   2  -7 13.3300 1.28000   1
   2   2   7 17.6400 2.60000   1
  -2   2  -7 16.6400 5.29000   1
  -2   2  -7 15.4200 1.59000   1
  -2   2  -7 11.7500 1.52000   1
  -2   2  -7 17.2200 1.81000   1
   2  -2   7 13.8300 1.23000   1
   2  -2   7 10.5600 1.79000   1
  -2  -2  -7 17.2100 3.68000   1
  -2  -2  -7 11.9700 1.63000   1
   5  -1   6 -0.1200 0.77000   1
  -5  -1  -6 0.57000 1.47000   1
  -5  -1  -6 -0.2000 0.82000   1
  -5  -1  -6 -0.0100 0.71000   1
  -5   1  -6 -0.6900 0.51000   1
  -5  -1  -6 0.39000 0.56000   1
   5   1   6 1.53000 0.80000   1
   5   1   6 1.14000 1.21000   1
  -5   1  -6 0.11000 1.36000   1
   5  -1   6 -0.8000 1.04000   1
  -5   1  -6 -0.3800 0.49000   1
  -3  -2  -6 120.940 10.8700   1
  -3   2  -6 116.790 8.01000   1
  -3   2  -6 95.8600 7.35000   1
   3  -2   6 95.5100 7.25000   1
   3  -2   6 121.310 8.34000   1
   3   2   6 115.760 8.37000   1
   3   2   6 102.760 7.75000   1
  -3  -2  -6 91.0400 7.43000   1
  -3   2  -6 107.340 7.54000   1
  -3   2  -6 122.460 8.17000   1
  -3   2  -6 116.750 13.6600   1
  -3   2  -6 116.570 9.41000   1
  -3  -2  -6 90.4500 6.66000   1
   8   0   0 62.4700 5.22000   1
  -8   0   0 54.9500 5.00000   1
  -3   0  12 61.5400 3.70000   1
  -3   0  12 55.2000 3.74000   1
   3   0 -12 56.8200 4.88000   1
  -3   0  12 50.4300 5.45000   1
   3   0 -12 49.4900 3.15000   1
  -8   1   4 -0.1100 1.26000   1
   8   1  -4 0.34000 0.71000   1
   8  -1  -4 0.19000 1.26000   1
   8   1  -4 0.54000 1.25000   1
   8   1  -4 0.96000 1.05000   1
  -8   1   4 -0.2000 1.37000   1
  -8  -1   4 0.96000 0.98000   1
   8   1  -3 15.8400 2.14000   1
   8   1  -3 19.8300 2.60000   1
   8  -1  -3 14.9700 1.96000   1
   8   1  -3 16.4600 1.62000   1
  -8   1   3 16.9300 1.89000   1
  -8  -1   3 17.0700 2.45000   1
  -8   1   3 18.5300 2.68000   1
  -7   1  -2 2.61000 0.92000   1
  -7  -1  -2 3.89000 2.20000   1
  -7  -1  -2 2.17000 1.09000   1
  -7  -1  -2 3.65000 0.98000   1
  -7   1  -2 3.88000 1.58000   1
  -7  -1  -2 5.01000 1.22000   1
   7  -1   2 3.73000 1.07000   1
   7   1   2 4.55000 1.48000   1
  -7  -1  -2 2.92000 0.82000   1
  -7   1  -2 3.80000 1.08000   1
   0   3   0 0.40000 1.18000   1
   0  -3   0 0.85000 0.51000   1
   0   3   0 -1.1500 2.14000   1
   0  -3   0 1.04000 1.88000   1
  -2   0  12 5.22000 0.98000   1
  -2   0  12 6.79000 2.09000   1
   2   0 -12 7.94000 1.69000   1
  -2   0  12 7.36000 1.22000   1
  -6  -2   0 2.41000 1.83000   1
   6   2   0 2.58000 1.76000   1
   6   2   0 0.63000 1.02000   1
   6   2   0 2.52000 1.35000   1
   6   2   0 2.02000 1.31000   1
  -6  -2   0 2.37000 1.12000   1
  -6  -2   0 1.11000 1.50000   1
   6  -2   0 2.22000 1.50000   1
  -6   2   0 1.72000 1.21000   1
  -6   2   0 1.46000 1.21000   1
   6  -2   0 1.46000 0.95000   1
   6  -2   0 1.44000 1.13000   1
   2  -2  -9 0.16000 0.64000   1
   2   2  -9 0.83000 1.02000   1
   2   2  -9 0.39000 0.39000   1
  -2   2   9 0.57000 0.76000   1
  -2  -2   9 1.02000 0.62000   1
  -2   2   9 -0.5000 1.28000   1
   2   2  -9 0.02000 1.97000   1
  -2   2   9 -0.1500 0.20000   1
  -2   2   9 0.11000 1.17000   1
   5   2   3 2.57000 1.08000   1
   5  -2   3 2.48000 1.24000   1
   5  -2   3 3.99000 1.52000   1
   5   2   3 1.36000 1.23000   1
  -5   2  -3 4.07000 1.04000   1
  -5   2  -3 3.47000 0.94000   1
   5   2   3 3.72000 1.52000   1
  -5  -2  -3 2.32000 2.37000   1
  -5  -2  -3 2.80000 1.33000   1
  -5   2  -3 2.59000 1.28000   1
   0  -3   1 -0.2400 1.31000   1
   0   3   1 -0.2100 1.25000   1
   0  -3   1 1.07000 0.47000   1
   0   3  -1 3.08000 2.33000   1
   0  -3  -1 0.08000 1.00000   1
   0  -3  -1 0.57000 0.60000   1
   0   3   1 1.20000 1.98000   1
   0   3  -1 0.09000 1.61000   1
  -8   1   5 1.16000 1.54000   1
  -8  -1   5 0.02000 0.97000   1
   8   1  -5 1.63000 0.99000   1
   8   1  -5 1.52000 1.73000   1
   8   1  -5 2.10000 1.11000   1
   8  -1  -5 0.89000 1.05000   1
  -8   1   5 2.09000 0.99000   1
  -1   2  -8 0.10000 0.83000   1
   1   2   8 0.30000 0.56000   1
  -1   2  -8 0.91000 0.57000   1
  -1   2  -8 3.18000 3.44000   1
   1   2   8 -0.2000 1.37000   1
   1  -2   8 0.38000 0.50000   1
  -1   2  -8 0.35000 0.57000   1
   1   2   8 2.62000 1.40000   1
  -1  -2  -8 -0.0500 0.68000   1
   6  -1 -10 23.4500 2.43000   1
   6   1 -10 23.8300 2.36000   1
   6   1 -10 25.1200 2.14000   1
   6  -1 -10 23.4300 2.35000   1
   6   1 -10 24.4000 3.66000   1
  -6   1  10 28.0800 2.76000   1
  -6   1  10 21.2400 2.03000   1
  -6  -1  10 20.7100 2.19000   1
  -6   1  10 19.8900 2.63000   1
  -6  -1  10 21.8600 2.22000   1
   5   0   7 -0.2500 0.83000   1
  -5   0  -7 -0.2100 0.57000   1
  -5   0  -7 -1.0000 1.83000   1
  -5   0  -7 0.08000 0.65000   1
  -5   0  -7 -0.3100 0.52000   1
   4   0 -12 12.5200 1.34000   1
  -4   0  12 17.1000 1.67000   1
  -4   0  12 16.7500 1.59000   1
  -4   0  12 14.9600 3.07000   1
   4   0 -12 15.8000 2.47000   1
  -3   2   9 0.18000 0.63000   1
  -3   2   9 0.39000 1.27000   1
  -3   2   9 0.88000 0.65000   1
   3  -2  -9 0.84000 0.99000   1
  -3   2   9 0.21000 1.30000   1
  -3  -2   9 -0.2400 0.65000   1
   3   2  -9 0.87000 0.98000   1
   3   2  -9 -0.1300 2.02000   1
   3   2  -9 0.10000 0.96000   1
   1   3   0 2.38000 1.92000   1
  -1   3   0 0.86000 1.54000   1
  -1  -3   0 1.41000 0.61000   1
  -1  -3   0 1.36000 1.49000   1
   1   3   0 4.15000 1.91000   1
   1  -3   0 5.75000 1.53000   1
  -1   3   0 4.17000 2.81000   1
  -1  -3   0 1.60000 1.52000   1
  -1   3   1 0.25000 1.41000   1
  -1   3   1 -0.2600 2.36000   1
  -1  -3   1 -0.2600 1.44000   1
  -1  -3   1 -0.0200 0.56000   1
  -1  -3   1 -0.1800 1.66000   1
   1   3  -1 1.36000 1.47000   1
   1   3  -1 0.00000 2.06000   1
  -8   1   2 0.76000 1.06000   1
   8  -1  -2 -0.7800 0.89000   1
   8   1  -2 0.35000 1.26000   1
  -8   1   2 0.20000 1.00000   1
  -8  -1   2 -0.0600 0.94000   1
   8   1  -2 -0.4300 1.24000   1
  -6   0  11 -0.2000 1.05000   1
   6   0 -11 -0.2700 0.71000   1
   6   0 -11 -0.6100 1.30000   1
   6   0 -11 -0.1100 0.82000   1
  -6   0  11 -1.7200 1.44000   1
  -6   0  11 -0.2000 0.68000   1
   1  -2  -9 6.00000 1.06000   1
  -1   2   9 5.97000 0.87000   1
  -1   2   9 9.78000 1.81000   1
  -1   2   9 6.98000 1.77000   1
   1   2  -9 5.30000 0.63000   1
   1   2  -9 6.29000 2.85000   1
   1   2  -9 7.16000 1.30000   1
  -1  -2   9 6.35000 0.90000   1
   6   2  -6 24.2000 3.02000   1
  -6  -2   6 22.0400 2.30000   1
   6   2  -6 24.3500 2.88000   1
   6   2  -6 22.5700 2.22000   1
   6   2  -6 20.3200 2.17000   1
   6  -2  -6 23.3400 2.38000   1
  -6   2   6 24.0700 3.02000   1
  -6   2   6 17.2400 2.39000   1
  -1   0 -11 -0.0900 0.25000   1
  -1   0 -11 1.56000 1.58000   1
   1   0  11 0.13000 1.03000   1
  -1   0 -11 0.60000 1.29000   1
   8   0  -8 -0.5700 1.27000   1
   8   0  -8 -0.1800 1.18000   1
  -8   0   8 -0.1800 1.28000   1
   4  -2   5 24.2500 2.12000   1
  -4   2  -5 24.5400 2.24000   1
  -4   2  -5 22.5200 1.70000   1
  -4  -2  -5 20.4900 2.14000   1
  -4   2  -5 26.2000 2.15000   1
  -4   2  -5 21.7700 2.14000   1
   4   2   5 25.7000 2.78000   1
  -4   2  -5 22.4600 2.05000   1
  -4  -2  -5 22.0800 3.52000   1
   4   2   5 24.6000 3.06000   1
   4  -2   5 23.9800 2.60000   1
   4  -2   5 27.9400 2.93000   1
  -7   0  10 2.06000 0.94000   1
   7   0 -10 2.98000 1.15000   1
   7   0 -10 1.69000 1.22000   1
  -1  -3  -1 2.13000 0.66000   1
  -1   3  -1 1.45000 1.14000   1
  -1   3  -1 0.68000 2.85000   1
   1   3   1 1.00000 2.05000   1
   1  -3   1 1.41000 2.02000   1
   1   3   1 2.16000 1.94000   1
   0   3   2 -2.1400 1.83000   1
   0   3   2 0.58000 1.69000   1
   0  -3   2 0.23000 1.72000   1
   0  -3   2 0.68000 0.40000   1
   0  -3  -2 -0.3800 0.50000   1
   0   3  -2 1.83000 2.52000   1
   0  -3  -2 0.51000 1.06000   1
   0   3  -2 0.13000 1.40000   1
  -1  -3   2 9.33000 2.29000   1
  -1  -3   2 13.0200 3.00000   1
  -1   3   2 9.63000 2.92000   1
  -1  -3   2 12.4100 1.66000   1
   1   3  -2 20.8000 4.28000   1
  -1   3   2 12.7100 2.13000   1
   1   3  -2 14.5200 2.88000   1
   8   1  -6 12.9600 1.72000   1
  -8  -1   6 14.1600 2.13000   1
   8   1  -6 12.9500 2.12000   1
   8   1  -6 12.1200 2.00000   1
   8  -1  -6 13.6900 2.25000   1
   8  -1  -6 12.8200 2.30000   1
  -8   1   6 17.2200 2.40000   1
  -8   1   6 13.7000 1.86000   1
  -5  -1  11 0.07000 0.87000   1
   5   1 -11 0.19000 0.65000   1
   5  -1 -11 0.60000 1.06000   1
   5  -1 -11 0.42000 0.79000   1
   5   1 -11 -1.2600 1.38000   1
   5   1 -11 0.51000 0.90000   1
  -5  -1  11 -0.9300 0.63000   1
  -5   1  11 0.78000 1.01000   1
  -5   1  11 1.27000 1.07000   1
  -5   1  11 0.24000 0.69000   1
  -5   2   8 1.93000 1.02000   1
  -5   2   8 2.56000 1.16000   1
  -5  -2   8 2.75000 0.97000   1
   5   2  -8 2.44000 1.26000   1
   5   2  -8 2.20000 1.35000   1
   5   2  -8 1.92000 0.85000   1
   5  -2  -8 2.48000 1.35000   1
  -5  -2   8 2.94000 0.78000   1
   5   2  -8 0.57000 2.54000   1
  -1   0  12 58.2500 4.35000   1
  -1   0  12 53.6700 5.17000   1
  -1   0  12 50.6300 3.24000   1
   1   0 -12 59.0500 4.73000   1
   0   1  11 -0.1300 0.36000   1
   0  -1  11 0.18000 0.83000   1
   0   1  11 1.22000 1.37000   1
   0   1 -11 -0.6100 1.42000   1
   0   1 -11 0.10000 2.92000   1
   0   1 -11 0.22000 0.37000   1
   0   1 -11 0.19000 0.24000   1
   0  -1 -11 0.45000 0.46000   1
   0  -1 -11 0.22000 0.93000   1
   0   1  11 0.27000 0.92000   1
   7   1  -9 13.2400 2.58000   1
   7  -1  -9 14.3900 2.03000   1
  -7  -1   9 12.2900 1.75000   1
  -7   1   9 8.85000 1.75000   1
  -7   1   9 14.8300 2.28000   1
  -7  -1   9 16.0200 1.97000   1
   7  -1  -9 14.0400 2.14000   1
   7   1  -9 14.4900 2.03000   1
   7   1  -9 13.3700 1.44000   1
   8   1  -1 5.74000 1.48000   1
   8   1  -1 7.44000 1.86000   1
  -8   1   1 8.84000 2.07000   1
  -8   1   1 7.24000 1.50000   1
  -8  -1   1 5.77000 1.64000   1
   8  -1  -1 8.62000 1.94000   1
  -6   2  -1 0.32000 0.96000   1
  -6  -2  -1 0.54000 1.06000   1
   6   2   1 1.27000 1.23000   1
  -6  -2  -1 1.24000 1.90000   1
  -6   2  -1 0.39000 1.00000   1
   6  -2   1 0.12000 0.92000   1
   6  -2   1 0.55000 0.94000   1
   6   2   1 0.21000 1.41000   1
   6  -2   1 -0.2500 1.09000   1
  -6  -2  -1 1.16000 0.95000   1
   6   2   1 0.32000 1.50000   1
  -8   0  -1 -0.2000 0.78000   1
   8   0   1 0.00000 1.23000   1
  -8   0  -1 -0.0900 1.07000   1
  -2   3   1 0.08000 1.53000   1
  -2  -3   1 2.24000 1.68000   1
  -2  -3   1 0.90000 0.64000   1
  -2   3   1 1.63000 2.44000   1
  -2   3   1 0.17000 0.75000   1
  -2  -3   1 0.08000 1.30000   1
  -2  -3   1 -0.7800 1.69000   1
   2   3  -1 3.30000 2.18000   1
   2   3  -1 0.23000 1.50000   1
   4  -2  -9 9.41000 1.74000   1
  -4   2   9 5.98000 1.16000   1
  -4   2   9 5.86000 1.06000   1
  -4   2   9 10.9700 2.00000   1
   4   2  -9 6.67000 2.25000   1
   4   2  -9 7.27000 1.48000   1
   4   2  -9 7.23000 0.90000   1
  -4  -2   9 6.02000 1.20000   1
   4   2  -9 7.48000 1.56000   1
  -1   3  -2 0.94000 2.79000   1
   1   3   2 0.82000 1.21000   1
   1  -3   2 0.09000 1.71000   1
   1   3   2 0.41000 1.79000   1
   1  -3   2 0.38000 0.55000   1
  -1  -3  -2 1.03000 0.60000   1
  -1   3  -2 0.26000 1.45000   1
   2   3   0 0.80000 1.50000   1
  -2  -3   0 -0.5800 1.31000   1
   2  -3   0 2.54000 0.69000   1
  -2   3   0 0.64000 1.44000   1
  -2  -3   0 0.23000 0.56000   1
  -2  -3   0 2.32000 1.84000   1
  -2   3   0 1.81000 2.74000   1
  -2  -3   0 -0.9000 1.37000   1
   2  -3   0 1.15000 1.77000   1
   2   3   0 0.17000 1.64000   1
  -1  -3   3 0.78000 0.85000   1
   1   3  -3 0.37000 1.41000   1
   1   3  -3 1.82000 2.96000   1
  -1  -3   3 1.28000 1.52000   1
  -1  -3   3 -0.0500 0.48000   1
  -1   3   3 0.03000 0.97000   1
  -1  -3   3 0.91000 1.19000   1
  -1   3   3 0.68000 1.56000   1
   2   3  -2 14.4000 3.18000   1
  -2   3   2 13.8300 2.07000   1
  -2  -3   2 8.86000 2.12000   1
  -2   3   2 10.7800 3.04000   1
  -2  -3   2 13.6500 2.28000   1
  -2  -3   2 9.41000 2.21000   1
   2   3  -2 14.0000 2.54000   1
  -2   3   2 11.3700 1.42000   1
  -3   1  -9 6.53000 0.80000   1
  -3   1  -9 5.59000 0.87000   1
   3   1   9 5.75000 0.89000   1
  -3   1  -9 8.16000 2.16000   1
   3   1   9 7.03000 1.26000   1
   3  -1   9 5.42000 0.84000   1
  -3  -1  -9 5.36000 1.12000   1
  -3   1  -9 8.20000 1.47000   1
  -3  -1  -9 8.39000 2.82000   1
  -3   1  -9 7.00000 3.27000   1
   0   2   9 0.14000 1.15000   1
   0   2   9 0.09000 1.29000   1
   0  -2  -9 0.19000 0.72000   1
   0   2   9 0.14000 0.61000   1
   0   2  -9 2.20000 3.48000   1
   0  -2   9 0.02000 0.44000   1
   0  -2   9 0.40000 0.46000   1
   0   2  -9 0.35000 0.49000   1
   0   2  -9 0.64000 0.65000   1
  -5   0  12 24.6900 2.31000   1
  -5   0  12 31.6400 2.60000   1
  -5   0  12 25.9700 3.36000   1
   5   0 -12 31.1600 2.73000   1
   5   0 -12 28.3600 3.22000   1
   0  -3   3 0.00000 0.60000   1
   0   3  -3 0.66000 1.38000   1
   0  -3  -3 0.34000 0.51000   1
   0   3  -3 0.80000 2.64000   1
   0  -3  -3 -0.4300 0.94000   1
   0  -3   3 -0.7900 1.50000   1
   0   3   3 0.68000 1.61000   1
   0  -3   3 0.01000 0.41000   1
   0  -3   3 0.71000 0.41000   1
   0   3   3 0.37000 1.40000   1
  -6  -1  -5 1.70000 0.97000   1
  -6  -1  -5 1.96000 2.15000   1
  -6   1  -5 2.16000 0.47000   1
  -6   1  -5 2.20000 0.74000   1
  -6  -1  -5 1.82000 0.87000   1
  -6   1  -5 3.66000 0.98000   1
  -6  -1  -5 1.94000 0.96000   1
  -6   1  -5 3.31000 1.43000   1
   6  -1   5 3.27000 1.18000   1
   6   1   5 1.45000 1.18000   1
   6   1   5 2.26000 1.08000   1
   6  -1   5 1.97000 1.20000   1
   8   1  -7 7.01000 1.34000   1
   8  -1  -7 6.78000 1.90000   1
  -8   1   7 7.96000 1.94000   1
  -8  -1   7 7.81000 1.73000   1
   8   1  -7 8.04000 1.32000   1
   8   1  -7 6.27000 1.68000   1
   8  -1  -7 7.77000 1.78000   1
  -4   1  -8 0.60000 0.54000   1
  -4  -1  -8 -0.3100 0.65000   1
  -4   1  -8 0.08000 0.40000   1
  -4   1  -8 -0.8300 0.88000   1
   4   1   8 -0.0300 0.86000   1
  -4  -1  -8 1.23000 1.57000   1
   4  -1   8 -0.1300 0.57000   1
   4  -1   8 -0.9200 0.99000   1
  -4   1  -8 0.39000 0.46000   1
  -4   1  -8 0.88000 0.53000   1
   4   1   8 0.91000 0.82000   1
   6   2  -7 0.17000 0.92000   1
   6   2  -7 -0.3500 1.18000   1
   6   2  -7 0.98000 0.81000   1
  -6  -2   7 -0.0100 0.76000   1
   6   2  -7 1.20000 1.88000   1
   6  -2  -7 0.43000 1.18000   1
  -6   2   7 0.22000 1.31000   1
  -6   2   7 -0.3100 0.69000   1
   7   0   4 57.4600 4.59000   1
  -7   0  -4 59.5800 5.29000   1
  -7   0  -4 33.3100 3.59000   1
  -7   0  -4 48.4400 4.34000   1
  -2  -3  -1 0.50000 0.80000   1
  -2   3  -1 3.09000 3.11000   1
  -2  -3  -1 2.25000 1.83000   1
  -2   3  -1 0.55000 1.42000   1
  -2  -3  -1 1.49000 1.52000   1
   2  -3   1 1.06000 1.42000   1
   2   3   1 0.72000 1.26000   1
   2   3   1 1.89000 1.86000   1
   2  -3   1 1.13000 0.74000   1
  -2  -1 -10 12.3500 2.70000   1
  -2  -1 -10 14.0200 3.31000   1
   2   1  10 15.2400 1.42000   1
  -2   1 -10 13.1100 4.35000   1
   2   1  10 10.0700 1.65000   1
  -2   1 -10 12.9900 2.08000   1
  -2   1 -10 13.8000 1.08000   1
  -2  -1 -10 11.9900 1.20000   1
  -7   1  -3 -0.3100 0.71000   1
  -7  -1  -3 1.26000 1.72000   1
   7   1   3 0.29000 1.01000   1
  -7  -1  -3 0.42000 0.81000   1
  -7   1  -3 0.03000 1.05000   1
  -7  -1  -3 -0.4700 0.66000   1
  -7  -1  -3 0.26000 0.62000   1
   7  -1   3 0.28000 1.09000   1
   2   3  -3 3.71000 1.32000   1
  -2  -3   3 1.90000 1.68000   1
  -2  -3   3 2.12000 1.07000   1
  -2   3   3 1.66000 1.19000   1
  -2  -3   3 2.50000 1.80000   1
  -2   3   3 3.01000 1.80000   1
  -2   3   3 2.99000 2.55000   1
   2   3  -3 2.75000 2.77000   1
   6   0   6 4.72000 1.27000   1
  -6   0  -6 4.34000 1.46000   1
  -6   0  -6 5.83000 1.25000   1
  -6   0  -6 5.09000 1.08000   1
  -5   2  -4 5.02000 1.26000   1
   5  -2   4 5.88000 1.62000   1
   5   2   4 6.06000 1.52000   1
   5  -2   4 4.40000 1.09000   1
   5   2   4 7.08000 1.79000   1
  -5   2  -4 4.96000 1.00000   1
  -5  -2  -4 6.84000 2.81000   1
  -5   2  -4 5.74000 1.19000   1
  -5  -2  -4 3.07000 1.21000   1
   8  -1   0 1.83000 1.41000   1
   8   1   0 2.25000 1.44000   1
   8   1   0 0.54000 1.46000   1
  -8  -1   0 1.03000 1.80000   1
  -8   1   0 2.29000 1.12000   1
  -8   1   0 1.47000 1.52000   1
  -8   0   9 -0.3600 0.57000   1
   8   0  -9 -0.2400 1.32000   1
   8   0  -9 0.25000 1.05000   1
  -3   1  12 2.24000 1.47000   1
  -3   1  12 2.41000 0.63000   1
  -3   1  12 0.55000 1.72000   1
   3  -1 -12 2.22000 1.01000   1
   3   1 -12 2.63000 2.22000   1
   3  -1 -12 1.73000 0.63000   1
  -3   1  12 1.62000 1.09000   1
   3   1 -12 1.43000 0.55000   1
   3  -1 -12 1.74000 0.80000   1
   1   3   3 -0.0900 1.32000   1
   1   3   3 0.70000 1.15000   1
  -1   3  -3 0.77000 1.33000   1
  -1  -3  -3 1.19000 0.69000   1
   1  -3   3 0.07000 0.64000   1
   1  -3   3 2.61000 1.64000   1
  -1   3  -3 -0.6600 3.01000   1
   1  -3   3 0.94000 0.55000   1
  -1  -3  -3 0.78000 0.63000   1
   0   0  12 106.660 6.73000   1
   0   0 -12 138.390 10.0800   1
   0   0  12 135.670 9.05000   1
  -1   3   4 -0.8900 1.58000   1
   1   3  -4 0.25000 3.19000   1
  -1  -3   4 0.44000 0.38000   1
  -1  -3   4 0.17000 0.56000   1
  -1  -3   4 0.52000 0.66000   1
   1   3  -4 0.37000 1.00000   1
  -1   3   4 -0.1700 1.41000   1
  -1   3   4 0.66000 0.88000   1
  -3   2  -7 9.85000 1.41000   1
  -3  -2  -7 7.00000 1.32000   1
  -3   2  -7 7.58000 1.17000   1
  -3   2  -7 9.54000 5.03000   1
  -3   2  -7 9.18000 1.21000   1
  -3   2  -7 12.7000 2.29000   1
  -3   2  -7 10.6500 1.32000   1
  -3  -2  -7 7.85000 1.06000   1
  -3  -2  -7 13.5500 3.30000   1
   3  -2   7 8.76000 1.04000   1
   3   2   7 10.2100 1.65000   1
   3   2   7 8.25000 2.11000   1
   2   1 -12 0.15000 0.53000   1
   2   1 -12 1.12000 2.32000   1
   2  -1 -12 -0.0700 0.64000   1
  -2   1  12 -0.2300 0.96000   1
  -2  -1  12 0.23000 0.44000   1
  -2   1  12 -0.3200 0.96000   1
   2  -1 -12 0.51000 0.76000   1
  -2   1  12 0.14000 1.39000   1
  -2  -2  -8 13.2600 3.46000   1
   2  -2   8 10.0000 0.88000   1
  -2   2  -8 9.87000 1.25000   1
  -2   2  -8 16.2300 4.79000   1
  -2  -2  -8 9.31000 1.33000   1
  -2   2  -8 10.2200 1.24000   1
  -2   2  -8 7.04000 1.15000   1
  -2   2  -8 8.94000 1.09000   1
   2   2   8 10.9100 2.04000   1
  -6  -2  -2 11.1400 2.40000   1
   6   2   2 13.1500 2.00000   1
   6   2   2 14.1200 2.13000   1
   6   2   2 14.1300 2.50000   1
  -6  -2  -2 8.72000 1.91000   1
  -6  -2  -2 15.8600 2.16000   1
   6  -2   2 13.1500 1.83000   1
   6  -2   2 13.0100 1.81000   1
  -6   2  -2 14.3000 1.89000   1
  -6   2  -2 15.6900 2.02000   1
  -9   0   4 4.02000 1.85000   1
   9   0  -4 4.66000 1.28000   1
   9   0  -4 4.87000 1.75000   1
   2  -3   2 -0.9500 1.57000   1
   2   3   2 -1.0900 1.16000   1
   2  -3   2 0.00000 0.62000   1
   2   3   2 0.30000 1.23000   1
  -2  -3  -2 2.36000 1.65000   1
  -2  -3  -2 0.30000 0.60000   1
  -2  -3  -2 0.23000 0.94000   1
  -2   3  -2 1.39000 3.08000   1
  -2   3  -2 0.35000 1.16000   1
   7   2  -3 3.47000 1.39000   1
   7   2  -3 4.43000 1.79000   1
   7   2  -3 3.41000 1.97000   1
   7   2  -3 3.47000 1.23000   1
  -7  -2   3 6.04000 1.54000   1
  -7   2   3 5.72000 1.55000   1
   7  -2  -3 4.09000 1.35000   1
  -7   2   3 3.95000 1.59000   1
  -3   0 -10 27.8100 1.76000   1
  -3   0 -10 39.5500 4.06000   1
   3   0  10 28.1700 1.88000   1
  -3   0 -10 23.2900 1.59000   1
   0   3   4 -1.4800 1.64000   1
   0  -3   4 0.28000 0.59000   1
   0   3  -4 2.01000 2.89000   1
   0  -3  -4 0.29000 0.45000   1
   0   3  -4 -0.3900 1.19000   1
   0   3   4 -0.2100 1.05000   1
   0  -3   4 0.06000 0.30000   1
  -5  -1  -7 1.62000 1.01000   1
  -5   1  -7 4.13000 1.38000   1
  -5   1  -7 3.21000 0.89000   1
  -5  -1  -7 1.32000 0.65000   1
  -5  -1  -7 2.82000 2.35000   1
   5   1   7 2.09000 0.85000   1
   5   1   7 0.67000 1.49000   1
   5  -1   7 1.73000 1.39000   1
  -5   1  -7 1.73000 0.71000   1
   5  -1   7 1.56000 0.94000   1
  -5   1  -7 2.22000 0.78000   1
   9   0  -5 1.34000 0.94000   1
   9   0  -5 0.30000 1.37000   1
  -9   0   5 0.69000 1.60000   1
  -3   3   1 0.35000 1.92000   1
  -3  -3   1 1.97000 1.29000   1
   3   3  -1 0.50000 1.85000   1
  -3   3   1 2.16000 1.18000   1
   3  -3  -1 1.87000 0.74000   1
   3   3  -1 5.62000 2.15000   1
  -3  -3   1 2.21000 1.66000   1
  -3   3   1 3.26000 2.93000   1
  -3  -3   1 1.08000 1.41000   1
   7   2  -4 0.62000 0.77000   1
   7   2  -4 1.14000 1.50000   1
  -7  -2   4 0.53000 1.42000   1
   7   2  -4 0.89000 1.37000   1
   7   2  -4 2.20000 1.21000   1
   7   2  -4 1.18000 1.04000   1
  -7   2   4 0.81000 1.34000   1
   7  -2  -4 0.69000 1.05000   1
   4   1 -12 11.8300 2.55000   1
   4   1 -12 7.46000 0.69000   1
   4  -1 -12 9.44000 1.51000   1
   4  -1 -12 8.49000 1.41000   1
   4   1 -12 8.45000 1.13000   1
  -4   1  12 10.2300 1.20000   1
  -4   1  12 8.78000 1.68000   1
  -4  -1  12 8.34000 1.32000   1
  -4   1  12 11.2500 1.64000   1
  -3   3   2 0.47000 1.62000   1
  -3   3   2 0.33000 1.54000   1
  -3   3   2 0.58000 0.84000   1
  -3  -3   2 0.60000 1.59000   1
   3   3  -2 1.38000 1.65000   1
  -3  -3   2 0.15000 1.30000   1
  -3  -3   2 1.99000 1.36000   1
   3  -3  -2 0.73000 0.60000   1
   3   3  -2 1.60000 1.78000   1
  -4   0  -9 0.13000 0.41000   1
  -4   0  -9 -0.2700 1.61000   1
   2   3  -4 3.37000 1.26000   1
   2   3  -4 5.34000 2.97000   1
  -2  -3   4 2.36000 0.81000   1
  -2   3   4 2.36000 1.85000   1
  -2   3   4 1.81000 2.17000   1
  -2   3   4 4.82000 1.11000   1
   9   0  -3 -0.4100 1.39000   1
  -9   0   3 -0.4400 1.38000   1
   9   0  -3 0.66000 0.90000   1
   6  -1 -11 0.45000 0.91000   1
  -6   1  11 0.40000 1.12000   1
  -6   1  11 -0.3100 1.11000   1
  -6   1  11 0.06000 0.60000   1
  -6  -1  11 0.22000 0.70000   1
  -6  -1  11 0.64000 0.77000   1
   6  -1 -11 1.00000 0.86000   1
   6   1 -11 0.03000 0.77000   1
   6   1 -11 0.23000 1.61000   1
   6   1 -11 0.40000 0.86000   1
  -7  -2   2 -0.1200 1.52000   1
   7   2  -2 0.55000 1.12000   1
   7   2  -2 1.72000 1.24000   1
   7   2  -2 1.82000 1.43000   1
   7   2  -2 0.36000 1.75000   1
  -7   2   2 1.52000 1.30000   1
  -7   2   2 2.27000 1.25000   1
   7  -2  -2 2.42000 1.47000   1
   8   0   2 72.7200 6.02000   1
  -8   0  -2 73.3900 6.20000   1
  -8   0  -2 57.4600 5.53000   1
  -2   2  10 3.95000 1.45000   1
  -2   2  10 2.81000 1.12000   1
  -2   2  10 2.37000 0.70000   1
  -2  -2  10 2.46000 0.75000   1
   2   2 -10 5.89000 2.40000   1
   2   2 -10 3.41000 0.97000   1
   2   2 -10 1.73000 0.62000   1
   2   2 -10 2.41000 0.99000   1
  -5   2   9 0.43000 0.76000   1
  -5   2   9 2.07000 1.13000   1
   5  -2  -9 1.73000 1.26000   1
  -5  -2   9 1.41000 0.88000   1
   5   2  -9 1.31000 0.69000   1
   5   2  -9 3.25000 1.78000   1
   5   2  -9 1.23000 1.10000   1
  -1  -1 -11 -0.3300 0.53000   1
  -1   1 -11 -0.7700 2.93000   1
  -1   1 -11 0.39000 0.23000   1
   1   1  11 0.41000 0.34000   1
   1  -1  11 0.22000 0.75000   1
   1   1  11 0.01000 0.96000   1
   1   1  11 -0.1500 0.77000   1
   1   1  11 -0.0500 0.45000   1
  -1  -1 -11 0.42000 1.57000   1
  -1   1 -11 0.70000 1.13000   1
   8  -1  -8 20.6100 2.34000   1
   8  -1  -8 22.5400 2.56000   1
   8   1  -8 21.2800 2.23000   1
   8   1  -8 18.3000 2.30000   1
   8   1  -8 19.7200 2.02000   1
  -8   1   8 24.3100 2.96000   1
  -8  -1   8 20.7900 2.42000   1
  -3  -3   0 0.38000 0.58000   1
  -3  -3   0 -1.7600 1.53000   1
   3  -3   0 -0.1500 1.66000   1
   3   3   0 -0.9500 1.86000   1
  -3  -3   0 -0.5300 1.24000   1
  -3  -3   0 -0.4600 1.67000   1
  -3   3   0 0.84000 1.42000   1
  -3   3   0 1.32000 2.92000   1
  -3   3   0 0.12000 0.52000   1
   3   3   0 0.44000 1.28000   1
   3  -3   0 1.10000 0.55000   1
  -4   2  -6 5.83000 1.04000   1
  -4   2  -6 5.44000 2.84000   1
  -4  -2  -6 5.13000 2.17000   1
  -4   2  -6 5.68000 1.23000   1
  -4   2  -6 4.92000 0.71000   1
  -4   2  -6 5.27000 1.21000   1
   4   2   6 8.41000 1.75000   1
   4   2   6 5.95000 1.50000   1
   4  -2   6 3.35000 1.39000   1
   4  -2   6 6.55000 1.53000   1
  -4  -2  -6 3.54000 1.01000   1
  -4   2  -6 3.92000 0.99000   1
  -3   2  10 1.97000 0.73000   1
   3  -2 -10 2.92000 1.31000   1
  -3   2  10 1.28000 1.42000   1
  -3   2  10 0.54000 1.00000   1
  -3   2  10 0.16000 0.82000   1
   3   2 -10 1.14000 0.45000   1
   3   2 -10 0.75000 2.76000   1
  -3  -2  10 0.73000 0.75000   1
   3   2 -10 1.05000 0.69000   1
   3   2 -10 2.17000 0.94000   1
  -7   1  10 7.70000 1.89000   1
  -7   1  10 4.61000 1.38000   1
   7   1 -10 7.77000 1.09000   1
   7   1 -10 6.85000 1.56000   1
   7   1 -10 5.45000 2.32000   1
   7  -1 -10 7.30000 1.59000   1
   7  -1 -10 5.83000 1.50000   1
  -7   0  11 -0.7400 0.71000   1
   7   0 -11 0.80000 0.90000   1
   7   0 -11 1.61000 1.36000   1
   3   3  -3 -0.3100 2.07000   1
  -3   3   3 0.98000 1.15000   1
  -3  -3   3 2.30000 1.61000   1
   3   3  -3 0.88000 1.64000   1
  -3   3   3 0.46000 1.57000   1
  -3  -3   3 2.54000 1.63000   1
  -3  -3   3 0.80000 0.92000   1
  -9   0   6 13.1100 2.30000   1
   9   0  -6 10.7000 2.04000   1
   9   0  -6 11.0200 1.74000   1
   7   2  -5 1.99000 1.45000   1
  -7  -2   5 2.69000 1.03000   1
   7   2  -5 2.02000 0.92000   1
   7   2  -5 1.02000 1.52000   1
   7   2  -5 2.11000 1.01000   1
   7   2  -5 2.10000 1.72000   1
  -7   2   5 3.56000 1.44000   1
  -7   2   5 0.63000 0.93000   1
   7  -2  -5 3.43000 1.50000   1
  -1  -2  -9 0.56000 0.65000   1
   1   2   9 0.60000 0.54000   1
   1   2   9 0.06000 1.28000   1
   1   2   9 0.67000 0.97000   1
  -1   2  -9 1.11000 0.62000   1
  -1   2  -9 0.59000 0.68000   1
   1  -2   9 0.20000 0.44000   1
  -1   2  -9 0.68000 0.55000   1
  -1   2  -9 1.29000 3.37000   1
  -1   1  12 12.4400 1.03000   1
   1   1 -12 22.2900 4.38000   1
   1  -1 -12 11.8500 1.72000   1
   1  -1 -12 12.4000 1.32000   1
   1   1 -12 13.7200 1.12000   1
  -1  -1  12 12.8000 1.80000   1
  -1   1  12 14.9700 1.80000   1
  -1   1  12 17.6100 2.37000   1
  -2   0 -11 0.18000 0.21000   1
  -2   0 -11 1.27000 1.80000   1
  -2   0 -11 -0.6600 1.46000   1
   2   0  11 0.56000 1.01000   1
   2   0  11 -0.3500 0.35000   1
   6   2  -8 1.33000 1.99000   1
   6   2  -8 0.07000 0.86000   1
  -6   2   8 1.20000 1.33000   1
  -6   2   8 -0.1700 0.83000   1
  -6  -2   8 1.28000 0.76000   1
   6  -2  -8 0.84000 1.13000   1
   6   2  -8 0.48000 0.87000   1
   6   0 -12 1.09000 1.32000   1
   6   0 -12 1.22000 0.86000   1
  -6   0  12 0.47000 0.73000   1
  -6   0  12 1.23000 1.12000   1
  -9   0   2 1.64000 1.51000   1
   9   0  -2 1.50000 1.38000   1
   9   0  -2 0.19000 0.31000   1
  -1   2  10 -0.0300 0.49000   1
  -1   2  10 1.25000 1.15000   1
  -1   2  10 0.23000 1.23000   1
  -1  -2  10 0.01000 0.44000   1
   1   2 -10 2.45000 2.83000   1
   1   2 -10 -0.0400 0.67000   1
   1   2 -10 0.05000 0.44000   1
  -7  -2   1 0.93000 1.62000   1
  -7  -2   1 0.30000 1.10000   1
   7   2  -1 0.49000 1.22000   1
   7   2  -1 0.78000 1.31000   1
   7   2  -1 0.33000 1.61000   1
  -7   2   1 1.71000 1.19000   1
   7  -2  -1 0.43000 1.29000   1
  -7   2   1 0.52000 1.12000   1
  -3   0  13 -0.2200 1.52000   1
  -3   0  13 -0.0300 0.73000   1
   3   0 -13 -1.0400 1.27000   1
   3   0 -13 0.39000 0.45000   1
  -3   0  13 -0.2900 0.37000   1
  -5   0  -8 3.46000 0.74000   1
  -5   0  -8 6.07000 2.19000   1
  -5   0  -8 5.20000 1.05000   1
   5   0   8 4.17000 0.97000   1
   8   1   1 2.94000 1.18000   1
   8   1   1 4.03000 1.72000   1
  -8   1  -1 5.93000 1.39000   1
  -8   1  -1 3.76000 1.22000   1
  -8  -1  -1 4.92000 2.19000   1
   8  -1   1 4.68000 1.24000   1
  -1   3  -4 3.41000 1.42000   1
  -1   3  -4 3.75000 3.64000   1
   1   3   4 0.91000 0.88000   1
   1  -3   4 1.51000 0.69000   1
  -1  -3  -4 4.70000 1.23000   1
   1   3   4 2.87000 2.02000   1
   1  -3   4 1.90000 0.44000   1
  -1  -3  -4 0.97000 0.65000   1
  -3  -3  -1 3.61000 2.01000   1
  -3  -3  -1 2.87000 0.80000   1
  -3   3  -1 3.69000 0.60000   1
   3  -3   1 4.24000 0.84000   1
   3   3   1 5.52000 2.18000   1
  -3  -3  -1 1.47000 1.54000   1
   3  -3   1 5.31000 2.12000   1
  -3   3  -1 3.76000 1.57000   1
   3   3   1 6.68000 1.31000   1
  -3   3  -1 1.81000 3.57000   1
   1   3  -5 0.41000 3.19000   1
   1   3  -5 1.35000 1.32000   1
  -1   3   5 1.93000 1.42000   1
  -1   3   5 0.39000 0.99000   1
  -1  -3   5 0.26000 0.77000   1
  -1   3   5 0.67000 1.73000   1
  -2  -3  -3 0.28000 1.92000   1
   2  -3   3 0.78000 0.61000   1
   2  -3   3 0.25000 1.51000   1
   2   3   3 0.41000 0.99000   1
   2   3   3 0.16000 1.83000   1
  -2  -3  -3 1.46000 1.07000   1
  -2  -3  -3 0.31000 0.70000   1
  -2   3  -3 1.90000 2.39000   1
  -2   3  -3 -0.6200 1.17000   1
   2  -3   3 0.70000 0.63000   1
  -3   3   4 0.10000 1.41000   1
   3   3  -4 1.41000 2.15000   1
  -3  -3   4 0.59000 0.79000   1
  -3   3   4 0.69000 1.22000   1
   3   3  -4 1.65000 1.57000   1
  -3   3   4 0.31000 0.90000   1
   4  -2 -10 7.07000 1.53000   1
  -4   2  10 5.56000 1.34000   1
  -4   2  10 8.27000 1.82000   1
  -4   2  10 7.38000 1.07000   1
   4   2 -10 6.66000 0.80000   1
   4   2 -10 8.72000 1.36000   1
   4   2 -10 7.42000 2.44000   1
  -4  -2  10 6.99000 1.22000   1
   2   0 -13 0.00000 0.19000   1
  -2   0  13 0.56000 1.37000   1
  -2   0  13 -0.2900 0.58000   1
  -2   0  13 0.09000 1.16000   1
   2   0 -13 0.59000 1.40000   1
  -4   0  13 0.21000 0.52000   1
   4   0 -13 -0.1300 0.59000   1
   4   0 -13 -0.5300 1.29000   1
  -4   0  13 -0.5500 1.65000   1
  -4   0  13 -0.2500 0.68000   1
   5   1 -12 2.70000 0.68000   1
   5   1 -12 3.77000 2.15000   1
   5  -1 -12 3.42000 1.38000   1
   5  -1 -12 3.90000 1.07000   1
   5   1 -12 3.74000 0.95000   1
  -5  -1  12 3.72000 0.97000   1
  -5   1  12 2.76000 0.72000   1
  -5  -1  12 3.53000 1.15000   1
  -5   1  12 4.30000 1.31000   1
   7   2  -6 3.07000 1.08000   1
  -7  -2   6 3.06000 1.18000   1
  -7   2   6 1.96000 1.15000   1
  -7   2   6 4.61000 1.26000   1
   7   2  -6 3.86000 1.96000   1
   7  -2  -6 3.27000 1.67000   1
   7   2  -6 2.25000 1.10000   1
   7   2  -6 1.38000 1.25000   1
   9   0  -7 1.76000 1.21000   1
   9   0  -7 0.44000 1.45000   1
  -9   0   7 0.38000 1.04000   1
   2   3  -5 1.57000 1.37000   1
  -2   3   5 0.59000 0.93000   1
   2   3  -5 1.30000 2.57000   1
  -2  -3   5 0.15000 0.25000   1
  -2   3   5 0.50000 1.55000   1
  -2   3   5 0.37000 1.61000   1
   8   0 -10 14.6700 2.09000   1
   8   0 -10 13.4900 2.34000   1
   7   1   4 1.87000 1.22000   1
   7  -1   4 0.69000 1.21000   1
  -7  -1  -4 1.48000 0.75000   1
  -7   1  -4 1.88000 1.35000   1
  -7  -1  -4 0.29000 0.96000   1
  -7  -1  -4 2.64000 2.02000   1
  -7  -1  -4 1.28000 0.76000   1
  -7   1  -4 1.26000 0.76000   1
   0  -3  -5 0.16000 0.53000   1
   0   3  -5 2.16000 3.16000   1
   0   3  -5 -0.8800 1.25000   1
   0  -3   5 0.36000 0.57000   1
   0   3   5 0.41000 0.70000   1
   0   3   5 0.50000 1.73000   1
  -9   0   1 1.04000 1.09000   1
   9   0  -1 1.30000 1.43000   1
   6   2   3 -0.2000 1.05000   1
  -6  -2  -3 0.16000 1.03000   1
  -6  -2  -3 2.20000 2.19000   1
   6   2   3 1.59000 0.83000   1
  -6   2  -3 2.41000 1.12000   1
  -6   2  -3 2.14000 0.90000   1
   6  -2   3 -0.4400 1.22000   1
   6  -2   3 0.57000 0.95000   1
  -7   0  -5 0.85000 0.72000   1
  -7   0  -5 0.35000 0.58000   1
  -7   0  -5 -0.0300 1.17000   1
   7   0   5 -1.1000 0.99000   1
  -6  -1  -6 10.8100 2.06000   1
  -6   1  -6 6.14000 1.11000   1
   6  -1   6 9.18000 1.87000   1
   6   1   6 7.86000 1.55000   1
  -6  -1  -6 5.54000 1.12000   1
  -6   1  -6 7.54000 1.11000   1
   6   1   6 9.08000 1.61000   1
  -6   1  -6 10.3300 1.91000   1
  -6  -1  -6 8.21000 1.24000   1
  -6  -1  -6 4.52000 1.05000   1
  -6   1  -6 7.03000 0.75000   1
  -5   2  -5 0.44000 0.77000   1
  -5  -2  -5 0.34000 1.67000   1
  -5   2  -5 0.13000 0.62000   1
   5  -2   5 -0.3400 0.86000   1
  -5  -2  -5 0.06000 0.77000   1
   5   2   5 0.48000 1.27000   1
   5   2   5 1.09000 1.10000   1
   5  -2   5 0.92000 1.03000   1
  -7  -2   0 0.45000 1.04000   1
  -7   2   0 1.36000 1.16000   1
  -7   2   0 0.82000 1.22000   1
   7   2   0 1.17000 1.42000   1
  -7  -2   0 0.87000 1.73000   1
   7  -2   0 0.89000 1.41000   1
   7   2   0 1.40000 1.72000   1
   7  -2   0 2.50000 1.02000   1
  -7  -2   0 2.06000 0.96000   1
   7   2   0 0.88000 1.33000   1
   1   0  12 12.7800 1.94000   1
  -1   0 -12 11.6300 2.28000   1
  -1   0 -12 15.4600 3.36000   1
   8  -1  -9 1.09000 1.14000   1
   8   1  -9 2.02000 1.45000   1
   8   1  -9 -0.6900 0.73000   1
   8   1  -9 0.41000 1.06000   1
   8  -1  -9 -0.1700 1.10000   1
  -8   1   9 -0.3700 1.26000   1
   3  -3   2 0.07000 0.71000   1
  -3   3  -2 1.76000 3.17000   1
   3  -3   2 -0.4400 1.49000   1
   3   3   2 -0.1700 1.76000   1
   3   3   2 0.75000 0.85000   1
  -3   3  -2 0.28000 1.15000   1
  -3  -3  -2 0.18000 0.99000   1
  -3  -3  -2 0.72000 1.94000   1
   0   2  10 3.41000 0.73000   1
   0   2  10 4.20000 1.71000   1
   0  -2  10 3.18000 0.61000   1
   0  -2  10 3.13000 0.50000   1
   0  -2 -10 3.65000 0.90000   1
   0   2 -10 4.17000 0.73000   1
   0   2 -10 5.68000 4.00000   1
   0   2 -10 5.08000 0.92000   1
   0   2  10 6.38000 1.49000   1
   0   1  12 0.26000 0.37000   1
   0  -1  12 2.48000 0.89000   1
   0  -1 -12 0.62000 1.12000   1
   0  -1 -12 1.06000 0.55000   1
   0   1  12 2.45000 1.09000   1
   0   1  12 1.92000 0.43000   1
   0   1 -12 0.85000 0.32000   1
   0   1 -12 0.56000 2.16000   1
   0   1 -12 1.86000 1.19000   1
   0   1  12 1.86000 1.08000   1
  -4  -3   2 0.96000 1.60000   1
   4   3  -2 4.41000 1.68000   1
  -4  -3   2 0.39000 1.55000   1
   4   3  -2 2.29000 1.80000   1
  -4  -3   2 0.41000 1.38000   1
   4  -3  -2 0.17000 0.74000   1
  -4   3   2 1.84000 1.51000   1
  -4   3   2 1.06000 0.90000   1
   4  -3  -2 0.78000 1.63000   1
  -4   3   2 1.92000 2.36000   1
  -1   0  13 -0.6400 1.08000   1
   1   0 -13 1.38000 1.39000   1
  -1   0  13 0.04000 0.51000   1
   3   3  -5 0.76000 1.34000   1
   3   3  -5 -0.3600 2.09000   1
  -3   3   5 -0.3000 0.92000   1
  -3  -3   5 0.03000 0.42000   1
  -3   3   5 0.03000 0.99000   1
   5   0 -13 0.61000 1.24000   1
   5   0 -13 0.16000 0.68000   1
  -5   0  13 0.13000 0.54000   1
  -4   3   1 -0.4900 1.15000   1
  -4   3   1 0.09000 0.58000   1
  -4  -3   1 0.27000 1.12000   1
   4  -3  -1 -0.0100 0.71000   1
   4   3  -1 1.34000 1.61000   1
   4  -3  -1 -0.8500 1.45000   1
   4   3  -1 -0.1500 1.32000   1
  -4  -3   1 0.98000 1.62000   1
  -4   3   1 0.25000 2.03000   1
  -4  -3   1 0.90000 1.32000   1
  -8   0  -3 1.52000 1.09000   1
  -8   0  -3 -0.2700 0.80000   1
   8   0   3 -1.0300 1.06000   1
  -9   1   4 17.6200 2.43000   1
  -9  -1   4 14.7000 2.40000   1
  -9   1   4 14.6000 2.23000   1
   9   1  -4 14.1400 1.93000   1
   9  -1  -4 15.3500 1.97000   1
   9   1  -4 12.6900 2.75000   1
   9   1  -4 14.5100 1.59000   1
   7   2  -7 -0.3600 1.23000   1
  -7  -2   7 0.16000 0.78000   1
  -7   2   7 -0.7400 0.73000   1
  -7   2   7 -0.1000 1.19000   1
   7   2  -7 0.18000 0.74000   1
   7   2  -7 1.58000 1.17000   1
   7  -2  -7 0.54000 0.85000   1
  -4  -3   3 0.97000 1.31000   1
  -4  -3   3 2.09000 1.53000   1
   4   3  -3 -0.3700 2.29000   1
   4   3  -3 0.83000 1.17000   1
  -4  -3   3 0.77000 0.94000   1
  -4   3   3 0.41000 2.05000   1
  -4   3   3 0.86000 0.79000   1
   4  -3  -3 1.09000 0.68000   1
  -4   3   3 0.75000 1.13000   1
   4  -3  -3 1.68000 1.44000   1
   9   0  -8 2.88000 1.29000   1
   9   0  -8 2.24000 1.45000   1
  -9   0   8 3.77000 1.62000   1
   6   0   7 -1.2100 0.74000   1
  -6   0  -7 0.37000 0.56000   1
  -6   0  -7 1.14000 1.06000   1
  -3   1 -10 6.85000 1.86000   1
  -3   1 -10 2.64000 0.73000   1
  -3   1 -10 4.22000 1.13000   1
  -3  -1 -10 1.92000 0.69000   1
   3  -1  10 3.02000 0.67000   1
   3   1  10 4.26000 1.04000   1
   3   1  10 4.28000 0.81000   1
  -3  -1 -10 3.99000 2.49000   1
  -3   1 -10 3.58000 3.79000   1
   9   1  -5 3.74000 0.75000   1
  -9   1   5 2.48000 1.63000   1
   9   1  -5 3.12000 1.57000   1
   9  -1  -5 3.70000 1.48000   1
  -9  -1   5 3.72000 1.49000   1
  -9   1   5 3.94000 1.51000   1
   9   1  -5 2.05000 1.33000   1
   4   1   9 1.62000 0.85000   1
   4  -1   9 2.64000 1.24000   1
   4  -1   9 0.83000 0.77000   1
  -4   1  -9 1.51000 0.75000   1
  -4  -1  -9 1.46000 2.08000   1
  -4   1  -9 1.80000 0.58000   1
   4   1   9 0.85000 0.69000   1
  -4   1  -9 0.64000 0.37000   1
  -4   1  -9 1.46000 0.32000   1
  -4   1  -9 1.69000 1.10000   1
  -4  -1  -9 0.87000 0.68000   1
   9  -1  -3 7.14000 2.07000   1
   9   1  -3 5.87000 0.98000   1
  -9   1   3 7.04000 1.42000   1
  -9   1   3 10.2400 1.64000   1
   9   1  -3 8.75000 2.22000   1
   9   1  -3 8.67000 1.70000   1
  -9  -1   3 11.0500 2.04000   1
   6   2  -9 0.87000 0.97000   1
   6   2  -9 -1.7100 2.00000   1
   6  -2  -9 -0.9300 0.99000   1
  -6  -2   9 -0.1200 0.84000   1
  -6   2   9 0.05000 1.22000   1
  -6   2   9 0.25000 0.70000   1
   6   2  -9 0.13000 0.52000   1
   2  -3   4 0.11000 0.55000   1
  -2  -3  -4 1.06000 0.88000   1
   2   3   4 1.19000 1.24000   1
  -2   3  -4 -0.3400 3.42000   1
   2   3   4 -0.0700 0.68000   1
  -2  -3  -4 1.45000 1.96000   1
  -2   3  -4 0.00000 1.06000   1
   2  -3   4 0.38000 0.47000   1
  -1   3  -5 -0.6300 1.04000   1
   1  -3   5 -0.0200 0.26000   1
   1  -3   5 0.57000 0.54000   1
   1   3   5 -0.1300 0.46000   1
   1   3   5 -0.4000 1.54000   1
  -1  -3  -5 -0.2300 0.73000   1
  -1   3  -5 3.48000 3.26000   1
   8  -1   2 4.14000 1.16000   1
  -8   1  -2 6.95000 1.63000   1
  -8   1  -2 4.19000 1.11000   1
  -8  -1  -2 3.61000 2.12000   1
   8   1   2 3.49000 1.55000   1
  -5   2  10 19.6300 2.70000   1
  -5   2  10 13.5000 1.94000   1
   5  -2 -10 16.9100 2.11000   1
   5   2 -10 14.9100 3.41000   1
   5   2 -10 14.0000 1.40000   1
  -5  -2  10 10.6400 1.65000   1
   4   3   0 2.80000 1.67000   1
   4   3   0 4.78000 1.97000   1
  -4  -3   0 1.36000 1.29000   1
  -4  -3   0 1.42000 1.79000   1
  -4  -3   0 2.51000 1.65000   1
   4  -3   0 1.64000 1.36000   1
   4  -3   0 1.24000 0.81000   1
   4  -3   0 2.91000 1.80000   1
  -4   3   0 0.72000 1.81000   1
  -4   3   0 2.58000 1.63000   1
  -4   3   0 2.57000 0.68000   1
  -3   2  -8 12.4200 1.40000   1
  -3   2  -8 16.4100 1.66000   1
   3   2   8 17.3000 2.37000   1
   3   2   8 16.1900 1.89000   1
   3  -2   8 12.2400 1.78000   1
  -3   2  -8 15.6600 1.53000   1
  -3  -2  -8 15.4400 2.94000   1
  -3   2  -8 16.0300 1.56000   1
  -3   2  -8 17.6000 5.46000   1
  -1   3   6 1.16000 0.90000   1
  -1   3   6 0.80000 1.16000   1
  -1   3   6 1.42000 1.71000   1
  -1  -3   6 1.02000 0.62000   1
   1   3  -6 3.55000 1.43000   1
   1   3  -6 -0.5400 3.57000   1
   9   0   0 3.43000 1.69000   1
  -9   0   0 6.81000 1.84000   1
   7   1 -11 30.7700 3.59000   1
  -7   1  11 31.1600 3.16000   1
   7  -1 -11 27.2400 2.80000   1
   7   1 -11 23.5800 2.09000   1
   7   1 -11 27.6500 2.77000   1
   7  -1 -11 28.0300 2.79000   1
  -7   1  11 19.2800 3.10000   1
   2   3  -6 0.07000 1.17000   1
   2   3  -6 1.65000 2.81000   1
  -2   3   6 -0.4500 1.23000   1
  -2   3   6 -0.2800 1.33000   1
  -2   3   6 -0.5400 1.56000   1
  -2   3   6 -0.3300 1.00000   1
  -9  -1   6 6.43000 1.82000   1
   9   1  -6 6.43000 1.74000   1
  -9   1   6 8.75000 1.73000   1
  -9   1   6 7.80000 1.91000   1
   9   1  -6 4.94000 1.48000   1
   9  -1  -6 7.78000 1.72000   1
  -4  -3   4 0.56000 0.93000   1
   4   3  -4 -0.7500 1.61000   1
   4   3  -4 1.51000 1.84000   1
  -4   3   4 1.07000 1.83000   1
  -4   3   4 0.70000 0.79000   1
  -4   3   4 0.59000 1.47000   1
   4  -3  -4 -0.1300 1.43000   1
  -2  -2  -9 1.42000 2.40000   1
  -2  -2  -9 0.69000 0.58000   1
   2   2   9 0.69000 1.41000   1
  -2   2  -9 0.72000 3.54000   1
  -2   2  -9 0.79000 0.60000   1
  -2   2  -9 1.77000 0.58000   1
  -2   2  -9 0.97000 0.59000   1
   2  -2   9 0.70000 0.42000   1
   7   2   1 0.71000 1.19000   1
  -7  -2  -1 0.66000 1.63000   1
  -7  -2  -1 -0.0500 0.77000   1
   7  -2   1 -0.1500 0.66000   1
   7   2   1 -0.0600 1.47000   1
   7  -2   1 -0.2500 0.81000   1
  -7   2  -1 -0.6200 0.87000   1
  -7  -2  -1 0.51000 0.77000   1
  -7   2  -1 -0.2100 0.99000   1
   2   1  11 1.02000 1.02000   1
   2   1  11 0.58000 0.41000   1
   2   1  11 1.24000 0.86000   1
   2   1  11 0.61000 0.57000   1
  -2  -1 -11 1.93000 2.27000   1
  -2   1 -11 3.41000 3.27000   1
  -2  -1 -11 0.94000 0.59000   1
  -2   1 -11 1.56000 0.33000   1
  -2   1 -11 2.25000 1.18000   1
   6   1 -12 19.6700 1.68000   1
   6  -1 -12 18.5000 2.26000   1
  -6  -1  12 19.3200 2.04000   1
  -6   1  12 17.2100 2.61000   1
   6  -1 -12 20.0600 2.14000   1
   6   1 -12 21.0200 2.34000   1
  -6   1  12 21.5300 2.44000   1
  -6   1  12 16.8700 2.00000   1
  -6  -1  12 12.6300 1.85000   1
   6   1 -12 25.2100 3.24000   1
  -9   1   2 49.7000 4.55000   1
  -9  -1   2 50.0700 4.91000   1
  -9   1   2 54.8100 4.98000   1
   9   1  -2 47.2100 4.28000   1
   9  -1  -2 49.9300 5.10000   1
   9   1  -2 50.2600 5.03000   1
  -4   2  -7 4.21000 0.66000   1
   4   2   7 4.57000 1.29000   1
  -4   2  -7 3.14000 0.75000   1
   4  -2   7 3.23000 1.38000   1
  -4   2  -7 5.07000 1.17000   1
  -4   2  -7 6.61000 2.57000   1
  -4   2  -7 4.10000 0.92000   1
  -4  -2  -7 5.75000 2.79000   1
   4   2   7 3.62000 1.66000   1
   4  -2   7 5.70000 1.34000   1
  -4   2  -7 4.77000 1.03000   1
  -7   0  12 23.3500 3.00000   1
  -7   0  12 36.3400 3.26000   1
   7   0 -12 32.5600 3.03000   1
   7   0 -12 32.9200 3.52000   1
   3  -3   3 0.56000 0.65000   1
   3  -3   3 1.08000 1.40000   1
  -3   3  -3 -0.7700 3.12000   1
  -3  -3  -3 0.54000 1.10000   1
  -3  -3  -3 -0.6300 1.84000   1
  -3   3  -3 0.07000 1.07000   1
   3   3   3 -0.2300 1.82000   1
   3  -3   3 0.79000 0.59000   1
  -3   1  13 15.0000 2.20000   1
   3   1 -13 18.3700 3.20000   1
   3   1 -13 13.8700 1.46000   1
  -3   1  13 13.0900 1.25000   1
  -3  -1  13 15.2700 1.46000   1
  -3   1  13 19.6500 2.43000   1
  -3   1  13 17.8400 1.83000   1
   3  -1 -13 17.9500 1.93000   1
   3  -1 -13 16.0000 1.60000   1
  -5  -1  -8 -0.0700 2.01000   1
  -5   1  -8 0.47000 0.49000   1
  -5   1  -8 0.82000 1.14000   1
   5   1   8 0.60000 0.74000   1
   5  -1   8 0.17000 0.65000   1
   5  -1   8 0.81000 1.12000   1
   5   1   8 0.03000 1.01000   1
  -5   1  -8 0.98000 0.60000   1
  -5  -1  -8 0.01000 0.58000   1
  -5   1  -8 0.25000 0.62000   1
  -5  -1  -8 0.50000 0.62000   1
  -5   1  -8 -0.1400 0.57000   1
   0   3   6 0.18000 1.62000   1
   0   3   6 0.07000 0.30000   1
   0   3   6 0.04000 0.73000   1
   0   3  -6 -0.6400 3.22000   1
   0  -3   6 -0.0100 0.54000   1
  -3   2  11 2.04000 0.71000   1
   3   2 -11 4.24000 2.99000   1
  -3   2  11 2.11000 1.48000   1
  -3   2  11 0.86000 1.03000   1
  -3   2  11 2.56000 1.30000   1
  -3  -2  11 2.04000 0.66000   1
   3   2 -11 1.60000 0.45000   1
   3  -2 -11 1.91000 0.77000   1
   3   2 -11 1.60000 1.07000   1
  -2   2  11 -0.2600 1.21000   1
  -2   2  11 1.27000 1.19000   1
  -2   2  11 0.47000 0.59000   1
  -2  -2  11 -0.1700 0.42000   1
   2   2 -11 0.61000 0.58000   1
   2   2 -11 0.14000 0.25000   1
   2   2 -11 1.70000 1.97000   1
   4   3   1 3.05000 1.76000   1
  -4  -3  -1 2.10000 1.62000   1
  -4   3  -1 0.66000 0.45000   1
   4  -3   1 1.75000 1.62000   1
  -4   3  -1 1.26000 1.48000   1
  -4  -3  -1 0.38000 1.62000   1
  -4   3  -1 1.34000 2.69000   1
   4  -3   1 1.11000 0.74000   1
   4   3   1 1.78000 1.06000   1
   4  -3   1 4.57000 1.66000   1
  -3   3   6 4.82000 1.51000   1
  -3   3   6 4.02000 0.93000   1
   3   3  -6 8.32000 2.10000   1
  -3   3   6 3.17000 1.68000   1
   3   3  -6 12.1600 3.19000   1
   2   1 -13 7.57000 0.87000   1
   2  -1 -13 8.61000 1.23000   1
   2   1 -13 8.99000 3.05000   1
  -2  -1  13 6.67000 0.82000   1
  -2   1  13 10.1800 2.07000   1
  -2   1  13 9.01000 2.02000   1
  -2   1  13 10.3500 1.30000   1
   2  -1 -13 7.23000 0.95000   1
  -4   1  13 14.5400 1.36000   1
  -4   1  13 15.7200 2.87000   1
  -4  -1  13 13.2200 1.56000   1
  -4   1  13 19.5100 1.99000   1
   4   1 -13 15.1000 1.64000   1
   4  -1 -13 13.0400 1.40000   1
   4  -1 -13 17.0900 2.14000   1
   4   1 -13 18.1100 3.07000   1
   9  -1  -7 -0.9700 1.31000   1
   9   1  -7 1.17000 1.13000   1
   9   1  -7 1.44000 0.97000   1
   9  -1  -7 -0.0700 1.28000   1
  -9  -1   7 0.57000 1.15000   1
  -9   1   7 0.93000 1.22000   1
  -9   1   7 -0.8100 0.99000   1
   8   0 -11 0.04000 1.00000   1
   8   0 -11 -0.3700 1.29000   1
  -6   2  -4 3.43000 1.27000   1
   6  -2   4 3.49000 1.11000   1
   6   2   4 4.64000 1.77000   1
  -6  -2  -4 3.11000 1.02000   1
   6  -2   4 4.72000 1.58000   1
   6   2   4 3.55000 1.53000   1
  -6   2  -4 5.71000 1.29000   1
  -6  -2  -4 5.28000 2.70000   1
  -7   2   8 1.77000 1.19000   1
  -7   2   8 1.94000 1.48000   1
  -7  -2   8 1.99000 1.19000   1
   7   2  -8 1.54000 1.43000   1
   7   2  -8 3.55000 2.12000   1
   7  -2  -8 3.65000 1.40000   1
   7   2  -8 2.16000 1.09000   1
  -4  -3   5 -0.2200 0.74000   1
  -4   3   5 1.26000 1.04000   1
  -4   3   5 0.57000 1.73000   1
   4   3  -5 -0.2400 1.36000   1
   4   3  -5 0.54000 1.53000   1
   4   3  -5 0.31000 1.44000   1
   4  -3  -5 1.09000 1.32000   1
  -4   3   5 0.96000 1.08000   1
  -9   0   9 -0.4000 0.94000   1
   9   0  -9 0.43000 1.14000   1
   9   0  -9 0.83000 1.26000   1
   8  -1 -10 0.59000 1.24000   1
   8   1 -10 1.09000 0.69000   1
   8  -1 -10 1.49000 1.21000   1
   8   1 -10 1.27000 1.64000   1
   8   1 -10 1.43000 1.30000   1
  -8   1  10 1.31000 1.47000   1
  -8  -1  10 2.03000 1.26000   1
   1   2  10 0.32000 0.54000   1
   1   2  10 0.29000 1.39000   1
   1   2  10 -0.1400 1.25000   1
  -1   2 -10 0.40000 0.49000   1
  -1   2 -10 0.66000 0.47000   1
  -1   2 -10 0.66000 2.39000   1
   1  -2  10 0.36000 0.34000   1
   1  -2  10 0.74000 0.39000   1
   0   0 -13 2.08000 1.43000   1
   0   0  13 0.06000 0.36000   1
  -4   0 -10 17.7800 1.46000   1
  -4   0 -10 17.4300 1.44000   1
  -4   0 -10 26.2900 3.35000   1
   4   0  10 21.8500 1.88000   1
  -6   0  13 0.49000 0.59000   1
   6   0 -13 -0.4800 1.33000   1
   6   0 -13 0.07000 0.80000   1
  -6   0  13 0.47000 0.99000   1
  -3   0 -11 -0.1400 0.22000   1
  -3   0 -11 1.30000 1.96000   1
  -3   0 -11 -0.4700 1.21000   1
   3   0  11 -0.0400 0.23000   1
   9   1  -1 1.31000 1.15000   1
  -9   1   1 2.06000 1.13000   1
  -9   1   1 0.65000 1.20000   1
  -9  -1   1 2.52000 1.68000   1
   9   1  -1 2.93000 1.53000   1
   9  -1  -1 2.55000 1.20000   1
   7   1   5 6.07000 1.57000   1
   7  -1   5 7.00000 1.56000   1
  -7  -1  -5 5.77000 2.38000   1
  -7  -1  -5 6.40000 1.24000   1
  -7   1  -5 11.0200 1.89000   1
  -7  -1  -5 4.22000 1.07000   1
  -7   1  -5 6.24000 1.12000   1
  -7   1  -5 3.69000 0.96000   1
  -4   2  11 4.53000 1.17000   1
   4  -2 -11 4.25000 0.81000   1
   4  -2 -11 7.49000 1.52000   1
  -4   2  11 6.02000 1.71000   1
  -4   2  11 9.58000 1.64000   1
  -4   2  11 5.04000 0.92000   1
   4   2 -11 6.10000 1.21000   1
   4   2 -11 6.62000 3.15000   1
  -4  -2  11 4.87000 1.21000   1
   4   2 -11 5.99000 0.72000   1
  -1   2  11 4.82000 1.40000   1
  -1   2  11 4.58000 1.69000   1
  -1   2  11 2.55000 0.69000   1
   1   2 -11 7.39000 3.82000   1
   1   2 -11 2.38000 0.81000   1
   1   2 -11 3.01000 0.63000   1
  -1  -2  11 2.65000 0.55000   1
  -1  -2  11 2.98000 0.73000   1
  -1   1 -12 0.08000 2.08000   1
   1   1  12 0.18000 0.38000   1
   1   1  12 0.49000 0.73000   1
   1  -1  12 0.75000 0.75000   1
   1   1  12 0.03000 0.28000   1
  -1   1 -12 1.02000 1.31000   1
   1   1  12 0.99000 1.30000   1
  -1  -1 -12 -0.2300 0.46000   1
  -5  -2  -6 3.37000 2.72000   1
  -5   2  -6 1.84000 0.98000   1
  -5   2  -6 3.15000 0.72000   1
  -5   2  -6 3.53000 1.07000   1
   5  -2   6 1.95000 1.56000   1
   5   2   6 1.51000 1.56000   1
  -5   2  -6 2.23000 0.58000   1
  -5   2  -6 2.42000 0.90000   1
   5  -2   6 1.45000 1.00000   1
   5   2   6 2.41000 1.16000   1
  -9   0  -1 1.50000 1.48000   1
   9   0   1 0.21000 1.37000   1
  -2  -3  -5 1.05000 1.98000   1
   2   3   5 -0.3400 0.46000   1
  -2   3  -5 0.78000 0.97000   1
  -2   3  -5 0.39000 3.47000   1
   2  -3   5 -0.2000 0.54000   1
   2  -3   5 -0.3000 0.48000   1
   2   3   5 0.17000 1.62000   1
   8   2  -4 3.40000 1.78000   1
   8   2  -4 1.79000 1.10000   1
   8  -2  -4 2.28000 1.58000   1
  -8   2   4 5.35000 1.08000   1
  -8   2   4 1.58000 1.11000   1
   8   2  -4 1.33000 1.26000   1
  -8  -2   4 3.27000 1.41000   1
  -5   0  -9 0.24000 1.76000   1
  -5   0  -9 -0.1900 0.56000   1
   5   0   9 -0.9100 0.70000   1
   8   2  -3 2.11000 1.57000   1
   8  -2  -3 0.99000 1.59000   1
   8   2  -3 1.06000 1.51000   1
   8   2  -3 1.68000 1.54000   1
  -8  -2   3 1.93000 1.42000   1
  -8   2   3 2.66000 1.38000   1
  -8   2   3 0.97000 1.24000   1
  -7  -2  -2 -0.0700 0.83000   1
   7   2   2 0.28000 1.09000   1
  -7  -2  -2 1.14000 1.78000   1
   7   2   2 0.54000 1.04000   1
   7   2   2 0.22000 1.16000   1
  -7  -2  -2 0.44000 0.82000   1
  -7   2  -2 1.30000 1.09000   1
  -7   2  -2 0.35000 0.94000   1
   7  -2   2 -0.9500 1.24000   1
  -7   0  -6 3.81000 1.94000   1
   7   0   6 4.94000 1.20000   1
  -7   0  -6 1.92000 0.81000   1
  -7   0  -6 1.39000 0.93000   1
   4  -3   2 -0.5200 0.68000   1
  -4   3  -2 1.43000 2.26000   1
   4  -3   2 1.19000 1.28000   1
   4   3   2 1.42000 1.52000   1
   4  -3   2 1.09000 1.31000   1
   4   3   2 -0.1100 0.85000   1
  -4  -3  -2 0.98000 1.04000   1
  -4   3  -2 -0.2800 1.10000   1
  -4  -3  -2 -0.8900 1.78000   1
  -1  -3  -6 4.68000 1.20000   1
   1   3   6 6.00000 2.18000   1
  -1   3  -6 6.44000 1.47000   1
  -1   3  -6 5.16000 4.34000   1
   1  -3   6 3.86000 0.99000   1
  -1  -1  13 1.15000 0.94000   1
  -1   1  13 0.84000 1.48000   1
  -1   1  13 1.07000 0.87000   1
  -1   1  13 1.20000 0.41000   1
  -1  -1  13 1.11000 0.85000   1
   1  -1 -13 0.58000 0.61000   1
   1   1 -13 3.04000 2.99000   1
   1  -1 -13 1.39000 0.84000   1
   1   1 -13 0.82000 0.34000   1
   5  -1 -13 1.29000 1.01000   1
   5   1 -13 2.05000 0.91000   1
   5   1 -13 0.32000 0.63000   1
   5   1 -13 2.12000 1.47000   1
  -5   1  13 2.05000 1.27000   1
  -5   1  13 0.62000 1.16000   1
  -5  -1  13 0.60000 0.75000   1
   5  -1 -13 2.27000 1.00000   1
  -5   1  13 1.09000 0.75000   1
  -2   3   7 1.33000 0.96000   1
  -2   3   7 -0.4400 1.15000   1
  -2   3   7 0.53000 1.57000   1
  -2   3   7 0.50000 0.47000   1
  -2  -3   7 0.47000 0.59000   1
   2   3  -7 3.15000 2.98000   1
   2   3  -7 0.53000 1.29000   1
   8   0   4 56.5600 5.11000   1
  -8   0  -4 53.9400 5.11000   1
  -8   0  -4 41.6300 4.43000   1
   8  -1   3 1.79000 1.24000   1
   8   1   3 0.39000 1.18000   1
  -8   1  -3 -0.0600 1.19000   1
  -8  -1  -3 1.06000 1.67000   1
  -8   1  -3 0.64000 0.78000   1
  -8  -1  -3 0.21000 0.56000   1
  -8   2   5 4.31000 1.64000   1
  -8  -2   5 5.08000 1.36000   1
   8   2  -5 5.70000 1.64000   1
   8   2  -5 5.43000 1.97000   1
   8   2  -5 4.86000 1.26000   1
   8  -2  -5 4.47000 1.83000   1
   2   0  12 71.6000 5.31000   1
  -2   0 -12 75.7900 7.12000   1
  -2   0 -12 70.0800 6.12000   1
   1   3  -7 0.60000 1.07000   1
  -1  -3   7 -0.1000 0.67000   1
  -1   3   7 0.59000 1.55000   1
   1   3  -7 -1.7200 3.40000   1
  -1   3   7 1.01000 1.17000   1
   9  -1  -8 11.0400 2.01000   1
   9  -1  -8 6.41000 1.90000   1
   9   1  -8 8.07000 2.11000   1
   9   1  -8 12.0200 2.26000   1
  -9  -1   8 9.75000 1.78000   1
  -9   1   8 8.66000 1.61000   1
  -6   2  10 2.08000 1.49000   1
   6  -2 -10 0.91000 1.24000   1
  -6   2  10 0.85000 0.76000   1
   6   2 -10 3.22000 1.70000   1
   6   2 -10 1.55000 1.17000   1
   6   2 -10 1.30000 0.73000   1
  -6   1  -7 0.56000 0.60000   1
  -6   1  -7 1.06000 0.65000   1
  -6   1  -7 0.69000 0.61000   1
  -6   1  -7 2.20000 1.23000   1
  -6  -1  -7 1.38000 0.67000   1
  -6  -1  -7 1.01000 0.81000   1
   6   1   7 0.64000 0.93000   1
   6   1   7 1.36000 1.02000   1
  -6   1  -7 0.77000 0.72000   1
   6  -1   7 0.84000 1.00000   1
  -6  -1  -7 2.67000 2.16000   1
  -6  -1  -7 0.74000 0.73000   1
   5   3  -2 2.05000 1.42000   1
  -5  -3   2 1.61000 1.58000   1
  -5  -3   2 2.30000 1.48000   1
   5   3  -2 2.32000 1.70000   1
   5   3  -2 1.31000 1.53000   1
  -5  -3   2 2.06000 1.38000   1
   5  -3  -2 2.04000 1.81000   1
   5  -3  -2 1.01000 0.83000   1
  -5   3   2 1.25000 1.38000   1
   3  -3   4 0.88000 0.62000   1
   3   3   4 0.72000 1.27000   1
  -3   3  -4 -1.4400 3.54000   1
  -3  -3  -4 0.51000 2.17000   1
   3   3   4 1.20000 0.74000   1
  -3   3  -4 1.09000 1.08000   1
   5   3  -3 -0.1800 0.95000   1
  -5   3   3 -0.4500 1.35000   1
   5   3  -3 -1.0200 1.53000   1
   5  -3  -3 -0.1800 1.45000   1
  -5  -3   3 1.97000 1.22000   1
   5   3  -3 1.42000 1.51000   1
  -3   0  14 0.58000 1.48000   1
  -3   0  14 0.80000 0.38000   1
  -3   0  14 0.42000 0.61000   1
   3   0 -14 1.59000 1.29000   1
   3   0 -14 0.63000 0.43000   1
   8   2  -2 1.89000 1.26000   1
  -8   2   2 2.38000 1.27000   1
  -8   2   2 2.53000 1.37000   1
  -8  -2   2 2.57000 1.62000   1
   8   2  -2 0.89000 1.47000   1
   8  -2  -2 1.20000 1.57000   1
   8   2  -2 2.88000 1.12000   1
  -4   3   6 8.32000 1.43000   1
  -4   3   6 3.39000 0.94000   1
   4  -3  -6 6.82000 1.99000   1
  -4   3   6 7.98000 1.52000   1
  -4   3   6 2.15000 2.11000   1
  -4  -3   6 4.68000 0.78000   1
   4   3  -6 4.89000 1.39000   1
   4   3  -6 6.72000 1.94000   1
   4   3  -6 5.36000 2.81000   1
   4   0 -14 1.83000 1.45000   1
  -4   0  14 1.29000 0.94000   1
  -4   0  14 0.90000 0.53000   1
   4   0 -14 1.51000 0.62000   1
  -5  -3   1 -0.6200 1.14000   1
  -5  -3   1 0.25000 1.40000   1
   5   3  -1 0.41000 1.24000   1
  -5  -3   1 1.72000 1.32000   1
   5   3  -1 -0.3200 1.24000   1
   5   3  -1 1.24000 1.59000   1
  -5   3   1 -0.4000 0.91000   1
   5  -3  -1 0.49000 1.15000   1
   5  -3  -1 0.04000 0.69000   1
  -9  -1   0 10.2300 1.96000   1
  -9   1   0 9.72000 2.17000   1
   9  -1   0 11.4600 2.18000   1
   9   1   0 10.9700 2.18000   1
   9   1   0 12.6200 2.51000   1
  -3   3   7 2.22000 1.63000   1
   3   3  -7 1.05000 2.01000   1
   3   3  -7 0.37000 1.30000   1
  -3   3   7 1.47000 1.14000   1
  -3   3   7 0.06000 0.58000   1
   5   3  -4 3.44000 1.46000   1
  -5  -3   4 1.38000 1.09000   1
  -5   3   4 0.38000 1.43000   1
   5  -3  -4 0.68000 1.59000   1
   5   3  -4 0.32000 2.01000   1
   5   3  -4 2.06000 1.65000   1
  -8  -2   6 0.03000 0.94000   1
   8  -2  -6 -0.2000 1.15000   1
   8   2  -6 0.74000 1.47000   1
   8   2  -6 -0.2100 0.78000   1
   8   2  -6 0.94000 1.11000   1
  -8   2   6 0.54000 1.00000   1
   5  -2 -11 0.64000 0.61000   1
  -5   2  11 0.56000 1.44000   1
   5  -2 -11 -0.3800 1.02000   1
  -5   2  11 0.36000 0.86000   1
   5   2 -11 0.72000 1.09000   1
   5   2 -11 0.85000 0.52000   1
   5   2 -11 0.28000 2.44000   1
  -5  -2  11 0.73000 0.68000   1
  -2   0  14 1.24000 0.64000   1
   2   0 -14 2.79000 1.33000   1
  -2   0  14 3.41000 1.65000   1
  -2   0  14 1.17000 0.70000   1
  -2   0  14 3.02000 1.47000   1
   0   2  11 -0.2800 0.92000   1
   0  -2  11 -0.0200 0.32000   1
   0  -2  11 0.09000 0.44000   1
   0   2 -11 2.35000 2.98000   1
   0   2 -11 0.11000 0.35000   1
   0   2 -11 -0.1000 0.51000   1
   0   2  11 0.29000 0.55000   1
   0   2 -11 0.17000 0.61000   1
   7  -2  -9 0.51000 1.28000   1
  -7   2   9 1.20000 1.42000   1
   7   2  -9 0.99000 2.07000   1
  -7   2   9 0.60000 0.92000   1
   7   2  -9 -0.0300 1.26000   1
  -7  -2   9 1.40000 0.93000   1
   7   2  -9 0.95000 0.79000   1
   0   3  -7 1.00000 1.01000   1
   0   3   7 0.95000 1.65000   1
   0   3   7 0.97000 1.15000   1
   0   3  -7 0.13000 2.63000   1
   0  -3   7 0.43000 0.51000   1
   7   1 -12 4.61000 1.41000   1
   7   1 -12 4.21000 0.83000   1
   7   1 -12 5.20000 2.01000   1
  -7   1  12 4.88000 1.50000   1
  -7   1  12 0.90000 1.43000   1
   7  -1 -12 4.99000 1.34000   1
   7  -1 -12 3.32000 1.25000   1
   9   0 -10 0.55000 1.11000   1
   9   0 -10 -0.2600 1.17000   1
  10   0  -5 -0.3600 1.23000   1
  10   0  -5 0.02000 1.21000   1
 -10   0   5 0.64000 1.42000   1
  10   0  -4 19.8400 2.96000   1
 -10   0   4 20.0800 2.36000   1
  10   0  -4 18.1700 2.90000   1
  -8  -2   1 -0.5800 1.49000   1
   8   2  -1 0.19000 1.36000   1
   8   2  -1 0.88000 1.34000   1
   8   2  -1 1.09000 1.09000   1
  -8   2   1 0.69000 1.18000   1
  -8   2   1 1.18000 1.00000   1
   8  -2  -1 -0.6700 1.30000   1
  -5  -3   0 1.55000 1.78000   1
  -5  -3   0 0.57000 1.36000   1
  -5  -3   0 1.57000 1.49000   1
   5   3   0 1.14000 1.04000   1
   5   3   0 0.52000 1.79000   1
   5  -3   0 2.16000 1.63000   1
   5  -3   0 -0.2100 1.43000   1
  -5   3   0 1.02000 1.18000   1
   5   3   0 1.82000 1.17000   1
   5  -3   0 -0.1500 0.72000   1
  -6   0  -8 1.37000 0.73000   1
   6   0   8 1.80000 0.98000   1
  -6   0  -8 5.07000 1.92000   1
 -10   0   6 24.4900 3.04000   1
  10   0  -6 21.8900 2.86000   1
  10   0  -6 23.1200 3.12000   1
   5   0 -14 37.4700 3.05000   1
   5   0 -14 39.3800 3.76000   1
  -5   0  14 44.2500 3.61000   1
  -5   0  14 29.0700 2.95000   1
  -3  -2  -9 0.27000 0.40000   1
   3   2   9 0.13000 1.29000   1
   3   2   9 1.61000 1.04000   1
  -3  -2  -9 0.63000 1.66000   1
  -3   2  -9 0.08000 0.35000   1
  -3   2  -9 -0.2000 0.56000   1
  -3   2  -9 0.82000 3.41000   1
  -3   2  -9 0.38000 0.46000   1
   5   3  -5 1.66000 1.28000   1
  -5  -3   5 -0.4900 0.76000   1
   5  -3  -5 0.58000 0.98000   1
  -5   3   5 -0.6000 1.29000   1
  -5   3   5 -0.2200 0.44000   1
   5   3  -5 0.68000 1.26000   1
   5   3  -5 0.09000 1.71000   1
  10   0  -3 0.32000 0.35000   1
  10   0  -3 -0.9200 1.08000   1
 -10   0   3 -0.4800 1.45000   1
  10   0  -3 -0.6400 1.32000   1
  -4  -3  -3 -2.3300 1.91000   1
   4   3   3 -0.1400 1.37000   1
  -4  -3  -3 -0.1600 1.02000   1
   4   3   3 0.29000 0.70000   1
   4   3   3 -0.9100 1.21000   1
  -4   3  -3 1.70000 1.00000   1
  -4   3  -3 -0.6300 2.34000   1
   4  -3   3 -0.4200 0.95000   1
   4  -3   3 1.21000 1.20000   1
   4  -3   3 0.74000 0.57000   1
   8  -1 -11 10.2000 1.77000   1
  -8   1  11 10.5200 2.03000   1
   8   1 -11 8.45000 1.99000   1
   8  -1 -11 6.82000 1.83000   1
   8   1 -11 8.96000 2.26000   1
  -6  -2  -5 0.94000 0.68000   1
   6   2   5 0.92000 1.22000   1
  -6  -2  -5 0.95000 2.34000   1
   6   2   5 0.30000 1.43000   1
   6  -2   5 0.67000 0.92000   1
  -6   2  -5 2.34000 1.08000   1
  -6   2  -5 1.37000 0.77000   1
   6  -2   5 0.85000 1.19000   1
   1   0  13 -0.2000 1.05000   1
   1   0  13 0.01000 0.27000   1
  -1   0 -13 -0.2300 1.54000   1
  -1   0 -13 0.14000 1.29000   1
   9   1  -9 -0.7200 1.42000   1
   9  -1  -9 -0.7900 1.16000   1
   9  -1  -9 0.33000 0.80000   1
   9   1  -9 0.08000 1.33000   1
  -9  -1   9 0.88000 1.04000   1
  -9   1   9 -0.8600 1.30000   1
  -9   0  -2 11.9900 1.80000   1
   9   0   2 13.5200 2.31000   1
   7   0 -13 0.90000 1.22000   1
   7   0 -13 0.16000 0.83000   1
  -7   0  13 0.31000 0.81000   1
  -7   0  13 -0.1000 0.99000   1
  -8  -2   7 1.29000 0.94000   1
  -8   2   7 0.80000 1.35000   1
   8   2  -7 0.29000 0.86000   1
   8  -2  -7 -0.8000 1.34000   1
   8   2  -7 2.15000 1.71000   1
   8   2  -7 1.33000 1.25000   1
  -4   2  -8 0.01000 0.42000   1
  -4  -2  -8 2.01000 1.62000   1
   4   2   8 0.67000 1.16000   1
   4  -2   8 -0.1100 1.07000   1
   4   2   8 0.74000 1.03000   1
  -4   2  -8 0.43000 0.65000   1
  -4  -2  -8 0.40000 0.50000   1
  -4   2  -8 -0.2800 0.38000   1
  -4   2  -8 -0.0400 3.36000   1
  -4   2  -8 0.10000 2.03000   1
  -4   2  -8 0.23000 0.61000   1
   4  -2   8 -0.5100 0.99000   1
  -4   2  -8 -0.1800 0.48000   1
   0  -1  13 0.93000 0.88000   1
   0   1  13 0.36000 0.32000   1
   0   1  13 0.41000 0.26000   1
   0   1  13 0.22000 1.40000   1
   0  -1 -13 0.77000 1.05000   1
   0   1 -13 -0.1700 1.18000   1
   0  -1 -13 1.21000 0.54000   1
   0   1 -13 2.29000 2.64000   1
  -4   1 -10 5.32000 1.85000   1
  -4   1 -10 2.68000 0.58000   1
  -4   1 -10 3.34000 1.21000   1
   4   1  10 2.20000 0.80000   1
  -4  -1 -10 2.96000 1.84000   1
  -4   1 -10 3.03000 0.72000   1
   4  -1  10 1.93000 0.69000   1
   4   1  10 3.86000 0.98000   1
  -4  -1 -10 3.67000 0.85000   1
  -6   1  13 2.34000 1.35000   1
   6   1 -13 2.28000 1.43000   1
  -6   1  13 2.50000 1.46000   1
  -6   1  13 1.72000 0.73000   1
   6   1 -13 2.82000 1.01000   1
  -6  -1  13 2.23000 0.92000   1
  -6  -1  13 1.47000 0.88000   1
   6  -1 -13 1.90000 1.20000   1
   6  -1 -13 1.70000 0.97000   1
   6   1 -13 2.33000 0.63000   1
   8   0 -12 32.0300 3.14000   1
   8   0 -12 34.7600 3.51000   1
  -3   1 -11 -0.4100 3.11000   1
  -3   1 -11 0.46000 0.37000   1
   3   1  11 0.85000 0.79000   1
  -3  -1 -11 -0.2200 0.61000   1
   3   1  11 0.51000 0.55000   1
  -3  -1 -11 0.56000 1.67000   1
  -3  -1 -11 0.21000 2.11000   1
  -2  -2 -10 0.25000 0.47000   1
   2   2  10 0.43000 1.02000   1
  -2   2 -10 0.51000 0.49000   1
  -2   2 -10 2.74000 3.52000   1
  -2   2 -10 0.15000 0.43000   1
  -2  -2 -10 -0.2400 2.46000   1
   2   2  10 0.69000 1.09000   1
  -7  -2  -3 1.09000 1.83000   1
  -7  -2  -3 0.44000 0.85000   1
  -7  -2  -3 0.42000 0.73000   1
   7   2   3 -0.8600 0.99000   1
   7   2   3 -0.9500 1.14000   1
   7   2   3 -0.2100 1.44000   1
   7  -2   3 -0.2200 0.89000   1
  -7   2  -3 -0.8100 1.07000   1
  -7   2  -3 1.99000 0.87000   1
  -2  -3  -6 -0.8400 1.93000   1
   2   3   6 0.01000 1.53000   1
   2  -3   6 -0.0400 0.51000   1
  -2   3  -6 -0.6000 0.83000   1
  -2   3  -6 -0.1000 3.18000   1
   2  -3   6 0.22000 0.44000   1
  10   0  -7 -0.6400 1.31000   1
  10   0  -7 1.58000 0.95000   1
 -10   0   7 -0.0100 1.42000   1
  -4   3   7 1.19000 0.65000   1
  -4   3   7 1.66000 1.63000   1
  -4   3   7 1.10000 1.35000   1
   4  -3  -7 0.94000 1.35000   1
  -4   3   7 1.33000 1.56000   1
   4   3  -7 1.40000 1.47000   1
   4   3  -7 -0.6400 2.43000   1
   4   3  -7 1.22000 1.39000   1
  -4  -3   7 0.42000 0.43000   1
   1   0 -14 2.43000 1.40000   1
  -1   0  14 2.64000 1.22000   1
  -1   0  14 1.10000 0.55000   1
  -5  -3  -1 1.82000 1.92000   1
  -5   3  -1 2.99000 1.29000   1
  -5   3  -1 0.55000 2.58000   1
   5   3   1 1.66000 1.53000   1
   5  -3   1 0.54000 1.98000   1
   5   3   1 2.96000 2.10000   1
  -5  -3  -1 -0.1800 1.14000   1
  -5  -3  -1 2.53000 1.65000   1
   5   3   1 2.29000 1.57000   1
   5  -3   1 0.82000 0.79000   1
   5  -3   1 1.36000 1.31000   1
   8   2   0 6.42000 1.49000   1
  -8  -2   0 6.68000 2.37000   1
   8   2   0 6.88000 1.95000   1
  -8  -2   0 4.72000 0.88000   1
   8   2   0 6.54000 1.82000   1
   8  -2   0 7.14000 1.95000   1
   8  -2   0 5.12000 1.12000   1
  -8   2   0 7.70000 1.54000   1
  -8   2   0 7.53000 1.62000   1
  10   0  -2 5.44000 1.50000   1
 -10   0   2 10.2300 2.15000   1
  -9   1  -1 2.05000 1.52000   1
  -9  -1  -1 1.01000 1.96000   1
   9   1   1 3.08000 1.28000   1
   9  -1   1 2.29000 1.51000   1
  -3   2  12 4.25000 1.14000   1
  -3   2  12 4.32000 0.88000   1
  -3   2  12 6.88000 1.69000   1
  -3   2  12 7.01000 1.45000   1
  -3   2  12 4.37000 0.85000   1
   3  -2 -12 4.69000 0.74000   1
  -3  -2  12 3.59000 0.80000   1
   3   2 -12 6.44000 1.34000   1
   3   2 -12 5.35000 3.36000   1
   3   2 -12 4.89000 0.60000   1
   3  -3   5 -0.5700 0.61000   1
   3   3   5 0.66000 0.54000   1
  -3  -3  -5 0.77000 0.86000   1
  -3   3  -5 2.93000 3.35000   1
  -3   3  -5 2.65000 0.96000   1
   3  -3   5 0.31000 0.66000   1
  -3  -3  -5 -0.2300 2.26000   1
   3   3   5 0.24000 1.49000   1
   2   3  -8 0.71000 1.33000   1
   2   3  -8 0.59000 2.00000   1
  -2   3   8 0.71000 1.42000   1
  -2   3   8 0.01000 0.13000   1
  -2   3   8 0.16000 1.12000   1
  -2  -3   8 -0.1200 0.51000   1
  -2   3   8 0.00000 0.57000   1
  -5   1  -9 1.55000 0.53000   1
   5  -1   9 1.74000 0.90000   1
   5   1   9 2.94000 0.89000   1
  -5  -1  -9 1.66000 1.68000   1
  -5   1  -9 5.13000 1.36000   1
  -5   1  -9 1.51000 0.50000   1
  -5   1  -9 1.39000 0.74000   1
   5   1   9 2.42000 1.29000   1
  -5  -1  -9 1.05000 0.78000   1
  -5   1  -9 0.93000 0.73000   1
  -5  -1  -9 2.70000 0.65000   1
   1   3   7 0.19000 1.63000   1
   1  -3   7 0.37000 0.52000   1
  -1   3  -7 0.32000 3.61000   1
  -1   3  -7 0.14000 1.16000   1
  -2   2  12 22.4200 2.73000   1
  -2   2  12 19.3900 2.52000   1
  -2   2  12 14.9200 1.65000   1
   2   2 -12 18.5000 2.05000   1
   2   2 -12 17.9800 1.71000   1
   2   2 -12 21.7700 4.40000   1
  -7  -1  -6 2.94000 1.02000   1
  -7   1  -6 2.63000 1.00000   1
  -7  -1  -6 4.47000 2.29000   1
  -7   1  -6 4.38000 1.02000   1
   7  -1   6 5.27000 1.46000   1
   7   1   6 4.13000 1.72000   1
  -7   1  -6 7.08000 1.68000   1
   5  -3  -6 -0.1500 1.41000   1
  -5   3   6 1.48000 1.30000   1
  -5   3   6 0.33000 0.61000   1
   5   3  -6 -0.3100 1.45000   1
   5   3  -6 -0.3900 1.23000   1
   5   3  -6 0.62000 1.53000   1
  -5  -3   6 0.28000 0.63000   1
  -8   1  -4 0.93000 0.88000   1
  -8  -1  -4 0.91000 1.33000   1
   8  -1   4 1.22000 1.13000   1
   8   1   4 -1.1600 1.31000   1
  -8  -1  -4 -0.2300 0.56000   1
  -1   3   8 0.39000 0.98000   1
  -1   3   8 2.02000 1.14000   1
   1   3  -8 -0.5200 2.65000   1
   1   3  -8 2.96000 1.27000   1
  -1  -3   8 0.29000 0.62000   1
  -1  -3   8 0.19000 0.73000   1
   2   1  12 0.19000 0.35000   1
  -2   1 -12 0.40000 0.24000   1
  -2  -1 -12 0.23000 2.20000   1
  -2   1 -12 0.99000 2.16000   1
   2   1  12 0.20000 0.39000   1
   2   1  12 0.33000 0.96000   1
   2   1  12 1.04000 0.89000   1
  -2  -1 -12 0.22000 0.48000   1
  -2  -1 -12 1.08000 1.50000   1
  -5  -2  -7 0.79000 0.84000   1
  -5  -2  -7 1.98000 2.00000   1
  -5   2  -7 2.62000 0.99000   1
   5   2   7 4.83000 1.46000   1
   5  -2   7 3.70000 1.31000   1
   5  -2   7 0.79000 1.29000   1
   5   2   7 2.95000 1.11000   1
  -5   2  -7 2.75000 0.73000   1
  -5   2  -7 2.29000 0.58000   1
  -5   2  -7 1.28000 0.87000   1
  -5   2  -7 2.85000 0.64000   1
   4  -2 -12 4.19000 1.13000   1
   4  -2 -12 1.36000 0.71000   1
  -4   2  12 2.79000 1.43000   1
   4   2 -12 2.09000 0.55000   1
   4   2 -12 2.56000 0.89000   1
   4   2 -12 7.31000 1.99000   1
  -4  -2  12 1.28000 0.77000   1
  -4   2  12 2.41000 1.48000   1
  -4   2  12 2.75000 1.10000   1
  -3   1  14 0.47000 1.46000   1
  -3   1  14 0.44000 0.50000   1
  -3   1  14 0.27000 1.03000   1
   3  -1 -14 0.57000 0.60000   1
   3   1 -14 1.70000 2.04000   1
  -3  -1  14 -0.2300 0.59000   1
   3  -1 -14 0.03000 0.80000   1
   3  -1 -14 0.31000 0.61000   1
  -3   1  14 0.11000 1.57000   1
  -3  -1  14 1.25000 0.55000   1
   3   3  -8 1.09000 3.17000   1
   3   3  -8 0.07000 1.30000   1
  -3   3   8 0.40000 1.35000   1
  -3   3   8 1.74000 1.25000   1
  -3   3   8 1.21000 0.57000   1
   6   2 -11 0.01000 0.58000   1
   6   2 -11 1.00000 2.00000   1
  -6   2  11 -0.1900 0.82000   1
   6  -2 -11 1.64000 1.00000   1
  -6   2  11 0.01000 1.27000   1
   6   2 -11 -0.6000 0.96000   1
  -8   0  -5 0.20000 1.51000   1
  -8   0  -5 0.65000 0.74000   1
   8   0   5 -0.2000 1.38000   1
  -6   0  14 105.780 7.26000   1
   6   0 -14 92.7600 7.14000   1
   6   0 -14 104.940 8.02000   1
 -10   0   8 30.4000 3.14000   1
  10   0  -8 24.2200 2.75000   1
  10   0  -8 22.2200 3.28000   1
   4  -1 -14 2.33000 0.87000   1
   4   1 -14 1.02000 0.78000   1
   4   1 -14 2.23000 2.08000   1
  -4  -1  14 1.51000 0.74000   1
  -4   1  14 2.19000 1.41000   1
   4  -1 -14 3.05000 1.19000   1
  -4   1  14 3.11000 0.73000   1
  -4   1  14 1.39000 1.62000   1
   1  -2  11 0.48000 0.40000   1
   1  -2  11 -0.0500 0.22000   1
   1   2  11 0.22000 0.46000   1
   1   2  11 -0.3200 1.31000   1
   1   2  11 0.09000 1.14000   1
  -1   2 -11 -0.3100 0.72000   1
  -1   2 -11 0.10000 0.30000   1
  -1   2 -11 1.31000 3.19000   1
  -1   2 -11 0.40000 0.48000   1
   8   2  -8 11.2700 1.77000   1
   8  -2  -8 13.4100 2.20000   1
   8   2  -8 10.8200 1.51000   1
  -8   2   8 15.1300 2.33000   1
   8   2  -8 11.3100 2.93000   1
  -8  -2   8 10.6400 1.94000   1
  -7   2  10 5.10000 1.34000   1
  -7  -2  10 4.78000 0.94000   1
  -7   2  10 2.04000 1.27000   1
   7   2 -10 7.28000 1.91000   1
   7  -2 -10 5.67000 1.58000   1
   7   2 -10 4.41000 0.96000   1
   7   2 -10 4.53000 1.23000   1
   9   0 -11 0.85000 1.06000   1
   9   0 -11 -1.0500 1.18000   1
 -10   0   1 -0.0400 1.42000   1
  10   0  -1 -0.1500 1.29000   1
  -2   1  14 12.4900 2.48000   1
  -2   1  14 17.7400 2.01000   1
  -2   1  14 15.1100 1.26000   1
  -2  -1  14 18.5800 1.90000   1
   2   1 -14 16.2800 1.30000   1
   2  -1 -14 13.7200 1.35000   1
   2   1 -14 18.0600 3.54000   1
   2  -1 -14 16.9400 1.75000   1
  -1  -2  12 0.07000 0.36000   1
  -1   2  12 0.00000 0.52000   1
  -1  -2  12 0.00000 0.58000   1
   1   2 -12 -0.0400 0.71000   1
   1   2 -12 0.73000 0.53000   1
   1   2 -12 0.67000 2.61000   1
  -1   2  12 -0.4900 1.16000   1
  -1   2  12 1.11000 0.98000   1
   7   0   7 0.07000 0.90000   1
  -7   0  -7 -0.1600 0.49000   1
  -7   0  -7 -0.1400 0.61000   1
  -7   0  -7 1.36000 1.49000   1
   4   3   4 1.42000 1.70000   1
  -4  -3  -4 -0.4600 2.14000   1
  -4  -3  -4 0.09000 0.94000   1
   4   3   4 0.66000 1.10000   1
   4   3   4 1.42000 0.84000   1
  -4   3  -4 2.81000 2.82000   1
  -4   3  -4 2.92000 1.09000   1
  -4   3  -4 0.77000 2.37000   1
   4  -3   4 1.16000 0.76000   1
   4  -3   4 0.34000 0.61000   1
   5   3   2 0.20000 1.30000   1
  -5  -3  -2 2.47000 1.88000   1
  -5  -3  -2 -0.1600 1.00000   1
  -5  -3  -2 0.97000 1.42000   1
   5   3   2 0.12000 1.00000   1
   5   3   2 0.48000 1.45000   1
  -5   3  -2 -0.5700 1.10000   1
  -5   3  -2 -0.4800 2.28000   1
   5  -3   2 0.89000 0.69000   1
   5  -3   2 0.56000 1.50000   1
   5  -3   2 1.33000 1.31000   1
   4   0  11 -0.1100 0.45000   1
  -4   0 -11 1.36000 1.60000   1
  -4   0 -11 -0.1400 0.34000   1
  -4   0 -11 -0.0600 0.34000   1
   9   1 -10 26.0200 3.42000   1
  -9   1  10 24.9600 2.64000   1
   9   1 -10 27.6400 3.36000   1
   9  -1 -10 23.4800 2.46000   1
   9  -1 -10 20.7500 3.06000   1
  -9  -1  10 29.3000 3.00000   1
   0   3   8 0.63000 1.25000   1
   0   3  -8 0.60000 3.37000   1
   0   3  -8 2.01000 1.06000   1
   0  -3   8 0.02000 0.46000   1
   0   3   8 0.75000 1.19000   1
  10   1  -5 0.12000 1.33000   1
  10   1  -5 0.47000 0.46000   1
 -10   1   5 -0.3700 0.90000   1
 -10   1   5 -0.7500 0.76000   1
 -10  -1   5 -0.4100 0.82000   1
  10   1  -5 1.58000 1.42000   1
  10  -1  -5 -0.5100 0.84000   1
  10  -1  -4 1.07000 1.06000   1
 -10   1   4 1.49000 1.54000   1
 -10  -1   4 -0.2400 1.44000   1
 -10   1   4 0.70000 1.15000   1
  10   1  -4 1.42000 1.57000   1
  10   1  -4 0.56000 0.63000   1
  10   1  -4 0.34000 1.20000   1
   6  -3  -3 0.74000 1.52000   1
   6   3  -3 2.01000 1.42000   1
  -6  -3   3 0.34000 1.06000   1
  -6   3   3 -0.7500 1.19000   1
   6   3  -3 -0.0300 1.03000   1
   6   3  -3 -0.7600 1.23000   1
  -8  -2  -1 1.07000 1.01000   1
   8   2   1 2.56000 1.73000   1
  -8  -2  -1 1.00000 1.49000   1
   8   2   1 0.48000 1.32000   1
   8   2   1 3.07000 1.47000   1
   8  -2   1 1.41000 1.53000   1
  -8   2  -1 1.94000 1.03000   1
  -8   2  -1 0.62000 1.27000   1
  -6  -3   2 1.97000 1.41000   1
  -6   3   2 -0.4700 1.41000   1
   6   3  -2 1.24000 1.44000   1
  -6  -3   2 -0.1200 1.36000   1
   6   3  -2 3.56000 1.47000   1
   6   3  -2 1.57000 1.71000   1
   6  -3  -2 2.00000 1.44000   1
  -6   1  -8 2.45000 1.45000   1
  -6  -1  -8 0.79000 0.70000   1
   6  -1   8 2.30000 0.98000   1
  -6   1  -8 0.53000 0.77000   1
  -6   1  -8 1.06000 0.66000   1
  -6   1  -8 0.97000 0.65000   1
   6   1   8 2.88000 0.98000   1
  -6  -1  -8 0.75000 0.65000   1
  -6  -1  -8 2.16000 2.21000   1
  -6   1  -8 0.59000 0.76000   1
  -3   0 -12 45.3800 5.44000   1
  -3   0 -12 41.8900 4.59000   1
  10   1  -6 0.12000 0.61000   1
  10   1  -6 1.85000 1.69000   1
 -10   1   6 2.86000 1.38000   1
  10  -1  -6 1.35000 1.00000   1
 -10   1   6 2.93000 1.58000   1
 -10  -1   6 1.35000 1.09000   1
  10   1  -6 1.84000 1.63000   1
  -6   3   4 0.30000 1.37000   1
   6   3  -4 -0.0400 1.52000   1
   6  -3  -4 -0.1200 1.48000   1
   6   3  -4 2.07000 1.66000   1
   6   3  -4 0.63000 1.23000   1
  -5   1  14 10.5200 1.68000   1
  -5   1  14 6.99000 1.88000   1
   5   1 -14 8.83000 2.54000   1
   5   1 -14 8.02000 0.94000   1
   5  -1 -14 9.78000 1.58000   1
   5  -1 -14 9.14000 1.44000   1
  -5  -1  14 6.45000 1.25000   1
  -5   1  14 8.05000 1.23000   1
   0   0 -14 1.76000 1.68000   1
   0   0  14 0.05000 1.19000   1
   0   0  14 0.46000 0.37000   1
   4   3  -8 7.14000 1.40000   1
  -4   3   8 5.27000 1.66000   1
  -4   3   8 4.91000 0.96000   1
   4   3  -8 5.22000 1.92000   1
   4   3  -8 6.88000 3.40000   1
   4  -3  -8 6.43000 2.06000   1
  -4   3   8 10.8600 1.79000   1
  -4   3   8 7.58000 2.07000   1
  10  -1  -3 0.89000 1.31000   1
 -10   1   3 3.24000 1.63000   1
  10   1  -3 5.16000 1.89000   1
 -10   1   3 2.69000 1.36000   1
  10   1  -3 3.04000 1.38000   1
 -10  -1   3 2.46000 1.66000   1
  -5   0 -10 0.43000 1.62000   1
  -5   0 -10 -0.0800 0.51000   1
  -5   0 -10 1.22000 0.53000   1
   5   0  10 0.76000 0.70000   1
  -5  -2  12 7.60000 1.43000   1
  -5   2  12 8.85000 1.89000   1
  -5   2  12 12.5300 2.31000   1
   5  -2 -12 16.4900 1.90000   1
   5   2 -12 11.2700 1.16000   1
   5   2 -12 11.7100 1.77000   1
   5   2 -12 15.1000 2.77000   1
  -9   0  -3 -0.3300 1.58000   1
   9   0   3 -0.6100 1.16000   1
   5  -3  -7 -0.0400 0.90000   1
  -5   3   7 0.53000 0.96000   1
   5   3  -7 0.62000 2.01000   1
   5   3  -7 0.40000 1.32000   1
   5   3  -7 0.23000 1.19000   1
  -5   3   7 -0.2900 0.66000   1
  -5   3   7 0.49000 0.81000   1
  -5  -3   7 0.05000 0.53000   1
   1   1  13 -0.1200 0.68000   1
   1   1  13 0.37000 0.27000   1
  -1   1 -13 0.32000 2.75000   1
  -1  -1 -13 -0.4100 0.43000   1
  -1   1 -13 -0.2700 1.30000   1
   1   1  13 0.22000 0.20000   1
  -1  -1 -13 0.31000 1.41000   1
   1   1  13 0.22000 0.98000   1
   1  -1  13 -0.9000 0.84000   1
   6   3  -1 -0.3200 1.45000   1
   6  -3  -1 -0.5000 1.44000   1
   6   3  -1 0.97000 1.36000   1
  -6   3   1 -0.5800 1.04000   1
  -6  -3   1 -0.0700 1.20000   1
  -6  -3   1 1.58000 1.40000   1
   6   3  -1 0.01000 1.47000   1
   9   1   2 11.0700 2.41000   1
  -9   1  -2 12.7300 2.18000   1
  -9  -1  -2 13.2900 2.68000   1
   9  -1   2 8.23000 2.14000   1
   7   1 -13 0.95000 1.02000   1
   7   1 -13 -0.1700 1.77000   1
   7  -1 -13 0.54000 0.94000   1
   7  -1 -13 0.85000 1.12000   1
   7   1 -13 0.62000 0.61000   1
  -7   1  13 -0.9800 1.24000   1
   7   2   4 3.90000 1.71000   1
  -7   2  -4 6.08000 1.49000   1
  -7  -2  -4 5.23000 2.73000   1
  -7   2  -4 5.94000 1.22000   1
   7  -2   4 6.06000 1.70000   1
  -7  -2  -4 2.15000 1.04000   1
   7   2   4 6.62000 1.90000   1
  -8   1  12 0.47000 1.25000   1
   8  -1 -12 -0.2900 1.02000   1
   8   1 -12 -0.6700 1.47000   1
   8   1 -12 1.34000 1.15000   1
   8  -1 -12 -0.1800 1.10000   1
 -10   0   9 -0.0700 1.46000   1
  10   0  -9 -0.0200 1.18000   1
  10   0  -9 -0.7200 1.43000   1
   6   2   6 2.15000 1.42000   1
   6   2   6 0.89000 1.18000   1
  -6  -2  -6 1.17000 0.69000   1
  -6  -2  -6 2.40000 1.81000   1
  -6   2  -6 1.86000 1.09000   1
   6  -2   6 1.56000 1.52000   1
   6  -2   6 0.47000 0.98000   1
  -6   2  -6 1.38000 0.89000   1
   6   3  -5 0.42000 1.22000   1
   6   3  -5 1.28000 0.99000   1
   6   3  -5 1.18000 0.98000   1
   6   3  -5 -0.6200 1.05000   1
  -6   3   5 0.07000 1.35000   1
  -6  -3   5 0.22000 0.98000   1
   6  -3  -5 0.74000 1.10000   1
  10   1  -7 -0.3800 1.39000   1
  10  -1  -7 0.29000 0.86000   1
 -10   1   7 -0.1400 1.03000   1
 -10   1   7 0.10000 1.21000   1
 -10  -1   7 0.51000 1.21000   1
  10  -1  -7 -0.7800 1.14000   1
  10   1  -7 1.00000 1.34000   1
   1   1 -14 19.0900 4.51000   1
   1  -1 -14 13.1600 1.49000   1
   1  -1 -14 9.65000 1.13000   1
  -1  -1  14 13.6600 1.73000   1
  -1   1  14 10.6600 0.85000   1
  -1   1  14 15.1800 1.88000   1
  -1   1  14 15.6200 1.78000   1
  -2   3  -7 1.17000 3.25000   1
   2  -3   7 -0.2200 0.51000   1
   2  -3   7 0.03000 0.44000   1
   2   3   7 1.47000 1.53000   1
  -2   3  -7 0.03000 0.83000   1
  -2  -3  -7 1.27000 2.07000   1
   3   3   6 1.01000 1.78000   1
  -3   3  -6 1.51000 2.79000   1
  -3   3  -6 2.46000 1.28000   1
  -3  -3  -6 0.09000 2.54000   1
  -3  -3  -6 1.03000 0.71000   1
   3  -3   6 0.72000 0.74000   1
   3  -3   6 0.98000 0.74000   1
   8  -2  -9 1.35000 1.18000   1
   8   2  -9 0.30000 1.28000   1
  -8  -2   9 -0.5200 0.86000   1
  -8   2   9 0.79000 1.41000   1
   8   2  -9 0.02000 0.72000   1
   8   2  -9 0.92000 1.72000   1
  10  -1  -2 11.6800 2.29000   1
 -10   1   2 9.96000 1.82000   1
 -10   1   2 11.5900 1.82000   1
  10   1  -2 10.9500 2.34000   1
  10   1  -2 9.24000 2.54000   1
 -10  -1   2 12.7500 2.23000   1
  10   0   0 0.87000 0.93000   1
 -10   0   0 -0.1000 1.49000   1
  -2   0 -13 -0.1300 1.51000   1
  -2   0 -13 2.19000 1.85000   1
   2   0  13 -0.0700 0.78000   1
   8   0 -13 0.25000 1.27000   1
   8   0 -13 -1.0700 1.01000   1
  -8   0  13 -0.1800 1.15000   1
  -3   0  15 0.77000 1.16000   1
  -3   0  15 0.37000 0.53000   1
   3   0 -15 -0.1000 1.31000   1
   3   0 -15 0.01000 0.29000   1
   4   0 -15 0.45000 1.25000   1
  -4   0  15 -0.0300 0.40000   1
  -4   0  15 -0.0700 0.83000   1
   4   0 -15 0.39000 0.50000   1
   0   2 -12 2.29000 0.96000   1
   0   2  12 5.23000 1.58000   1
   0   2 -12 2.57000 3.57000   1
   0   2 -12 3.15000 0.66000   1
   0  -2  12 3.05000 0.81000   1
   0   2  12 1.60000 0.57000   1
   0   2  12 3.13000 1.58000   1
   6  -3   0 -0.0100 1.48000   1
  -6  -3   0 0.94000 1.27000   1
  -6   3   0 0.67000 1.02000   1
   6   3   0 0.07000 1.04000   1
   6   3   0 0.19000 1.53000   1
   6   3   0 -0.1500 1.27000   1
   6  -3   0 -1.0400 1.26000   1
  -6  -3   0 -0.7300 1.18000   1
  -6  -3   0 0.11000 1.86000   1
   2   3  -9 -0.3800 0.93000   1
   2   3  -9 0.67000 2.92000   1
  -2  -3   9 -0.1100 0.51000   1
  -2   3   9 -0.3800 1.20000   1
  -2   3   9 0.81000 1.49000   1
  -5  -3  -3 -0.2200 2.35000   1
  -5  -3  -3 2.47000 1.25000   1
   5   3   3 1.05000 1.16000   1
   5   3   3 3.52000 2.18000   1
   5   3   3 2.56000 1.65000   1
  -5   3  -3 1.18000 2.58000   1
   5  -3   3 1.85000 0.81000   1
   5  -3   3 1.72000 1.78000   1
   9   2  -4 -0.5000 1.01000   1
  -9   2   4 -0.8700 1.17000   1
   9  -2  -4 1.47000 1.25000   1
   9   2  -4 0.23000 1.29000   1
  -9  -2   4 -0.0700 1.22000   1
  -9   2   4 0.65000 1.22000   1
   6   0   9 0.00000 0.76000   1
  -6   0  -9 -0.3500 0.42000   1
  -6   0  -9 -0.3300 0.55000   1
  -6   0  -9 0.10000 1.62000   1
  -1   3  -8 0.27000 1.10000   1
   1  -3   8 0.36000 0.50000   1
  -1   3  -8 -0.3300 2.65000   1
   1   3   8 0.55000 1.12000   1
  -3  -2 -10 1.01000 1.10000   1
  -3   2 -10 1.66000 2.71000   1
  -3  -2 -10 0.82000 0.38000   1
   3   2  10 -0.4200 1.26000   1
  -3   2 -10 0.52000 0.41000   1
  -3  -2 -10 0.78000 2.01000   1
  -3   2 -10 0.62000 0.54000   1
   3   2  10 1.28000 0.82000   1
  -3   2 -10 2.61000 0.79000   1
   9  -2  -5 11.2500 2.18000   1
   9   2  -5 12.9000 2.20000   1
  -9  -2   5 7.95000 1.82000   1
  -9   2   5 11.8100 2.19000   1
   9   2  -5 8.19000 2.40000   1
  -9   2   5 7.46000 1.00000   1
   7   0 -14 1.68000 1.15000   1
  -7   0  14 2.18000 0.82000   1
  -7   0  14 2.63000 1.32000   1
   7   0 -14 3.10000 1.45000   1
  -3   3   9 0.78000 1.16000   1
  -3   3   9 0.42000 0.42000   1
  -3   3   9 0.77000 1.58000   1
  -3   3   9 -0.0100 0.91000   1
   3   3  -9 0.18000 1.11000   1
   3   3  -9 0.15000 3.01000   1
  -4  -2  -9 8.11000 3.15000   1
  -4   2  -9 3.02000 0.77000   1
  -4   2  -9 4.02000 0.89000   1
   4  -2   9 4.54000 1.14000   1
  -4   2  -9 3.43000 0.70000   1
  -4   2  -9 4.48000 0.75000   1
  -4  -2  -9 2.48000 0.72000   1
  -4   2  -9 4.69000 2.51000   1
   4   2   9 2.66000 1.63000   1
   4   2   9 3.33000 1.13000   1
  -4   2  -9 3.78000 4.49000   1
   4  -2   9 4.79000 1.51000   1
   9   2  -3 0.15000 1.40000   1
   9  -2  -3 1.59000 1.42000   1
  -9   2   3 1.19000 1.37000   1
   9   2  -3 1.76000 1.43000   1
  -9  -2   3 0.26000 1.41000   1
  -9   2   3 1.12000 1.19000   1
  -1   3   9 -0.3600 1.26000   1
  -1  -3   9 0.14000 0.67000   1
   1   3  -9 3.95000 3.66000   1
  -1   3   9 1.09000 1.57000   1
   1   3  -9 0.82000 1.01000   1
  -6  -3   6 1.85000 0.99000   1
   6   3  -6 2.83000 0.93000   1
   6   3  -6 0.94000 1.63000   1
  -6   3   6 2.07000 0.87000   1
   6   3  -6 6.14000 2.21000   1
   6   3  -6 2.63000 1.91000   1
  -6   3   6 0.52000 1.62000   1
   6  -3  -6 1.58000 1.91000   1
  -8   1  -5 3.86000 1.58000   1
  -8  -1  -5 4.26000 2.25000   1
   8   1   5 2.88000 1.62000   1
   8  -1   5 4.33000 1.46000   1
   8   2   2 1.19000 1.42000   1
  -8   2  -2 2.00000 1.01000   1
   8  -2   2 3.10000 1.53000   1
   8   2   2 2.76000 1.63000   1
   8   2   2 1.36000 1.26000   1
  -8   2  -2 2.21000 1.44000   1
  -8  -2  -2 2.56000 2.16000   1
  -6   1  14 14.3500 2.67000   1
  -6   1  14 11.0800 1.56000   1
   6  -1 -14 12.3000 1.63000   1
   6  -1 -14 15.5800 2.05000   1
   6   1 -14 13.3900 1.37000   1
  -6  -1  14 8.99000 1.56000   1
  -6  -1  14 11.4500 1.71000   1
   6   1 -14 15.1000 2.80000   1
  10  -1  -8 -0.5200 1.14000   1
  10   1  -8 -0.0800 1.31000   1
 -10  -1   8 -0.1600 1.23000   1
  10  -1  -8 0.23000 1.26000   1
 -10   1   8 0.58000 1.41000   1
 -10   1   8 0.16000 0.91000   1
  10   1  -8 0.63000 1.10000   1
  -2   0  15 1.07000 0.71000   1
  -2   0  15 -0.3700 0.48000   1
   2   0 -15 0.02000 1.06000   1
  -2   0  15 0.22000 1.22000   1
  -4   3  -5 -0.6200 1.80000   1
  -4   3  -5 1.58000 4.05000   1
  -4  -3  -5 1.63000 0.99000   1
  -4   3  -5 2.52000 1.03000   1
  -4  -3  -5 0.28000 2.45000   1
   4   3   5 0.89000 1.50000   1
   4  -3   5 1.27000 0.79000   1
   4  -3   5 0.84000 0.62000   1
   4   3   5 1.25000 1.77000   1
   5   0 -15 -1.3000 1.30000   1
  -5   0  15 -1.0100 0.80000   1
  -5   0  15 -0.3700 0.49000   1
   5   0 -15 0.08000 0.58000   1
   7  -2 -11 -0.2400 1.06000   1
   7   2 -11 0.26000 1.94000   1
  -7   2  11 0.41000 1.35000   1
  -7   2  11 1.02000 0.99000   1
   7   2 -11 -0.0300 0.70000   1
   7   2 -11 0.94000 1.05000   1
   9  -2  -6 0.85000 1.49000   1
  -9   2   6 4.33000 1.47000   1
  -9  -2   6 1.22000 1.29000   1
   9   2  -6 2.21000 1.53000   1
   9   2  -6 0.70000 1.30000   1
   9  -1 -11 4.13000 1.53000   1
   9   1 -11 2.48000 1.81000   1
   9  -1 -11 6.17000 1.54000   1
   9   1 -11 4.20000 1.75000   1
  -9   1  11 6.30000 1.77000   1
   9   0 -12 2.04000 1.31000   1
   9   0 -12 5.70000 1.52000   1
  10  -1  -1 2.56000 1.24000   1
 -10   1   1 2.55000 1.28000   1
 -10  -1   1 4.35000 1.92000   1
  10   1  -1 3.77000 1.37000   1
  10   1  -1 1.80000 1.26000   1
  -5  -3   8 -0.0700 0.53000   1
  -5   3   8 1.37000 1.30000   1
  -5   3   8 0.68000 0.71000   1
   5  -3  -8 1.24000 1.46000   1
   5   3  -8 0.72000 1.48000   1
   5   3  -8 -0.1700 1.32000   1
  -5   3   8 1.28000 1.56000   1
   5   3  -8 0.95000 2.24000   1
   7  -1   7 4.06000 1.59000   1
  -7  -1  -7 2.93000 2.40000   1
  -7   1  -7 6.15000 1.66000   1
  -7   1  -7 4.97000 1.00000   1
  -7  -1  -7 1.20000 0.79000   1
  -7   1  -7 1.51000 1.02000   1
  -7   1  -7 2.16000 0.86000   1
   7   1   7 3.40000 1.53000   1
  -2   2 -11 0.13000 0.82000   1
  -2   2 -11 0.53000 0.55000   1
  -2  -2 -11 1.57000 2.41000   1
  -2   2 -11 2.33000 2.45000   1
  -2  -2 -11 -0.0900 0.60000   1
   2   2  11 0.62000 0.77000   1
   2   2  11 0.50000 0.44000   1
   2   2  11 1.28000 1.16000   1
   6  -2 -12 2.67000 1.16000   1
   6   2 -12 2.53000 1.22000   1
   6   2 -12 3.06000 2.58000   1
   6   2 -12 3.06000 0.64000   1
  -6   2  12 5.06000 1.77000   1
   6  -2 -12 4.88000 1.34000   1
  -6   2  12 1.72000 1.43000   1
   9  -2  -2 0.15000 1.00000   1
   9   2  -2 0.95000 1.38000   1
   9   2  -2 0.61000 1.37000   1
  -9   2   2 -0.3500 1.32000   1
  -9   2   2 0.35000 1.06000   1
  -9  -2   2 0.20000 1.45000   1
   4   1  11 -0.3300 0.87000   1
  -4   1 -11 -0.3100 1.45000   1
  -4   1 -11 0.76000 2.13000   1
  -4   1 -11 0.16000 0.43000   1
  -4  -1 -11 -0.5000 1.38000   1
   4  -1  11 0.10000 0.52000   1
   4   1  11 0.00000 0.60000   1
  -4  -1 -11 -0.5200 0.45000   1
  -4   1 -11 0.00000 0.81000   1
  -4   1 -11 0.48000 0.47000   1
  10   0 -10 34.3600 3.86000   1
  10   0 -10 37.8800 3.33000   1
 -10   0  10 41.9400 4.03000   1
   6  -3   1 0.42000 1.51000   1
   6   3   1 0.06000 1.01000   1
  -6  -3  -1 -0.2600 1.04000   1
  -6  -3  -1 0.69000 1.24000   1
  -6  -3  -1 1.77000 1.74000   1
  -6   3  -1 -1.0000 0.92000   1
   6  -3   1 -0.1900 1.39000   1
   6  -3   1 -0.0100 0.68000   1
   6   3   1 -0.8700 1.56000   1
   6   3   1 0.07000 1.07000   1
  -3   2  13 1.06000 1.26000   1
  -3   2  13 0.34000 1.39000   1
  -3   2  13 0.28000 0.88000   1
  -3   2  13 0.60000 0.60000   1
  -3  -2  13 0.03000 0.59000   1
   3   2 -13 -0.2100 0.67000   1
   3   2 -13 -0.3800 2.41000   1
   3   2 -13 0.33000 0.33000   1
   3  -2 -13 0.23000 0.47000   1
   8   0   6 1.98000 1.38000   1
  -8   0  -6 0.92000 1.71000   1
  -8   0  -6 0.31000 0.77000   1
  -5   2  -8 6.53000 1.30000   1
  -5   2  -8 7.04000 2.77000   1
  -5  -2  -8 11.3900 3.08000   1
  -5   2  -8 6.87000 1.08000   1
   5   2   8 6.76000 1.51000   1
  -5   2  -8 5.07000 0.95000   1
   5   2   8 9.26000 1.82000   1
   5  -2   8 5.71000 1.68000   1
  -5   2  -8 5.86000 0.85000   1
  -5   2  -8 5.32000 0.91000   1
   5  -2   8 7.26000 1.47000   1
  -4   3   9 0.74000 0.59000   1
  -4   3   9 0.64000 1.63000   1
   4   3  -9 0.98000 2.75000   1
   4  -3  -9 0.19000 0.95000   1
   4   3  -9 0.53000 1.15000   1
  -4   3   9 0.22000 1.07000   1
   4   3  -9 0.37000 1.29000   1
  -4   3   9 0.52000 1.34000   1
  -3  -1 -12 3.23000 0.76000   1
  -3  -1 -12 2.83000 0.72000   1
   3   1  12 3.85000 0.84000   1
  -3   1 -12 5.03000 1.35000   1
  -3  -1 -12 13.0200 2.59000   1
  -3  -1 -12 4.30000 2.60000   1
   3   1  12 3.94000 1.17000   1
  -3   1 -12 4.73000 3.79000   1
   0   1  14 0.00000 0.18000   1
   0   1 -14 -0.4900 2.33000   1
   0   1 -14 1.54000 1.37000   1
   0  -1  14 -0.6000 0.83000   1
   0   1  14 0.03000 1.29000   1
   0   1  14 -0.2800 0.88000   1
   0   1  14 0.00000 0.07000   1
   0  -1 -14 0.14000 0.38000   1
   0  -1 -14 -0.1400 1.10000   1
  -2   2  13 -0.7900 1.27000   1
  -2   2  13 0.60000 1.13000   1
  -2  -2  13 0.19000 0.38000   1
  -2   2  13 -0.1500 0.52000   1
   2   2 -13 -0.0100 0.58000   1
   2   2 -13 -0.1800 0.74000   1
   2  -2 -13 -0.0500 0.32000   1
   2   2 -13 3.88000 2.53000   1
   4   2 -13 1.59000 2.31000   1
   4  -2 -13 0.93000 0.96000   1
   4  -2 -13 0.37000 0.62000   1
   4   2 -13 1.00000 0.47000   1
  -4  -2  13 1.77000 0.69000   1
  -4   2  13 0.66000 0.59000   1
  -4   2  13 1.09000 1.28000   1
  -4   2  13 0.84000 1.34000   1
   4   2 -13 0.59000 0.82000   1
  -4   2  13 2.01000 1.10000   1
  -5   1 -10 0.43000 0.24000   1
  -5  -1 -10 -0.1300 1.96000   1
  -5   1 -10 1.23000 1.14000   1
   5   1  10 0.37000 1.07000   1
  -5   1 -10 0.29000 0.58000   1
  -5   1 -10 0.31000 0.33000   1
   5   1  10 -0.4600 0.82000   1
   5  -1  10 -0.2800 0.57000   1
  -5  -1 -10 -0.2700 0.68000   1
  -5   1 -10 0.08000 0.35000   1
  -5   1 -10 -0.1400 0.63000   1
   0   3   9 -0.8800 1.22000   1
   0   3   9 1.62000 1.57000   1
   0  -3   9 -0.0500 0.56000   1
   0   3  -9 -0.5800 0.85000   1
   0   3  -9 -0.9000 3.50000   1
 -10   0  -1 -0.6400 1.50000   1
  10   0   1 0.03000 1.26000   1
  -9  -1  -3 2.10000 2.10000   1
  -9   1  -3 1.41000 0.92000   1
  -9   1  -3 1.74000 1.45000   1
   9  -1   3 0.78000 1.50000   1
   9   1   3 1.87000 1.59000   1
   1   0  14 0.41000 1.12000   1
   1   0  14 0.10000 0.23000   1
  -1   0 -14 0.81000 1.74000   1
  -1   0 -14 -0.2200 1.33000   1
  -9   2   7 1.63000 1.40000   1
  -9  -2   7 0.18000 1.28000   1
   9   2  -7 1.81000 1.59000   1
   9  -2  -7 0.13000 0.97000   1
   9   2  -7 1.05000 0.98000   1
  -9   0  -4 1.09000 1.57000   1
   9   0   4 2.26000 1.36000   1
  -8  -2  10 10.6000 1.72000   1
  -8   2  10 8.62000 2.30000   1
   8  -2 -10 7.41000 1.97000   1
   8   2 -10 8.32000 1.47000   1
   8   2 -10 12.8400 2.91000   1
   8   2 -10 8.40000 1.98000   1
   6  -3  -7 1.38000 1.44000   1
  -6   3   7 0.92000 0.83000   1
  -6   3   7 0.25000 1.02000   1
   6   3  -7 0.37000 1.59000   1
   6   3  -7 0.26000 1.31000   1
   6   3  -7 0.35000 0.84000   1
   6   3  -7 0.38000 1.98000   1
 -10   1   9 0.76000 1.13000   1
  10  -1  -9 1.04000 1.28000   1
  10   1  -9 1.39000 1.52000   1
  10   1  -9 0.46000 1.09000   1
  10  -1  -9 -0.7900 1.36000   1
 -10  -1   9 0.77000 1.22000   1
  -9   2   1 0.46000 1.26000   1
   9   2  -1 -0.3300 1.36000   1
   9  -2  -1 0.41000 0.68000   1
   9   2  -1 0.55000 0.66000   1
  -9   2   1 0.37000 1.08000   1
  -9  -2   1 1.13000 1.63000   1
   9   2  -1 -0.0800 1.34000   1
   9  -2  -1 1.79000 1.44000   1
   1   0 -15 -0.4300 1.15000   1
  -1   0  15 0.34000 1.19000   1
  -1   0  15 -0.0300 0.43000   1
  -7  -2  -5 0.99000 1.10000   1
  -7  -2  -5 4.24000 2.06000   1
   7   2   5 4.21000 1.85000   1
   7   2   5 3.14000 1.58000   1
  -7   2  -5 4.51000 1.06000   1
   7  -2   5 5.49000 1.57000   1
  -7   2  -5 4.07000 1.74000   1
  -6   0  15 0.01000 0.57000   1
  -6   0  15 1.11000 0.87000   1
   6   0 -15 -1.0500 1.26000   1
   6   0 -15 -0.2600 0.60000   1
  -7   0  -8 1.62000 0.74000   1
   7   0   8 0.75000 1.31000   1
  -7   0  -8 0.24000 0.79000   1
  -7   0  -8 1.97000 1.71000   1
  -5   3  -4 -0.2100 0.68000   1
  -5   3  -4 1.49000 1.01000   1
  -5  -3  -4 -0.2900 1.58000   1
   5   3   4 -0.3200 0.70000   1
   5  -3   4 0.08000 0.86000   1
   5   3   4 0.07000 1.37000   1
   5   3   4 1.33000 1.87000   1
   5  -3   4 0.80000 1.36000   1
  -5   3  -4 0.60000 1.65000   1
  -5  -3  -4 0.87000 0.90000   1
  -1   2 -12 6.33000 1.23000   1
  -1   2 -12 4.92000 0.72000   1
  -1   2 -12 7.01000 4.31000   1
   1   2  12 4.07000 0.79000   1
   1   2  12 5.16000 1.47000   1
   1  -2  12 5.51000 0.76000   1
  10   1   0 0.68000 1.76000   1
  10  -1   0 2.75000 1.58000   1
 -10   1   0 3.04000 1.56000   1
 -10  -1   0 0.75000 1.84000   1
   2   1  13 0.38000 0.23000   1
   2   1  13 0.08000 0.77000   1
  -2   1 -13 -0.9600 2.77000   1
  -2  -1 -13 0.30000 1.69000   1
  -2  -1 -13 -0.4000 0.51000   1
  -2   1 -13 -0.0500 1.09000   1
  -2  -1 -13 -0.1000 2.17000   1
   2   1  13 0.11000 0.39000   1
   2   1  13 0.76000 0.93000   1
  -8   1  13 1.40000 1.43000   1
   8   1 -13 1.50000 1.24000   1
   8   1 -13 0.49000 1.69000   1
   8  -1 -13 -0.4400 1.42000   1
   8  -1 -13 1.65000 1.07000   1
  -3  -1  15 1.67000 0.60000   1
  -3   1  15 3.36000 0.65000   1
  -3   1  15 3.88000 1.03000   1
   3   1 -15 2.60000 0.58000   1
   3  -1 -15 4.54000 0.87000   1
  -3   1  15 2.70000 1.36000   1
   3   1 -15 1.88000 2.17000   1
  -3   1  15 1.91000 1.67000   1
  -4   1  15 10.4200 2.12000   1
   4   1 -15 12.1700 2.59000   1
  -4  -1  15 8.76000 1.26000   1
  -4   1  15 9.40000 1.51000   1
  -4   1  15 7.24000 1.20000   1
  -4   1  15 7.96000 2.25000   1
  -4  -1  15 6.85000 1.27000   1
   4  -1 -15 9.58000 1.44000   1
  -3  -3  -7 -0.9700 2.42000   1
   3  -3   7 0.07000 0.49000   1
  -3   3  -7 -0.6800 2.66000   1
   3  -3   7 0.11000 0.86000   1
   3   3   7 1.31000 1.50000   1
  -3   3  -7 0.30000 0.38000   1
   2   3   8 0.78000 1.19000   1
  -2  -3  -8 0.53000 0.68000   1
  -2   3  -8 -0.0400 0.85000   1
  -2   3  -8 0.76000 3.71000   1
  -2  -3  -8 2.29000 2.35000   1
   2  -3   8 -0.2000 0.56000   1
  -1   2  13 -0.5400 1.10000   1
  -1  -2  13 -0.0700 0.29000   1
   1   2 -13 0.03000 0.72000   1
   1   2 -13 0.24000 0.38000   1
   1   2 -13 0.24000 0.75000   1
   1   2 -13 -0.7100 3.39000   1
  -1  -2  13 0.72000 0.63000   1
  -1   2  13 -0.3100 1.30000   1
  -1   2  13 0.66000 0.46000   1
   5   2 -13 1.64000 0.92000   1
   5   2 -13 0.70000 2.47000   1
   5  -2 -13 1.00000 0.67000   1
   5  -2 -13 1.21000 1.05000   1
  -5   2  13 1.37000 1.43000   1
  -5  -2  13 0.68000 0.68000   1
  -5   2  13 0.45000 1.15000   1
   5   2 -13 1.09000 0.51000   1
  11   0  -5 -1.6300 1.49000   1
  11   0  -5 -0.4900 1.02000   1
 -11   0   5 0.21000 1.66000   1
   6   3   2 1.96000 1.22000   1
   6  -3   2 1.34000 0.92000   1
   6   3   2 1.57000 1.90000   1
   6  -3   2 2.03000 1.22000   1
  -6  -3  -2 2.26000 1.17000   1
  -6  -3  -2 1.80000 2.20000   1
  -6   3  -2 3.28000 1.21000   1
  -6  -3  -2 0.12000 1.58000   1
   6   3   2 1.62000 1.60000   1
   8   2   3 -1.2600 1.48000   1
  -8  -2  -3 1.14000 0.81000   1
  -8   2  -3 0.29000 1.24000   1
  -8   2  -3 2.29000 0.95000   1
  -8  -2  -3 0.18000 1.94000   1
   8   2   3 -0.1000 1.25000   1
   8  -2   3 -0.0500 1.35000   1
  -6  -1  -9 0.35000 0.49000   1
  -6  -1  -9 0.36000 1.43000   1
  -6   1  -9 0.25000 0.49000   1
  -6   1  -9 -0.6900 1.20000   1
  -6  -1  -9 -0.3500 0.59000   1
   6   1   9 1.32000 0.90000   1
  -6   1  -9 -0.1700 0.53000   1
  -6   1  -9 0.04000 0.49000   1
   6   1   9 0.50000 0.81000   1
   6  -1   9 -0.4500 0.76000   1
  -9  -2   8 0.44000 0.97000   1
  -9   2   8 -0.1800 1.26000   1
   9  -2  -8 0.12000 1.23000   1
   9   2  -8 -1.3900 1.60000   1
   9   2  -8 0.53000 1.18000   1
  -7  -3   3 0.04000 1.24000   1
  -7   3   3 -0.5400 1.46000   1
   7   3  -3 1.55000 1.47000   1
   7  -3  -3 0.08000 1.55000   1
   7   3  -3 1.38000 1.26000   1
   7   3  -3 0.93000 1.65000   1
   6   2   7 1.21000 1.37000   1
  -6  -2  -7 1.97000 1.95000   1
   6   2   7 -0.0400 1.22000   1
  -6  -2  -7 0.82000 0.66000   1
  -6   2  -7 0.58000 0.97000   1
  -6   2  -7 1.60000 1.04000   1
  -6   2  -7 0.82000 0.67000   1
   6  -2   7 0.90000 1.50000   1
  -6   2  -7 1.86000 0.50000   1
  11   0  -6 22.7200 2.63000   1
 -11   0   6 23.2300 2.52000   1
  11   0  -6 19.0800 3.18000   1
  11   0  -4 5.44000 1.42000   1
 -11   0   4 5.16000 2.00000   1
  11   0  -4 2.22000 1.43000   1
  11   0  -4 2.84000 0.62000   1
   7   1 -14 11.0500 1.72000   1
   7  -1 -14 10.9600 2.10000   1
   7   1 -14 13.4300 2.68000   1
  -7   1  14 13.2700 2.07000   1
   7  -1 -14 10.8900 1.78000   1
   7  -3  -4 0.66000 1.46000   1
  -7  -3   4 0.63000 1.05000   1
  -7   3   4 -0.6200 1.35000   1
   7   3  -4 0.67000 1.68000   1
   7   3  -4 0.17000 0.94000   1
   7   3  -4 -0.3900 1.37000   1
   7   3  -4 -0.0900 1.26000   1
   7  -3  -2 -0.7600 1.59000   1
  -7   3   2 -0.1300 1.44000   1
  -7  -3   2 0.85000 1.46000   1
   7   3  -2 1.81000 1.37000   1
   7   3  -2 1.73000 1.41000   1
   7   3  -2 0.77000 1.39000   1
  -2   3  10 0.67000 1.61000   1
  -2  -3  10 0.32000 0.52000   1
   2   3 -10 0.68000 3.31000   1
   2   3 -10 0.40000 1.21000   1
  -2   3  10 1.43000 1.48000   1
   5  -3  -9 0.96000 1.24000   1
   5   3  -9 0.02000 0.43000   1
   5   3  -9 0.11000 1.22000   1
   5   3  -9 -1.9100 2.24000   1
   5   3  -9 -0.4600 1.17000   1
  -5   3   9 0.05000 0.70000   1
  -5   3   9 0.45000 1.01000   1
  -5   3   9 -0.0900 1.06000   1
   2   1 -15 -0.5000 2.09000   1
   2   1 -15 -0.0200 0.27000   1
   2   1 -15 -0.0100 0.18000   1
  -2   1  15 0.12000 0.36000   1
  -2   1  15 0.56000 0.80000   1
  -2  -1  15 0.24000 0.28000   1
  -2  -1  15 -0.1500 0.28000   1
  -2   1  15 -0.1600 1.27000   1
  -2  -1  15 -0.0600 1.02000   1
  -2  -1  15 0.33000 0.81000   1
   2  -1 -15 0.22000 0.50000   1
  10   0 -11 -0.0200 1.35000   1
  10   0 -11 -0.5900 0.97000   1
  -4  -3  -6 -0.0300 2.60000   1
   4   3   6 2.33000 1.78000   1
   4   3   6 0.71000 1.38000   1
  -4  -3  -6 1.59000 0.74000   1
   4  -3   6 0.13000 0.91000   1
   4  -3   6 1.11000 0.71000   1
  -4   3  -6 0.67000 0.72000   1
  -4   3  -6 0.56000 4.14000   1
  -4   3  -6 1.57000 1.15000   1
  -3   3  10 1.63000 1.46000   1
  -3   3  10 0.60000 0.57000   1
  -3   3  10 2.16000 1.80000   1
   3   3 -10 1.68000 1.17000   1
   3   3 -10 3.17000 1.29000   1
   3   3 -10 3.52000 3.30000   1
   9   2   0 0.97000 1.03000   1
   9   2   0 1.46000 1.37000   1
   9   2   0 -0.2800 0.94000   1
   9  -2   0 0.93000 0.65000   1
  -9  -2   0 0.25000 1.26000   1
  -9   2   0 -0.0600 0.98000   1
  -9   2   0 1.39000 1.26000   1
   9  -2   0 0.90000 1.05000   1
  -5  -1  15 1.86000 0.98000   1
   5  -1 -15 3.28000 1.28000   1
   5  -1 -15 4.05000 0.80000   1
   5   1 -15 2.57000 0.61000   1
   5   1 -15 0.97000 0.76000   1
   5   1 -15 2.00000 1.56000   1
  -5   1  15 1.21000 0.78000   1
  -5   1  15 2.23000 1.54000   1
  -5   1  15 2.43000 1.82000   1
  -4   0 -12 2.36000 0.38000   1
  -4   0 -12 2.06000 2.00000   1
  -4   0 -12 3.52000 0.99000   1
  -4   0 -12 4.67000 2.66000   1
   4   0  12 1.75000 0.46000   1
  11   0  -7 1.03000 1.55000   1
  11   0  -7 0.36000 1.34000   1
 -11   0   7 0.85000 1.51000   1
   7   3  -5 -1.2400 1.62000   1
   7  -3  -5 0.61000 1.38000   1
   7   3  -5 0.65000 1.13000   1
   7   3  -5 0.58000 0.83000   1
  -7  -3   5 -0.1700 0.87000   1
  -7   3   5 -0.1600 1.27000   1
   7   3  -5 -0.0800 0.79000   1
   8   0 -14 7.86000 1.62000   1
  -8   0  14 8.71000 1.88000   1
   8   0 -14 8.45000 1.97000   1
   9  -1 -12 10.7400 2.21000   1
   9   1 -12 10.4600 2.48000   1
   9  -1 -12 11.3500 1.95000   1
   9   1 -12 13.4800 2.11000   1
  -9   1  12 14.5700 2.28000   1
  -1   3  -9 0.09000 0.92000   1
   1  -3   9 0.11000 0.43000   1
   1   3   9 0.64000 1.53000   1
  -1   3  -9 0.16000 2.76000   1
 -11   0   3 -0.7800 1.54000   1
  11   0  -3 0.10000 1.34000   1
  -6  -3   8 1.49000 0.75000   1
   6   3  -8 0.69000 1.39000   1
   6  -3  -8 0.87000 1.59000   1
   6   3  -8 1.84000 0.83000   1
   6   3  -8 2.78000 2.23000   1
  -6   3   8 1.12000 1.65000   1
  -6   3   8 0.62000 0.90000   1
   6   3  -8 0.24000 1.28000   1
  -5   0 -11 0.18000 0.41000   1
   5   0  11 1.05000 0.59000   1
  -5   0 -11 1.26000 1.73000   1
  -5   0 -11 0.65000 0.44000   1
  -5   0 -11 0.12000 1.22000   1
   7  -2 -12 6.59000 1.72000   1
   7   2 -12 8.46000 1.13000   1
  -7   2  12 8.47000 2.15000   1
  -7   2  12 2.59000 1.46000   1
   7  -2 -12 5.16000 1.37000   1
   7   2 -12 6.46000 1.64000   1
   7   2 -12 8.30000 2.48000   1
  -1  -3  10 2.32000 0.73000   1
  -1   3  10 4.08000 2.07000   1
  -1   3  10 6.74000 1.87000   1
  -1  -3  10 2.83000 0.51000   1
   1   3 -10 4.58000 1.23000   1
   1   3 -10 5.93000 4.70000   1
  10  -1 -10 16.5900 2.74000   1
  10   1 -10 18.8600 3.11000   1
  10  -1 -10 19.3400 2.39000   1
 -10   1  10 19.7800 3.13000   1
 -10  -1  10 25.4200 2.88000   1
  10   1 -10 24.8600 3.37000   1
   7   3  -1 0.57000 1.26000   1
   7   3  -1 0.81000 1.27000   1
  -7  -3   1 0.92000 1.18000   1
   7  -3  -1 1.00000 1.33000   1
  -7   3   1 -0.7300 1.28000   1
  -7  -3   1 2.04000 1.49000   1
   7   3  -1 0.93000 1.44000   1
  -3   0 -13 0.93000 2.03000   1
  -3   0 -13 -0.0200 1.65000   1
 -10   0  -2 1.08000 1.74000   1
  10   0   2 2.98000 1.67000   1
  -8   1  -6 2.79000 1.55000   1
  -8   1  -6 0.29000 0.73000   1
   8   1   6 1.94000 1.68000   1
  -8   1  -6 1.25000 0.77000   1
   8  -1   6 1.23000 1.25000   1
  -8  -1  -6 1.68000 1.87000   1
   9   0 -13 -0.0800 1.30000   1
   9   0 -13 -0.3600 1.03000   1
   4   3 -10 3.21000 2.39000   1
  -4   3  10 1.36000 1.63000   1
  -4   3  10 0.59000 0.77000   1
  -4   3  10 2.20000 2.01000   1
  -4   3  10 5.85000 1.52000   1
   4   3 -10 3.72000 1.51000   1
   4   3 -10 3.17000 1.60000   1
   0   0  15 -0.6800 1.23000   1
   0   0  15 0.07000 0.34000   1
   0   0 -15 -1.1200 1.48000   1
   7   3  -6 0.14000 1.70000   1
  -7  -3   6 0.56000 0.97000   1
   7   3  -6 -0.6600 1.75000   1
   7   3  -6 0.90000 0.99000   1
   7  -3  -6 0.30000 1.45000   1
   7   3  -6 0.60000 1.22000   1
  -7   3   6 0.33000 1.14000   1
 -10   1  -1 -0.2400 1.31000   1
 -10  -1  -1 -0.2300 1.12000   1
  10   1   1 1.36000 1.37000   1
  10  -1   1 -0.6500 1.26000   1
  -1   1 -14 15.8100 4.11000   1
   1   1  14 12.4300 2.35000   1
   1  -1  14 10.6200 1.65000   1
  -1   1 -14 10.4800 1.99000   1
  -1  -1 -14 11.9900 3.25000   1
 -11   0   8 30.8600 3.41000   1
  11   0  -8 31.5500 3.45000   1
  11   0  -8 30.3700 3.78000   1
   8  -2 -11 0.99000 1.20000   1
   8   2 -11 -0.1100 1.37000   1
   8   2 -11 0.05000 0.64000   1
  -8   2  11 0.26000 1.07000   1
   8   2 -11 0.05000 1.04000   1
  -9   1  -4 2.83000 1.47000   1
  -9  -1  -4 1.39000 0.50000   1
  -9   1  -4 1.09000 1.07000   1
  -9  -1  -4 2.35000 2.02000   1
   9  -1   4 2.44000 1.43000   1
   9   1   4 0.66000 1.60000   1
   7   0 -15 0.13000 0.76000   1
   7   0 -15 0.38000 1.29000   1
  -7   0  15 0.33000 0.56000   1
  -7   0  15 -0.9600 1.00000   1
   9  -2  -9 13.1100 2.48000   1
   9   2  -9 11.3000 2.27000   1
  -9   2   9 12.9200 2.12000   1
  -9  -2   9 11.1300 1.89000   1
   9   2  -9 11.0500 2.84000   1
 -11   0   2 3.47000 2.01000   1
  11   0  -2 1.88000 1.78000   1
   0   2 -13 -0.1000 0.44000   1
   0   2 -13 0.94000 2.98000   1
   0   2 -13 0.39000 0.79000   1
   0   2  13 0.71000 0.51000   1
   0   2  13 0.47000 1.19000   1
   0  -2  13 -0.6600 0.70000   1
   0   2  13 0.97000 1.02000   1
  -4  -2 -10 2.90000 2.33000   1
  -4   2 -10 -1.6400 3.60000   1
  -4   2 -10 0.64000 0.72000   1
  -4  -2 -10 0.36000 0.43000   1
  -4   2 -10 0.03000 0.55000   1
   4   2  10 -0.6800 0.91000   1
   4   2  10 0.71000 1.46000   1
  -4   2 -10 -0.2300 0.43000   1
   6  -2 -13 -0.4900 0.92000   1
   6   2 -13 -0.4500 0.79000   1
  -6   2  13 0.04000 1.05000   1
  -6   2  13 -0.3000 1.27000   1
   6   2 -13 0.14000 0.49000   1
   6  -2 -13 0.13000 0.64000   1
   6   2 -13 -0.3800 1.98000   1
   3   2  11 1.22000 1.26000   1
  -3   2 -11 1.30000 0.75000   1
  -3   2 -11 1.45000 0.60000   1
  -3  -2 -11 4.62000 2.52000   1
  -3  -2 -11 0.35000 0.29000   1
   3   2  11 0.75000 0.82000   1
  -3   2 -11 -2.7000 2.69000   1
  -3  -2 -11 2.11000 1.08000   1
   1  -1 -15 0.05000 0.88000   1
  -1   1  15 0.27000 0.84000   1
  -1  -1  15 1.04000 0.90000   1
  -1   1  15 -0.0200 0.08000   1
  -1   1  15 -0.0200 0.17000   1
  -1   1  15 0.72000 1.27000   1
   1   1 -15 -0.3900 1.18000   1
   1   1 -15 0.10000 2.68000   1
   1  -1 -15 -0.9200 0.49000   1
  -6  -3  -3 1.53000 1.55000   1
  -6   3  -3 2.37000 0.99000   1
  -6   3  -3 3.38000 1.20000   1
  -6  -3  -3 -1.3400 2.32000   1
   6   3   3 0.39000 1.38000   1
   6   3   3 2.63000 1.91000   1
   6   3   3 2.16000 1.54000   1
   6  -3   3 2.04000 1.28000   1
   6  -3   3 1.05000 1.08000   1
  -6  -3  -3 1.34000 1.06000   1
   6   0  10 -0.0100 0.75000   1
  -6   0 -10 1.01000 0.57000   1
  -6   0 -10 -0.3700 0.40000   1
  -6   0 -10 1.41000 1.54000   1
  -5   3  -5 0.51000 2.28000   1
  -5  -3  -5 1.45000 2.23000   1
  -5  -3  -5 0.12000 0.91000   1
   5   3   5 0.29000 0.84000   1
  -5   3  -5 0.57000 0.66000   1
  -5   3  -5 -0.7700 1.13000   1
   5  -3   5 -0.3700 0.70000   1
   5   3   5 2.70000 1.33000   1
   5  -3   5 0.45000 1.21000   1
   5   3   5 -0.2600 1.18000   1
   7  -3   0 -0.0600 1.53000   1
  -7  -3   0 1.44000 1.64000   1
  -7  -3   0 1.75000 1.25000   1
  -7   3   0 1.87000 1.30000   1
   7   3   0 2.72000 1.36000   1
   7  -3   0 0.13000 1.31000   1
   7   3   0 1.05000 1.40000   1
   7   3   0 0.15000 1.79000   1
   6   1 -15 0.48000 0.77000   1
   6   1 -15 1.17000 1.76000   1
   6  -1 -15 0.09000 0.83000   1
  -6   1  15 1.50000 0.66000   1
  -6  -1  15 0.44000 0.88000   1
  -6   1  15 0.17000 1.14000   1
   6  -1 -15 0.36000 1.03000   1
  -7   1  -8 1.88000 1.43000   1
   7   1   8 0.72000 1.15000   1
   7  -1   8 1.35000 1.05000   1
  -7  -1  -8 0.87000 0.77000   1
  -7   1  -8 0.59000 0.75000   1
  -7   1  -8 0.33000 0.67000   1
  -7   1  -8 0.36000 0.79000   1
  -7  -1  -8 1.84000 2.26000   1
  -4   0  16 1.51000 0.77000   1
   4   0 -16 2.18000 1.38000   1
  -4   0  16 0.87000 0.47000   1
   4   0 -16 1.04000 0.54000   1
  -9   0  -5 0.77000 1.55000   1
   9   0   5 -0.2200 1.13000   1
  -8   0  -7 -0.2500 0.67000   1
  -8   0  -7 0.41000 1.55000   1
   9  -2   1 0.80000 1.52000   1
  -9  -2  -1 1.57000 1.89000   1
  -9   2  -1 0.44000 0.95000   1
  -9   2  -1 1.92000 1.30000   1
   9   2   1 0.80000 1.35000   1
   9   2   1 1.19000 1.38000   1
   9   2   1 -1.2400 1.42000   1
  -3   0  16 4.88000 1.68000   1
  -3   0  16 2.06000 0.89000   1
   3   0 -16 4.15000 1.48000   1
   0   3  10 0.23000 1.08000   1
   0   3  10 0.29000 1.18000   1
   0  -3  10 0.58000 0.52000   1
   0   3 -10 0.00000 0.83000   1
   0   3 -10 2.38000 3.69000   1
  -2   0 -14 3.41000 2.23000   1
  -2   0 -14 7.19000 2.02000   1
   2   0  14 3.36000 1.13000   1
  -5   2  -9 11.4500 2.69000   1
  -5   2  -9 5.08000 0.89000   1
  -5  -2  -9 4.56000 3.10000   1
  -5  -2  -9 2.64000 0.88000   1
  -5   2  -9 7.05000 1.26000   1
  -5   2  -9 5.38000 0.98000   1
   5  -2   9 7.52000 1.49000   1
   5   2   9 3.80000 1.68000   1
   5  -2   9 3.06000 1.40000   1
   5   2   9 5.31000 1.38000   1
  -5   2  -9 4.22000 0.94000   1
   0   4   0 -1.6000 2.33000   1
   0   4   0 -0.5700 1.59000   1
   0  -4   0 2.21000 1.88000   1
   7   2   6 0.68000 1.48000   1
   7  -2   6 2.19000 1.27000   1
  -7   2  -6 1.55000 1.27000   1
  -7  -2  -6 1.42000 2.53000   1
  -7  -2  -6 0.80000 0.76000   1
  -7   2  -6 1.53000 0.84000   1
   7   2   6 1.21000 1.31000   1
  11   1  -5 1.41000 1.25000   1
  11  -1  -5 0.01000 1.13000   1
  11   1  -5 0.27000 0.58000   1
 -11  -1   5 2.63000 1.57000   1
 -11   1   5 0.46000 1.35000   1
 -11   1   5 3.36000 1.17000   1
  11   1  -5 0.48000 1.24000   1
  -8  -2  -4 1.65000 1.24000   1
  -8   2  -4 4.89000 1.16000   1
  -8  -2  -4 3.04000 2.63000   1
   8   2   4 2.37000 1.67000   1
   8  -2   4 4.76000 1.69000   1
   8   2   4 3.99000 1.82000   1
  -8   2  -4 6.01000 1.46000   1
   0   4   1 -1.0700 1.92000   1
   0  -4  -1 2.10000 1.52000   1
   0  -4   1 0.03000 1.44000   1
   0   4  -1 -1.7900 3.49000   1
   0   4   1 -0.6500 1.76000   1
   0   4  -1 0.61000 1.59000   1
   7   3  -7 -0.9300 1.46000   1
  -7   3   7 0.04000 1.44000   1
  -7  -3   7 -0.4300 0.72000   1
   7   3  -7 1.31000 1.87000   1
   7  -3  -7 0.50000 0.98000   1
   7   3  -7 0.57000 0.87000   1
   7   3  -7 0.32000 0.93000   1
   2   2  12 1.69000 1.40000   1
  -2   2 -12 -1.3100 3.37000   1
   2   2  12 -0.0200 0.47000   1
  -2  -2 -12 0.35000 0.24000   1
  -2  -2 -12 -0.3300 0.66000   1
  -2   2 -12 0.37000 0.49000   1
  -2  -2 -12 -1.4100 2.43000   1
  -2   2 -12 0.25000 0.89000   1
   2   2  12 0.03000 0.70000   1
  -5   0  16 26.8700 2.51000   1
   5   0 -16 30.8500 3.45000   1
 -11   1   6 13.1600 2.26000   1
  11   1  -6 8.61000 1.39000   1
  11  -1  -6 10.5000 1.83000   1
  11   1  -6 9.90000 2.70000   1
  11   1  -6 9.19000 1.83000   1
 -11  -1   6 13.7500 2.36000   1
 -11   1   6 16.4200 2.53000   1
 -11   0   9 0.15000 1.59000   1
  11   0  -9 -0.6700 1.52000   1
  11   0  -9 -2.3200 1.50000   1
  11   1  -4 6.10000 1.68000   1
  11   1  -4 4.61000 1.44000   1
 -11  -1   4 5.76000 1.54000   1
 -11   1   4 4.89000 1.59000   1
 -11   1   4 5.87000 1.26000   1
  11  -1  -4 3.18000 1.44000   1
   1   4   0 0.96000 2.32000   1
  -1  -4   0 0.12000 1.36000   1
   1   4   0 -0.4800 1.35000   1
   1  -4   0 1.67000 1.94000   1
  -1  -4   0 0.47000 0.51000   1
  -1   4   0 1.85000 2.28000   1
  -1  -4   0 1.12000 1.39000   1
  -1   4   0 -0.5700 1.60000   1
   1  -4  -1 1.03000 2.03000   1
  -1  -4   1 0.17000 1.42000   1
  -1   4   1 3.11000 2.20000   1
  -1  -4   1 1.83000 2.05000   1
  -1  -4   1 0.40000 0.47000   1
   1   4  -1 -0.2700 1.21000   1
   1   4  -1 0.07000 2.09000   1
  -1   4   1 -1.2100 1.70000   1
  -3  -2  14 4.06000 0.92000   1
  -3   2  14 7.24000 1.97000   1
  -3   2  14 4.43000 1.21000   1
  -3   2  14 6.96000 1.19000   1
   3   2 -14 5.84000 0.72000   1
   3   2 -14 9.90000 3.45000   1
   3   2 -14 9.01000 1.37000   1
   3  -2 -14 5.08000 0.98000   1
  -3   2  14 10.6700 2.28000   1
  -6   3   9 1.10000 1.02000   1
  -6  -3   9 -0.0300 0.61000   1
   6   3  -9 -1.2000 2.16000   1
   6   3  -9 0.56000 0.63000   1
   6  -3  -9 0.91000 1.33000   1
   6   3  -9 -0.2900 1.19000   1
   6   3  -9 0.99000 1.44000   1
  -6   3   9 -0.0600 0.81000   1
 -11   0   1 2.03000 1.70000   1
  11   0  -1 0.71000 1.13000   1
  10   0 -12 11.0000 2.10000   1
  10   0 -12 10.5300 2.01000   1
  -5   3  10 0.23000 0.72000   1
  -5   3  10 0.98000 1.67000   1
  -5   3  10 2.09000 1.38000   1
   5   3 -10 1.69000 1.23000   1
   5   3 -10 0.82000 2.64000   1
   5  -3 -10 1.91000 1.38000   1
   5   3 -10 0.53000 1.40000   1
   4   2 -14 0.47000 2.31000   1
   4  -2 -14 0.32000 0.60000   1
   4  -2 -14 2.03000 1.04000   1
   4   2 -14 0.89000 0.77000   1
  -4   2  14 -0.4600 1.57000   1
   4   2 -14 0.63000 0.43000   1
  -4   2  14 0.70000 0.74000   1
  -4   2  14 -0.6700 1.12000   1
  -4  -2  14 0.09000 0.61000   1
  -4   2  14 0.19000 1.27000   1
   3  -3   8 0.66000 0.54000   1
   3  -3   8 0.20000 0.79000   1
  -3   3  -8 0.28000 0.54000   1
  -3   3  -8 2.85000 4.24000   1
   3   3   8 0.86000 1.18000   1
  -3  -3  -8 0.70000 2.67000   1
  -3   3  -8 0.58000 1.05000   1
 -10   1  11 1.99000 1.06000   1
  10   1 -11 -0.8500 1.56000   1
  10  -1 -11 0.71000 0.97000   1
  10  -1 -11 0.05000 0.93000   1
 -10  -1  11 0.35000 1.29000   1
  10   1 -11 0.01000 1.18000   1
   2   0 -16 21.9300 2.57000   1
  -2   0  16 25.0300 2.77000   1
   1  -4   1 -0.4700 1.44000   1
  -1  -4  -1 0.03000 1.77000   1
  -1  -4  -1 -0.1000 0.42000   1
   1   4   1 2.81000 1.88000   1
  -1   4  -1 0.73000 2.47000   1
   1  -4   1 0.57000 0.50000   1
  -1  -4  -1 2.64000 1.41000   1
   1   4   1 -0.2500 1.70000   1
  -1   4  -1 0.56000 1.55000   1
   0   4   2 -0.4500 1.79000   1
   0  -4   2 0.62000 1.90000   1
   0   4  -2 0.95000 1.50000   1
   0   4  -2 -0.5800 2.78000   1
   0   4   2 0.16000 1.70000   1
  -4  -1 -12 17.1700 3.33000   1
  -4  -1 -12 10.1400 1.41000   1
  -4  -1 -12 16.3300 2.82000   1
  -4   1 -12 15.7900 1.95000   1
  -4   1 -12 10.4100 4.79000   1
  -4   1 -12 15.4300 2.14000   1
   4   1  12 13.8400 1.88000   1
  -1  -4   2 1.39000 1.15000   1
  -1   4   2 -0.9400 1.56000   1
  -1  -4   2 -0.7600 1.41000   1
   1   4  -2 0.20000 2.77000   1
   1   4  -2 -0.4600 1.53000   1
  -1  -4   2 0.18000 0.37000   1
  -1   4   2 -1.8100 1.82000   1
  11   1  -7 0.15000 1.33000   1
  11   1  -7 0.21000 0.44000   1
  11  -1  -7 0.48000 0.98000   1
  11   1  -7 2.18000 1.58000   1
 -11  -1   7 1.51000 1.36000   1
 -11   1   7 2.31000 1.45000   1
 -11   1   7 -0.7000 1.43000   1
  -8   1  14 12.6300 2.05000   1
   8   1 -14 7.59000 1.93000   1
   8  -1 -14 9.27000 1.58000   1
   8   1 -14 11.5000 2.00000   1
   8  -1 -14 6.04000 1.73000   1
  -2   3  -9 3.71000 4.00000   1
  -2  -3  -9 1.36000 0.68000   1
  -2   3  -9 1.57000 0.83000   1
  -2  -3  -9 3.31000 2.03000   1
   2   3   9 -0.2100 1.70000   1
   2  -3   9 0.16000 0.59000   1
  -7   3  -1 2.39000 1.23000   1
   7  -3   1 0.34000 1.21000   1
   7   3   1 0.47000 1.19000   1
   7   3   1 0.42000 1.67000   1
  -7  -3  -1 0.59000 1.92000   1
  -7  -3  -1 1.87000 1.22000   1
   7   3   1 0.99000 1.44000   1
   7  -3   1 0.96000 1.60000   1
 -11   1   3 1.23000 1.18000   1
 -11  -1   3 1.50000 1.18000   1
  11  -1  -3 1.17000 1.60000   1
 -11   1   3 1.03000 1.21000   1
  11   1  -3 1.19000 1.30000   1
  11   1  -3 2.41000 1.77000   1
  -2   2  14 10.1700 1.39000   1
  -2  -2  14 13.0400 1.61000   1
   2   2 -14 14.0400 1.72000   1
   2   2 -14 12.0700 1.75000   1
   2   2 -14 20.0500 4.63000   1
  -2   2  14 21.0400 2.71000   1
  -2   2  14 14.8600 2.27000   1
   5  -1  11 0.06000 0.61000   1
   5   1  11 0.45000 0.93000   1
  -5   1 -11 -0.1500 0.20000   1
   5   1  11 0.16000 0.65000   1
  -5   1 -11 0.67000 1.05000   1
  -5  -1 -11 -0.2500 1.94000   1
  -5   1 -11 1.09000 1.79000   1
  -5  -1 -11 -0.1500 0.58000   1
  -5   1 -11 0.10000 0.44000   1
  -4  -3  -7 1.30000 1.87000   1
  -4   3  -7 0.18000 0.48000   1
  -4   3  -7 0.09000 3.84000   1
   4   3   7 -0.1400 1.24000   1
   4   3   7 0.03000 1.64000   1
   4  -3   7 -0.1300 0.62000   1
  -4  -3  -7 0.38000 0.61000   1
   4  -3   7 1.08000 0.86000   1
  -9   2  10 1.40000 1.70000   1
   9  -2 -10 1.04000 1.43000   1
   9   2 -10 1.80000 1.43000   1
   9   2 -10 3.15000 2.07000   1
  -9  -2  10 0.66000 1.15000   1
  10   2  -5 2.66000 1.92000   1
  10  -2  -5 2.34000 1.74000   1
  10   2  -5 1.91000 1.16000   1
 -10   2   5 4.84000 1.33000   1
 -10  -2   5 3.21000 1.68000   1
 -10   2   5 5.79000 1.56000   1
 -10   2   4 4.85000 1.75000   1
  10   2  -4 4.77000 1.48000   1
  10  -2  -4 6.44000 2.21000   1
 -10  -2   4 4.68000 1.84000   1
  10   2  -4 2.58000 2.13000   1
 -10   2   4 8.37000 1.60000   1
 -10   0  -3 -0.0200 1.12000   1
  10   0   3 -0.6800 1.39000   1
   3   1  13 -0.1000 0.67000   1
  -3  -1 -13 -0.0500 1.56000   1
  -3  -1 -13 2.09000 1.52000   1
  -3   1 -13 -0.8300 2.61000   1
  -3  -1 -13 -0.1700 0.46000   1
  -3   1 -13 0.04000 0.20000   1
  -3   1 -13 0.11000 0.99000   1
   3   1  13 -0.0200 0.29000   1
   3   1  13 0.30000 0.41000   1
  -7   0  -9 0.01000 0.57000   1
  -7   0  -9 0.92000 0.47000   1
  -7   0  -9 -0.8100 1.63000   1
   7   0   9 -0.6200 1.03000   1
 -10   1  -2 8.46000 1.73000   1
 -10  -1  -2 7.89000 2.60000   1
  10  -1   2 5.29000 2.17000   1
  10   1   2 5.30000 2.11000   1
  -9   1  13 8.51000 1.97000   1
   9   1 -13 6.26000 1.62000   1
   9  -1 -13 7.81000 1.64000   1
   9   1 -13 3.66000 2.22000   1
   9  -1 -13 5.01000 1.75000   1
  -2   4   1 2.08000 1.51000   1
   2  -4  -1 0.81000 0.51000   1
   2   4  -1 -1.8500 1.85000   1
   2   4  -1 -0.5100 1.60000   1
   2  -4  -1 0.89000 1.95000   1
  -2   4   1 1.83000 3.05000   1
  -2  -4   1 -0.3100 1.29000   1
  -2  -4   1 2.17000 1.29000   1
  -2  -4   1 0.17000 0.42000   1
  -6   2  -8 1.35000 1.17000   1
   6  -2   8 -0.2400 1.10000   1
   6   2   8 1.12000 1.03000   1
   6   2   8 0.53000 1.28000   1
  -6  -2  -8 -0.0800 0.65000   1
  -6   2  -8 0.17000 0.49000   1
  -6  -2  -8 0.13000 2.31000   1
  -6   2  -8 0.77000 0.39000   1
  -3   3  11 0.29000 1.20000   1
  -3   3  11 -0.3100 1.40000   1
  -3  -3  11 0.23000 0.50000   1
   3   3 -11 -0.2500 1.11000   1
   3   3 -11 -0.1100 2.20000   1
   3   3 -11 0.19000 1.27000   1
  -2   3  11 -0.3100 1.45000   1
  -2   3  11 0.37000 0.96000   1
   2   3 -11 -1.6100 2.35000   1
   2   3 -11 -0.0300 0.86000   1
  -2  -3  11 0.24000 0.47000   1
  -1   4  -2 0.36000 1.53000   1
  -1   4  -2 -0.1200 2.77000   1
   1   4   2 1.63000 1.75000   1
   1  -4   2 0.20000 0.49000   1
   1   4   2 0.09000 1.86000   1
   1  -4   2 0.55000 1.90000   1
  -2  -4   0 0.64000 0.60000   1
  -2  -4   0 -0.8200 1.54000   1
  -2   4   0 1.00000 1.61000   1
  -2   4   0 3.26000 2.75000   1
   2   4   0 1.87000 1.63000   1
   2  -4   0 0.48000 0.52000   1
   2   4   0 1.57000 1.78000   1
   2  -4   0 0.20000 2.02000   1
  -2  -4   0 4.04000 1.96000   1
 -10   2   6 1.20000 1.14000   1
  10   2  -6 1.07000 1.47000   1
 -10  -2   6 2.19000 1.41000   1
  10  -2  -6 0.95000 1.55000   1
  10   2  -6 0.88000 1.66000   1
  -1   4   3 -0.3400 1.71000   1
   1   4  -3 -0.0300 2.39000   1
  -1  -4   3 -0.0500 0.34000   1
  -1  -4   3 1.12000 0.94000   1
  -1  -4   3 0.12000 1.79000   1
  -1   4   3 0.46000 1.92000   1
   1   4  -3 0.99000 1.45000   1
   2   4  -2 -0.7500 1.63000   1
  -2   4   2 -1.7900 1.49000   1
  -2   4   2 0.09000 2.81000   1
  -2  -4   2 1.46000 1.01000   1
  -2  -4   2 -1.6700 1.79000   1
  -2  -4   2 0.48000 0.48000   1
   2   4  -2 0.90000 2.01000   1
  -5   2  14 -1.5100 1.23000   1
  -5   2  14 0.46000 1.11000   1
  -5  -2  14 -0.0300 0.72000   1
  -5   2  14 0.39000 0.94000   1
   5  -2 -14 -0.0800 0.69000   1
   5   2 -14 0.72000 0.42000   1
   5   2 -14 0.17000 0.78000   1
   5  -2 -14 0.53000 0.90000   1
   5   2 -14 1.53000 1.49000   1
   0   1  15 1.28000 0.83000   1
   0  -1  15 1.02000 1.10000   1
   0  -1 -15 1.82000 1.39000   1
   0   1 -15 2.23000 1.67000   1
   0   1 -15 1.71000 2.75000   1
   0   1  15 1.79000 1.65000   1
   0  -1 -15 1.43000 0.60000   1
   6   0 -16 0.35000 1.59000   1
  -6   0  16 3.25000 1.12000   1
  -6   0  16 1.68000 0.76000   1
   6   0 -16 2.65000 0.80000   1
  10   2  -3 0.80000 1.23000   1
 -10   2   3 1.34000 1.12000   1
 -10   2   3 0.91000 1.39000   1
 -10  -2   3 2.96000 1.71000   1
  10   2  -3 1.94000 1.33000   1
  10  -2  -3 2.24000 1.74000   1
   0  -4   3 0.48000 0.83000   1
   0   4   3 -0.0400 1.70000   1
   0  -4   3 -0.0900 0.40000   1
   0  -4   3 1.65000 1.76000   1
   0   4   3 -0.6900 1.64000   1
   0   4  -3 0.79000 1.44000   1
   0   4  -3 -0.4600 2.84000   1
 -11  -1   8 0.29000 1.34000   1
 -11   1   8 2.60000 1.39000   1
 -11   1   8 2.92000 1.61000   1
  11  -1  -8 -0.5100 1.09000   1
  11   1  -8 0.02000 1.25000   1
  11   1  -8 0.77000 1.34000   1
  11  -1  -8 1.25000 1.42000   1
  -6   3  -4 3.95000 1.27000   1
  -6  -3  -4 0.62000 1.34000   1
  -6   3  -4 9.52000 3.21000   1
   6   3   4 1.51000 1.20000   1
   6  -3   4 2.18000 1.01000   1
   6   3   4 2.77000 2.22000   1
   6  -3   4 4.07000 2.06000   1
   6   3   4 3.98000 1.87000   1
  -6  -3  -4 4.33000 2.00000   1
  -6   3  -4 1.62000 1.44000   1
   7   3  -8 4.65000 1.71000   1
   7   3  -8 2.64000 1.15000   1
   7   3  -8 2.78000 2.10000   1
   7   3  -8 6.26000 2.68000   1
   7  -3  -8 2.32000 2.04000   1
  -7   3   8 5.87000 1.58000   1
  -7  -3   8 2.58000 1.01000   1
  -7   1  15 0.15000 1.17000   1
   7   1 -15 0.34000 0.83000   1
   7   1 -15 -1.5700 1.66000   1
   7  -1 -15 0.22000 0.79000   1
  -1  -2 -13 0.24000 0.38000   1
  -1   2 -13 1.37000 2.56000   1
   1   2  13 -0.2900 1.18000   1
  -1   2 -13 0.41000 0.49000   1
  -1  -2 -13 0.38000 0.36000   1
  -1   2 -13 0.40000 0.87000   1
   1  -2  13 -0.0400 0.49000   1
   1   2  13 0.48000 0.53000   1
   1   2  13 1.51000 1.43000   1
   1   0  15 -0.1200 1.12000   1
  -1   0 -15 -0.0900 1.76000   1
  -1   0 -15 0.47000 1.46000   1
  -9  -2  -2 0.59000 0.72000   1
   9  -2   2 0.43000 1.43000   1
   9   2   2 1.49000 1.23000   1
   9   2   2 0.52000 1.38000   1
   9   2   2 1.00000 1.47000   1
  -9   2  -2 0.71000 0.92000   1
  -9   2  -2 0.51000 1.24000   1
  -9  -2  -2 0.40000 1.94000   1
  11  -1  -2 1.78000 1.85000   1
  11   1  -2 4.09000 1.89000   1
  11   1  -2 1.37000 1.91000   1
 -11  -1   2 3.95000 1.38000   1
 -11   1   2 3.46000 1.38000   1
 -11   1   2 7.34000 1.90000   1
   7  -2 -13 3.17000 1.27000   1
  -7   2  13 2.16000 1.29000   1
   7   2 -13 2.97000 0.68000   1
  -7   2  13 4.32000 1.69000   1
   7   2 -13 1.89000 1.56000   1
   7   2 -13 4.30000 2.50000   1
   7  -2 -13 3.58000 1.32000   1
  -1   3 -10 0.61000 4.60000   1
   1   3  10 0.56000 1.40000   1
   1  -3  10 1.66000 0.60000   1
  -1   3 -10 1.85000 1.12000   1
 -11   0  10 51.9600 4.79000   1
  11   0 -10 41.9400 4.79000   1
  11   0 -10 42.2800 4.61000   1
  -8   2  12 9.93000 2.43000   1
   8   2 -12 13.7800 2.83000   1
   8   2 -12 9.05000 2.06000   1
   8  -2 -12 12.5900 2.12000   1
   8   2 -12 9.51000 1.39000   1
  -2   4  -1 4.18000 3.47000   1
  -2   4  -1 0.09000 1.08000   1
  -2  -4  -1 -1.2600 1.77000   1
  -2  -4  -1 -1.2800 1.89000   1
   2  -4   1 -0.0100 0.53000   1
   2  -4   1 0.07000 1.30000   1
   2   4   1 0.14000 1.26000   1
   2   4   1 -0.7700 1.27000   1
   9   0 -14 5.11000 1.42000   1
   9   0 -14 6.03000 1.53000   1
  -9   0  14 5.82000 1.72000   1
  -6   1 -10 0.63000 0.49000   1
   6   1  10 0.38000 0.90000   1
  -6   1 -10 1.60000 1.38000   1
  -6   1 -10 1.79000 0.52000   1
  -6   1 -10 0.61000 0.61000   1
  -6  -1 -10 0.42000 0.69000   1
  -6  -1 -10 1.48000 2.03000   1
  -4   3  11 0.14000 1.53000   1
  -4   3  11 -0.3800 1.21000   1
  -4   3  11 0.46000 0.58000   1
   4   3 -11 0.42000 1.11000   1
   4   3 -11 -3.1700 2.68000   1
   4   3 -11 0.01000 1.13000   1
  -2  -4   3 1.26000 0.93000   1
  -2  -4   3 0.31000 0.47000   1
   2   4  -3 0.13000 2.39000   1
   2   4  -3 0.22000 1.79000   1
  -2   4   3 -0.8300 2.12000   1
  -2   4   3 0.39000 1.70000   1
  -2  -4   3 2.07000 1.27000   1
  -8   0  15 0.24000 1.18000   1
   8   0 -15 0.73000 1.29000   1
   8   0 -15 0.70000 1.12000   1
  -1   3  11 -0.5700 0.91000   1
  -1   3  11 -0.7600 1.02000   1
   1   3 -11 -0.0200 0.68000   1
  -1  -3  11 0.26000 0.44000   1
   1   3 -11 -2.3500 2.63000   1
  -1  -3  11 0.10000 0.34000   1
 -10   2   7 0.72000 1.45000   1
 -10  -2   7 2.03000 1.25000   1
  10  -2  -7 1.17000 1.55000   1
  10   2  -7 0.97000 1.37000   1
  10   2  -7 1.07000 1.85000   1
  -1  -2  14 0.66000 0.80000   1
   1   2 -14 -0.1500 0.67000   1
  -1  -2  14 0.10000 0.19000   1
   1  -2 -14 0.16000 0.25000   1
  -1   2  14 0.06000 0.41000   1
  -1   2  14 -0.8300 1.10000   1
   1   2 -14 -1.9400 3.37000   1
   1   2 -14 0.64000 0.50000   1
  -1   2  14 -1.0500 1.51000   1
  11   0   0 1.56000 1.55000   1
 -11   0   0 1.20000 1.25000   1
  -1   0  16 3.96000 1.53000   1
  -1   0  16 2.41000 0.65000   1
   1   0 -16 2.47000 2.01000   1
  -4   1  16 9.28000 1.42000   1
  -4   1  16 5.77000 0.96000   1
   4   1 -16 7.66000 2.82000   1
   4   1 -16 5.97000 1.03000   1
   4  -1 -16 9.87000 1.46000   1
  -4  -1  16 7.67000 1.22000   1
   4  -1 -16 7.24000 1.12000   1
  -4   1  16 9.10000 2.13000   1
  -4   1  16 4.33000 2.15000   1
  -9   1  -5 0.53000 1.41000   1
   9  -1   5 0.25000 1.28000   1
   9   1   5 0.81000 1.29000   1
  -9   1  -5 0.35000 0.83000   1
  -9  -1  -5 0.32000 0.57000   1
  -9  -1  -5 1.93000 1.39000   1
  -8   1  -7 1.38000 1.34000   1
  -8  -1  -7 1.70000 2.05000   1
  -8   1  -7 0.44000 0.71000   1
  -8   1  -7 0.24000 0.26000   1
  -8   1  -7 1.84000 0.79000   1
   8  -1   7 1.28000 1.20000   1
   8   1   7 -0.1500 1.35000   1
   5  -3   6 -0.0100 0.53000   1
   5   3   6 -0.8700 1.32000   1
   5  -3   6 0.67000 1.24000   1
   5   3   6 0.70000 1.26000   1
  -5   3  -6 0.09000 0.65000   1
  -5   3  -6 1.74000 0.86000   1
  -5  -3  -6 2.41000 2.50000   1
  -5   3  -6 2.79000 2.40000   1
  -5  -3  -6 0.67000 0.76000   1
  -5   3  -6 -1.9300 4.21000   1
   5  -3   6 0.33000 0.90000   1
 -10   2   2 -0.2800 1.32000   1
  10   2  -2 -0.1000 1.34000   1
  10   2  -2 -1.5300 1.47000   1
  10  -2  -2 -1.3300 1.51000   1
 -10  -2   2 1.19000 1.62000   1
 -10   2   2 -0.1700 1.08000   1
  -3   1  16 3.31000 1.33000   1
  -3   1  16 1.07000 1.67000   1
  -3  -1  16 3.41000 1.26000   1
  -3  -1  16 1.64000 0.57000   1
  -3   1  16 1.82000 0.96000   1
  -3   1  16 2.25000 0.53000   1
   3   1 -16 4.31000 2.20000   1
  -2   1 -14 7.19000 1.72000   1
  -2  -1 -14 6.30000 2.39000   1
  -2   1 -14 4.10000 3.89000   1
  -2  -1 -14 8.73000 2.36000   1
   2   1  14 7.36000 1.22000   1
  -2  -1 -14 4.89000 0.70000   1
   1  -4   3 0.71000 0.52000   1
   1   4   3 1.21000 1.16000   1
   1   4   3 5.62000 1.43000   1
  -1   4  -3 0.95000 1.56000   1
   1  -4   3 -2.6400 1.93000   1
  -1   4  -3 0.22000 3.28000   1
  -8  -3   4 0.39000 1.24000   1
   8   3  -4 2.00000 1.82000   1
   8   3  -4 1.05000 1.32000   1
   8   3  -4 1.52000 1.69000   1
  -8   3   4 0.35000 1.45000   1
   8  -3  -4 2.92000 1.61000   1
  -8  -3   3 1.28000 1.47000   1
   8   3  -3 0.43000 1.60000   1
   8   3  -3 2.19000 1.52000   1
   8   3  -3 2.97000 1.72000   1
   8  -3  -3 2.16000 1.80000   1
  -8   3   3 -0.1600 1.46000   1
  -7  -3  -2 2.27000 2.28000   1
  -7   3  -2 2.39000 1.23000   1
  -7  -3  -2 1.58000 1.19000   1
   7   3   2 2.69000 1.47000   1
   7   3   2 3.85000 1.68000   1
   7   3   2 1.81000 1.70000   1
   7  -3   2 2.04000 1.85000   1
  -7  -3  -2 3.13000 1.49000   1
  -7   3  -2 1.39000 1.51000   1
  -1  -4   4 -0.3800 0.77000   1
  -1  -4   4 0.45000 0.28000   1
  -1   4   4 -0.3500 1.66000   1
  -1   4   4 -2.9500 1.49000   1
   1   4  -4 0.16000 1.30000   1
   1   4  -4 -0.7100 2.48000   1
  -1  -4   4 0.19000 0.66000   1
  -1  -4   4 -0.3200 0.33000   1
   8   3  -5 2.71000 1.76000   1
   8   3  -5 -1.2000 1.57000   1
   8   3  -5 -0.6100 1.22000   1
  -8  -3   5 -0.0100 1.10000   1
   8  -3  -5 -2.4600 1.46000   1
  -8   3   5 0.15000 1.36000   1
   2  -4   2 -1.0900 1.37000   1
   2   4   2 0.54000 1.42000   1
   2   4   2 -1.6400 1.67000   1
   2  -4   2 0.00000 0.53000   1
  -2  -4  -2 1.78000 1.80000   1
  -2  -4  -2 -0.9900 1.86000   1
  -2   4  -2 0.23000 1.42000   1
  -2   4  -2 -1.5100 3.06000   1
  -6   3  10 1.64000 1.48000   1
   6   3 -10 0.25000 1.14000   1
   6   3 -10 0.34000 1.26000   1
   6   3 -10 0.36000 0.65000   1
  -6   3  10 -0.5000 0.68000   1
   6  -3 -10 0.89000 0.98000   1
   5   1 -16 1.05000 1.81000   1
  -5  -1  16 0.16000 0.94000   1
   5  -1 -16 1.17000 0.69000   1
  -5   1  16 1.07000 1.05000   1
  -5   1  16 0.30000 1.22000   1
  -5   1  16 0.52000 0.62000   1
   5   1 -16 0.10000 0.61000   1
   5  -1 -16 0.91000 0.96000   1
  -5  -1  16 0.76000 0.65000   1
 -11   1   9 0.03000 0.73000   1
  11  -1  -9 -0.2800 1.45000   1
  11   1  -9 0.70000 1.39000   1
 -11   1   9 1.06000 1.53000   1
  11  -1  -9 0.83000 1.09000   1
 -11  -1   9 1.70000 1.27000   1
  11   1  -9 3.19000 1.51000   1
   0   4  -4 -1.5800 3.35000   1
   0   4  -4 0.04000 1.43000   1
   0  -4   4 0.14000 0.41000   1
   0  -4   4 1.04000 0.75000   1
   0   4   4 0.40000 1.43000   1
   0   4   4 2.98000 1.24000   1
   0  -4   4 -1.3600 0.87000   1
   3   4  -1 1.53000 1.94000   1
   3   4  -1 1.81000 1.66000   1
   3  -4  -1 1.38000 2.04000   1
  -3   4   1 0.63000 1.16000   1
  -3   4   1 0.25000 2.67000   1
  -3  -4   1 0.98000 1.39000   1
  -3  -4   1 0.45000 1.34000   1
   3  -4  -1 0.53000 0.67000   1
   3   4  -2 0.36000 1.92000   1
  -3  -4   2 -0.1600 1.53000   1
  -3   4   2 1.93000 1.50000   1
   3   4  -2 -0.2900 1.71000   1
  -3  -4   2 0.01000 0.41000   1
  -3  -4   2 0.83000 1.30000   1
  -3   4   2 1.53000 2.33000   1
  -2   4   4 -0.5300 1.91000   1
   2   4  -4 2.02000 1.69000   1
   2   4  -4 0.47000 2.46000   1
  -2  -4   4 0.72000 0.34000   1
  -2   4   4 2.72000 1.22000   1
   8   3  -2 0.81000 1.37000   1
  -8  -3   2 0.29000 1.39000   1
   8   3  -2 -0.1600 1.31000   1
   8   3  -2 -0.6400 1.75000   1
  -8   3   2 0.10000 0.94000   1
   8  -3  -2 1.47000 1.12000   1
  11   1  -1 0.09000 1.11000   1
 -11  -1   1 2.61000 1.75000   1
 -11   1   1 1.25000 0.81000   1
 -11   1   1 -0.1100 1.50000   1
  11   1  -1 -0.5200 1.03000   1
  11  -1  -1 0.42000 1.09000   1
  -8   2  -5 4.65000 1.51000   1
   8   2   5 3.18000 1.52000   1
   8   2   5 1.38000 1.72000   1
   8  -2   5 3.42000 1.61000   1
  -8   2  -5 2.74000 1.12000   1
  -8  -2  -5 7.78000 2.49000   1
  10  -1 -12 11.8100 2.30000   1
  10   1 -12 10.0200 2.52000   1
  10  -1 -12 10.7200 1.74000   1
  10   1 -12 10.1200 1.81000   1
 -10   1  12 13.9000 2.49000   1
   6   2 -14 1.92000 2.18000   1
   6  -2 -14 0.97000 0.95000   1
   6   2 -14 -0.4500 0.94000   1
   6  -2 -14 1.19000 0.87000   1
  -6   2  14 0.85000 1.44000   1
  -6   2  14 -0.3300 1.24000   1
   6   2 -14 0.58000 0.46000   1
  10   2  -8 6.32000 2.28000   1
  10  -2  -8 5.81000 2.09000   1
 -10   2   8 10.0900 1.99000   1
 -10  -2   8 7.82000 1.80000   1
  10   2  -8 2.06000 1.88000   1
   9   0   6 -0.4700 1.21000   1
  -9   0  -6 -0.4800 1.60000   1
   3   4   0 -0.3300 1.91000   1
  -3  -4   0 0.79000 1.27000   1
  -3  -4   0 1.64000 1.96000   1
  -3   4   0 0.04000 1.49000   1
  -3   4   0 3.31000 2.95000   1
   3   4   0 0.72000 1.38000   1
   3  -4   0 -1.0500 1.80000   1
   3  -4   0 -0.1000 0.55000   1
  -2   1  16 21.3900 2.82000   1
  -2   1  16 14.1900 1.93000   1
   2   1 -16 22.6600 3.96000   1
  -2  -1  16 16.8800 2.10000   1
  -4   0 -13 0.17000 0.20000   1
  -4   0 -13 -0.1200 0.74000   1
  -4   0 -13 1.92000 2.53000   1
   4   0  13 -0.0300 0.20000   1
  -4   0 -13 -0.7600 1.65000   1
  10   0 -13 -0.4900 1.12000   1
  10   0 -13 1.29000 1.33000   1
  -3  -4   3 0.38000 0.42000   1
  -3   4   3 -0.5600 1.18000   1
  -3   4   3 0.38000 0.67000   1
  -3  -4   3 -0.7700 1.07000   1
   3   4  -3 -1.2200 1.92000   1
  -3  -4   3 1.50000 1.62000   1
  -3   4   3 -2.7100 2.70000   1
   3   4  -3 0.40000 1.61000   1
  -5   0 -12 5.90000 2.19000   1
  -5   0 -12 2.50000 0.52000   1
  -5   0 -12 2.30000 0.57000   1
   5   0  12 1.86000 0.82000   1
   9  -2 -11 2.84000 1.59000   1
   9   2 -11 2.06000 1.42000   1
  -9   2  11 6.06000 1.84000   1
  -9  -2  11 0.98000 1.27000   1
   9   2 -11 2.23000 1.54000   1
   8   3  -6 -0.5300 1.28000   1
  -8  -3   6 0.23000 1.03000   1
   8   3  -6 0.83000 0.82000   1
   8   3  -6 -0.0400 1.74000   1
   8   3  -6 -0.5300 1.68000   1
  -8   3   6 -0.0500 1.10000   1
   8  -3  -6 0.69000 1.51000   1
 -10  -2   1 1.72000 1.89000   1
 -10   2   1 2.84000 1.22000   1
  10   2  -1 0.53000 1.56000   1
  10  -2  -1 1.20000 1.68000   1
  10  -2  -1 0.37000 0.65000   1
  10   2  -1 0.12000 1.48000   1
 -10   2   1 2.96000 1.43000   1
   5  -3 -11 1.30000 1.36000   1
  -5   3  11 0.34000 1.36000   1
  -5   3  11 0.39000 1.26000   1
  -5   3  11 0.91000 0.80000   1
  -5   3  11 0.42000 1.59000   1
   5   3 -11 -0.5300 2.84000   1
   5   3 -11 0.36000 1.24000   1
   5   3 -11 1.04000 1.16000   1
   7   2   7 4.78000 1.84000   1
  -7   2  -7 5.30000 1.41000   1
  -7  -2  -7 9.71000 3.01000   1
   7  -2   7 3.45000 1.59000   1
  -7   2  -7 4.27000 1.20000   1
   7   2   7 2.27000 1.55000   1
  -7   0  16 18.5700 2.30000   1
   7   0 -16 16.0900 1.87000   1
   7   0 -16 13.1900 2.48000   1
   0   3  11 1.41000 1.58000   1
   0   3  11 1.04000 1.73000   1
   0  -3  11 1.06000 0.56000   1
   0   3 -11 1.99000 0.95000   1
   0   3 -11 2.13000 3.08000   1
   7   3  -9 -0.1200 1.30000   1
   7  -3  -9 0.46000 1.38000   1
   7   3  -9 1.58000 1.57000   1
   7   3  -9 0.42000 0.60000   1
   7   3  -9 -0.0700 1.21000   1
  -7  -3   9 0.21000 0.73000   1
  -7   3   9 0.09000 1.58000   1
  -7   3   9 0.26000 0.78000   1
   4   2  11 0.85000 0.97000   1
   4   2  11 -0.6800 1.24000   1
  -4  -2 -11 0.60000 0.36000   1
  -4  -2 -11 1.01000 2.28000   1
  -4   2 -11 4.88000 3.67000   1
  -4   2 -11 0.16000 0.48000   1
  -4   2 -11 0.24000 0.69000   1
  -4   2 -11 0.10000 0.26000   1
   8   0   8 10.9900 2.19000   1
  -8   0  -8 8.77000 1.66000   1
  -8   0  -8 20.7700 3.30000   1
  10   1   3 0.92000 1.38000   1
  10  -1   3 0.95000 1.39000   1
 -10   1  -3 1.09000 0.97000   1
 -10  -1  -3 1.62000 2.02000   1
 -10   1  -3 -0.3900 1.40000   1
   8   3  -1 -1.5100 1.43000   1
   8   3  -1 0.72000 1.48000   1
   8   3  -1 0.64000 1.97000   1
  -8  -3   1 1.06000 1.70000   1
   8  -3  -1 2.31000 1.58000   1
  -8   3   1 -0.2200 1.22000   1
   8  -3  -1 1.94000 1.61000   1
  11   0 -11 0.51000 1.30000   1
  11   0 -11 -0.4400 1.17000   1
  -7   1  -9 0.72000 0.66000   1
  -7   1  -9 2.84000 1.12000   1
  -7   1  -9 0.03000 0.68000   1
  -7   1  -9 1.30000 0.70000   1
   7   1   9 0.12000 1.12000   1
   7  -1   9 0.95000 1.04000   1
  -7  -1  -9 2.08000 2.19000   1
  -1   4  -4 -0.5900 1.35000   1
   1   4   4 -1.3000 1.84000   1
   1  -4   4 0.37000 0.42000   1
   1   4   4 -0.0200 1.00000   1
  -1   4  -4 2.97000 3.17000   1
   3   4   1 -0.9500 2.20000   1
  -3  -4  -1 1.89000 1.29000   1
  -3  -4  -1 0.41000 1.71000   1
   3  -4   1 0.91000 0.75000   1
  -3   4  -1 1.63000 3.33000   1
  -3  -4  -1 0.76000 1.84000   1
   3   4   1 1.69000 1.50000   1
   3  -4   1 1.30000 2.10000   1
  -3   4  -1 -0.4800 1.47000   1
  -3   0 -14 9.29000 2.54000   1
  -3   0 -14 10.3800 3.08000   1
  -3   2 -12 1.53000 1.02000   1
  -3  -2 -12 2.85000 2.62000   1
  -3   2 -12 0.77000 0.56000   1
  -3  -2 -12 0.56000 0.30000   1
  -3  -2 -12 1.62000 1.12000   1
   3   2  12 1.44000 1.26000   1
   3   2  12 1.71000 0.87000   1
  -3   2 -12 -0.4400 3.92000   1
  -1   4   5 1.19000 1.94000   1
  -1  -4   5 0.11000 0.26000   1
  -1   4   5 1.66000 1.03000   1
   1   4  -5 -0.2900 2.73000   1
  -2  -4  -3 2.91000 2.66000   1
  -2   4  -3 6.11000 3.50000   1
   2   4   3 1.69000 1.13000   1
  -2   4  -3 0.23000 1.43000   1
   2  -4   3 1.78000 1.86000   1
   2   4   3 0.05000 1.41000   1
   2  -4   3 0.87000 0.63000   1
  10   0   4 11.3200 2.42000   1
 -10   0  -4 9.88000 2.15000   1
   0   2  14 2.24000 0.60000   1
   0  -2  14 3.73000 0.89000   1
   0   2 -14 2.51000 0.58000   1
   0   2 -14 3.61000 0.76000   1
   0   2 -14 -2.3200 3.55000   1
   0   2  14 2.99000 1.62000   1
   0   2  14 7.42000 1.91000   1
   3   4  -4 1.37000 2.04000   1
  -3   4   4 -0.5400 0.70000   1
  -3  -4   4 0.30000 0.45000   1
  -3   4   4 -2.4700 1.64000   1
  -3   4   4 4.09000 2.35000   1
  -3  -4   4 -0.2800 0.69000   1
   3   4  -4 -0.0200 1.47000   1
  -3  -3  -9 5.66000 3.19000   1
   3   3   9 4.90000 2.13000   1
   3  -3   9 1.06000 0.68000   1
  -3   3  -9 4.77000 1.23000   1
   3   3   9 2.24000 1.59000   1
  -3   3  -9 1.46000 0.61000   1
  -3   3  -9 -1.4000 4.47000   1
   6  -1 -16 2.76000 1.43000   1
   6   1 -16 2.38000 2.02000   1
  -6   1  16 2.86000 1.37000   1
  -6   1  16 1.99000 0.72000   1
  -6  -1  16 1.16000 1.09000   1
   6   1 -16 1.68000 1.00000   1
   6  -1 -16 1.81000 0.92000   1
 -11   0  -1 0.27000 1.56000   1
  11   0   1 -0.9800 1.49000   1
  -5  -2 -10 8.92000 3.40000   1
   5  -2  10 7.02000 1.36000   1
   5   2  10 6.53000 1.71000   1
   5   2  10 7.28000 1.66000   1
  -5   2 -10 4.64000 0.85000   1
  -5   2 -10 6.78000 1.33000   1
  -5   2 -10 5.71000 0.95000   1
  -5   2 -10 6.21000 2.93000   1
  -5   2 -10 10.4700 5.34000   1
   9  -2   3 -1.0900 1.34000   1
  -9  -2  -3 1.82000 0.70000   1
   9   2   3 0.14000 0.98000   1
  -9   2  -3 0.05000 0.92000   1
  -9   2  -3 0.33000 1.24000   1
   9   2   3 0.47000 1.35000   1
  -9  -2  -3 0.05000 2.00000   1
   6   0  11 0.25000 0.55000   1
  -6   0 -11 0.34000 0.49000   1
  -6   0 -11 0.20000 0.46000   1
  -6   0 -11 -0.3400 1.67000   1
  -2  -4   5 0.88000 0.35000   1
  -2  -4   5 0.11000 0.33000   1
  -2   4   5 0.40000 0.81000   1
  -2   4   5 0.31000 1.70000   1
   2   4  -5 3.13000 1.62000   1
  -2  -4   5 0.26000 0.18000   1
   2   4  -5 -1.2400 2.58000   1
  -2   4   5 2.84000 1.60000   1
   6   3   5 0.21000 1.79000   1
  -6   3  -5 2.26000 0.89000   1
  -6  -3  -5 0.11000 2.36000   1
  -6   3  -5 0.78000 0.82000   1
  -6   3  -5 0.48000 1.79000   1
   6  -3   5 0.63000 0.98000   1
   6   3   5 0.32000 1.43000   1
   6  -3   5 1.60000 1.54000   1
  -6  -3  -5 0.15000 0.96000   1
  -1   1 -15 14.2100 3.74000   1
  -1   1 -15 9.61000 1.85000   1
   1   1  15 6.56000 1.21000   1
   1   1  15 9.38000 2.19000   1
  -1  -1 -15 7.92000 3.13000   1
  -1  -1 -15 8.16000 2.13000   1
   1  -1  15 6.21000 1.87000   1
   8   3  -7 1.30000 1.14000   1
   8   3  -7 2.33000 1.06000   1
   8   3  -7 1.73000 1.76000   1
   8   3  -7 0.31000 1.24000   1
  -8  -3   7 0.05000 0.95000   1
  -8   3   7 -0.3900 1.41000   1
   8  -3  -7 0.07000 1.12000   1
  -4   3  -8 2.34000 1.23000   1
  -4   3  -8 1.28000 0.78000   1
   4   3   8 1.98000 1.98000   1
   4  -3   8 1.06000 1.18000   1
  -4  -3  -8 0.96000 3.03000   1
  -4  -3  -8 1.22000 0.75000   1
  -4   3  -8 3.79000 4.54000   1
   4   3   8 1.55000 1.61000   1
   4  -3   8 2.20000 0.62000   1
  11   1 -10 1.40000 1.17000   1
  11  -1 -10 2.27000 1.59000   1
  11   1 -10 2.79000 1.79000   1
  11  -1 -10 1.02000 1.57000   1
 -11   1  10 3.31000 1.71000   1
 -11  -1  10 2.00000 1.44000   1
   0   4  -5 6.29000 3.56000   1
   0   4  -5 5.38000 1.61000   1
   0   4   5 1.23000 2.27000   1
   0   4   5 0.16000 1.13000   1
   0   0  16 1.94000 0.38000   1
   0   0 -16 4.35000 1.89000   1
   0   0 -16 2.31000 1.69000   1
   0   0  16 3.83000 1.52000   1
  10   2  -9 3.74000 1.73000   1
 -10  -2   9 0.84000 1.14000   1
 -10   2   9 2.43000 1.56000   1
  10   2  -9 0.69000 1.42000   1
  10  -2  -9 0.43000 1.45000   1
   2  -3  10 3.10000 0.75000   1
  -2   3 -10 6.93000 5.00000   1
  -2   3 -10 6.72000 1.47000   1
   2   3  10 3.47000 1.49000   1
  -2  -3 -10 7.23000 3.39000   1
   9   1 -14 30.8100 3.51000   1
   9  -1 -14 36.7900 3.79000   1
   9   1 -14 33.5200 3.56000   1
   9  -1 -14 26.9100 3.74000   1
  -9   1  14 42.3500 4.38000   1
   7   3   3 0.00000 1.77000   1
  -7  -3  -3 0.51000 1.03000   1
  -7  -3  -3 1.82000 1.36000   1
   7   3   3 1.01000 1.29000   1
  -7  -3  -3 1.57000 2.41000   1
   7   3   3 0.68000 1.45000   1
   7  -3   3 1.30000 1.70000   1
  -7   3  -3 2.22000 1.25000   1
  -7   3  -3 1.56000 1.34000   1
  -8   1  15 -0.1200 1.27000   1
   8   1 -15 0.02000 1.30000   1
   8  -1 -15 0.26000 1.06000   1
   8  -1 -15 1.30000 0.97000   1
  11  -1   0 1.55000 1.86000   1
  11   1   0 2.11000 1.85000   1
 -11  -1   0 5.11000 2.20000   1
 -11   1   0 5.66000 1.85000   1
   1   1 -16 10.7300 2.47000   1
  -1   1  16 10.6800 1.53000   1
  -1   1  16 13.5800 2.52000   1
  -1  -1  16 11.6600 1.72000   1
   1   1 -16 8.01000 3.53000   1
   8   3   0 0.67000 1.29000   1
  -8  -3   0 0.23000 1.67000   1
  -8  -3   0 -0.1300 1.08000   1
   8   3   0 -0.0300 1.15000   1
   8   3   0 1.68000 1.67000   1
   8  -3   0 0.82000 1.08000   1
   8  -3   0 -0.1000 1.04000   1
  -8   3   0 -0.1200 1.07000   1
   4   0 -17 -0.7000 1.21000   1
  -4   0  17 0.09000 0.82000   1
   4   0 -17 0.53000 0.39000   1
  -4   0  17 0.32000 1.39000   1
  10   2   0 2.19000 1.97000   1
 -10  -2   0 5.42000 1.81000   1
  10  -2   0 3.13000 2.08000   1
  10   2   0 5.13000 1.84000   1
 -10   2   0 6.81000 1.81000   1
 -10   2   0 5.71000 1.45000   1
  -3  -4  -2 0.88000 1.90000   1
   3   4   2 3.71000 1.47000   1
   3   4   2 0.58000 1.42000   1
  -3  -4  -2 -0.2900 1.18000   1
  -3  -4  -2 2.17000 1.88000   1
  -3   4  -2 -0.0900 1.34000   1
  -3   4  -2 -0.9900 3.43000   1
   3  -4   2 1.86000 1.95000   1
   3  -4   2 0.06000 0.57000   1
  12   0  -6 1.80000 1.47000   1
  12   0  -6 1.44000 1.60000   1
 -12   0   6 0.24000 1.63000   1
  12   0  -5 1.16000 1.48000   1
 -12   0   5 0.46000 1.61000   1
  12   0  -5 -0.0200 1.19000   1
  12   0  -5 0.02000 0.35000   1
  -3   3  12 -0.4700 1.58000   1
  -3   3  12 0.45000 1.41000   1
  -3  -3  12 0.46000 0.56000   1
   3   3 -12 6.65000 2.46000   1
   3   3 -12 1.00000 1.07000   1
   3   3 -12 0.05000 1.02000   1
  -2   2 -13 0.75000 0.51000   1
   2   2  13 1.17000 1.27000   1
   2   2  13 0.16000 0.56000   1
   2   2  13 1.19000 0.66000   1
  -2  -2 -13 1.14000 1.98000   1
  -2   2 -13 -1.9600 2.49000   1
  -2   2 -13 0.62000 0.98000   1
  -2  -2 -13 0.50000 0.30000   1
  -2  -2 -13 1.18000 0.64000   1
   8   2 -13 0.28000 0.53000   1
   8   2 -13 0.60000 0.98000   1
   8  -2 -13 -0.6800 0.86000   1
  -8   2  13 0.66000 1.38000   1
   8   2 -13 -0.6200 1.84000   1
   8  -2 -13 0.08000 1.07000   1
   3   2 -15 6.39000 1.24000   1
   3   2 -15 10.8300 3.86000   1
  -3   2  15 8.37000 2.01000   1
  -3   2  15 8.97000 1.68000   1
  -3   2  15 5.53000 0.97000   1
   4   2 -15 6.98000 1.39000   1
   4   2 -15 14.1100 3.39000   1
   4   2 -15 6.37000 0.86000   1
  -4   2  15 5.47000 1.21000   1
  -4  -2  15 4.77000 0.99000   1
  -4   2  15 14.4400 2.48000   1
  -4   2  15 10.2400 1.83000   1
   4  -2 -15 4.43000 1.17000   1
  -4  -4   2 -2.2400 1.48000   1
  -4  -4   2 -0.7300 1.38000   1
  -4   4   2 -0.0500 1.41000   1
   4   4  -2 -0.0800 1.54000   1
  -4   4   2 5.35000 2.45000   1
   4   4  -2 2.53000 1.21000   1
  -4   4   2 -0.3200 0.52000   1
  -2   3  12 0.54000 1.45000   1
  -2   3  12 1.86000 1.65000   1
  -2  -3  12 0.34000 0.50000   1
   2   3 -12 0.77000 0.88000   1
   2   3 -12 -0.5900 2.55000   1
  -3   0  17 0.70000 0.63000   1
  -3   0  17 -0.0600 0.64000   1
   3   0 -17 0.65000 1.67000   1
  -3   0  17 0.51000 1.51000   1
  -3   4   5 2.66000 1.67000   1
  -3   4   5 0.21000 0.79000   1
  -3   4   5 -0.7700 1.66000   1
  -3  -4   5 0.04000 0.46000   1
   3   4  -5 -1.6600 1.40000   1
   3   4  -5 -0.4500 2.34000   1
  -3  -4   5 0.13000 0.26000   1
  -4   4   1 1.75000 2.81000   1
  -4   4   1 2.49000 1.57000   1
  -4  -4   1 0.70000 1.73000   1
   4   4  -1 -0.4900 1.33000   1
  -4   4   1 -0.1600 0.50000   1
  -4  -4   1 0.30000 1.50000   1
   4  -4  -1 0.33000 1.89000   1
   4   4  -1 0.62000 1.50000   1
  12   0  -7 0.50000 1.40000   1
  12   0  -7 -0.8000 1.35000   1
 -12   0   7 1.08000 1.08000   1
  12   0  -4 4.15000 1.75000   1
 -12   0   4 2.94000 1.99000   1
  -5   0  17 -0.3700 0.84000   1
  -5   0  17 -0.7000 0.43000   1
   5   0 -17 0.22000 0.45000   1
   5   0 -17 -0.8000 1.31000   1
  -2   0 -15 -0.7800 2.01000   1
  -2   0 -15 -0.2200 1.68000   1
   4   4  -3 -0.7100 1.22000   1
  -4   4   3 -0.8100 1.56000   1
  -4   4   3 -0.8300 2.45000   1
  -4   4   3 -0.2900 0.78000   1
   4   4  -3 1.95000 1.68000   1
  -4  -4   3 1.55000 1.51000   1
  -4  -4   3 0.95000 0.96000   1
  -6   2  -9 -0.0100 0.41000   1
  -6   2  -9 1.92000 2.00000   1
  -6   2  -9 0.10000 0.52000   1
  -6  -2  -9 0.88000 2.39000   1
  -6  -2  -9 0.39000 0.58000   1
  -6   2  -9 -0.2600 0.96000   1
   6   2   9 -0.1500 1.15000   1
   6   2   9 -0.1300 1.17000   1
  -6   2  -9 0.44000 0.47000   1
   6  -2   9 0.74000 1.24000   1
  -5  -3  -7 6.24000 2.82000   1
  -5   3  -7 0.05000 1.93000   1
   5   3   7 1.55000 1.73000   1
  -5   3  -7 0.72000 0.88000   1
   5   3   7 0.57000 1.32000   1
   5  -3   7 1.55000 1.10000   1
  -5   3  -7 -0.0200 0.81000   1
  -5   3  -7 3.18000 3.38000   1
  -5  -3  -7 1.22000 0.71000   1
   5  -3   7 0.42000 0.60000   1
   7   2 -14 8.57000 2.58000   1
  -7   2  14 7.16000 2.02000   1
   7  -2 -14 4.89000 1.48000   1
   7   2 -14 4.57000 1.72000   1
  -7   2  14 1.08000 1.37000   1
   7   2 -14 4.14000 0.87000   1
   7  -2 -14 3.73000 1.39000   1
  -4   3  12 3.02000 2.22000   1
  -4   3  12 4.19000 1.84000   1
   4   3 -12 4.95000 1.60000   1
   4   3 -12 6.08000 2.53000   1
   4   3 -12 1.21000 1.61000   1
   6  -3 -11 1.27000 1.45000   1
  -6   3  11 2.42000 1.67000   1
  -6   3  11 0.00000 0.50000   1
  -6   3  11 1.27000 1.16000   1
   6   3 -11 0.34000 0.56000   1
   6   3 -11 0.08000 1.13000   1
   6   3 -11 1.00000 1.24000   1
   6   3 -11 0.93000 1.74000   1
  -2   4  -4 -0.3000 1.28000   1
   2   4   4 1.72000 1.92000   1
  -2  -4  -4 -1.9800 2.31000   1
   2   4   4 0.41000 0.68000   1
   2  -4   4 -0.1100 0.48000   1
  -2   4  -4 2.10000 3.43000   1
  -1   4  -5 -2.5000 3.56000   1
  -1   4  -5 0.12000 1.31000   1
   1   4   5 2.06000 2.07000   1
   1   4   5 -0.4200 0.75000   1
   1  -4   5 0.57000 0.28000   1
   9   0 -15 -0.9000 1.33000   1
   9   0 -15 -0.4700 1.26000   1
  -9   0  15 -0.3400 1.30000   1
   9   1   6 7.32000 2.23000   1
   9  -1   6 11.8000 2.21000   1
  -9   1  -6 7.29000 1.68000   1
  -9  -1  -6 11.4100 2.93000   1
  -9   1  -6 11.7500 2.20000   1
   4  -4   0 0.38000 0.72000   1
   4  -4   0 1.02000 2.00000   1
  -4   4   0 -1.2600 1.50000   1
   4   4   0 -2.3900 1.34000   1
  -4  -4   0 -2.7300 2.13000   1
  -4   4   0 -1.9900 3.10000   1
  -4  -4   0 -0.3300 1.83000   1
   4   4   0 -1.7900 1.47000   1
   1   3  11 1.85000 1.63000   1
   1  -3  11 0.71000 0.48000   1
  -1   3 -11 -0.3100 0.88000   1
  -1   3 -11 3.94000 4.14000   1
   2   2 -15 2.71000 1.24000   1
  -2   2  15 2.74000 1.85000   1
  -2   2  15 1.65000 0.68000   1
   2   2 -15 2.98000 0.68000   1
   2   2 -15 4.62000 2.38000   1
   2  -2 -15 1.65000 0.54000   1
   2   2 -15 2.47000 0.65000   1
  -2  -2  15 4.76000 1.02000   1
  -2   2  15 3.80000 1.48000   1
  -7   0 -10 1.08000 0.60000   1
  -7   0 -10 0.25000 0.62000   1
  -7   0 -10 1.85000 1.85000   1
   7   0  10 0.35000 0.85000   1
   8   3  -8 0.90000 0.89000   1
   8   3  -8 3.00000 1.86000   1
   8   3  -8 0.27000 0.71000   1
  -8  -3   8 -0.7700 1.09000   1
  -8   3   8 -0.6300 1.12000   1
   8  -3  -8 -0.2900 1.49000   1
   1   4  -6 -0.8600 1.46000   1
   1   4  -6 -0.7200 2.95000   1
  -1   4   6 0.15000 0.86000   1
  -1   4   6 1.18000 2.02000   1
  -1  -4   6 0.24000 0.17000   1
  -7   3  10 0.15000 0.95000   1
   7   3 -10 0.18000 1.20000   1
   7  -3 -10 0.94000 1.39000   1
   7   3 -10 3.67000 2.38000   1
   7   3 -10 0.10000 1.09000   1
   7   3 -10 1.54000 0.76000   1
  -7  -3  10 0.70000 0.74000   1
  -7   3  10 -0.1900 1.75000   1
  -5   2  15 5.30000 1.58000   1
  -5   2  15 3.85000 1.64000   1
   5  -2 -15 2.88000 1.23000   1
   5  -2 -15 1.85000 0.97000   1
   5   2 -15 3.79000 2.55000   1
   5   2 -15 2.95000 1.09000   1
   5   2 -15 2.24000 0.66000   1
  -5  -2  15 0.93000 0.78000   1
  -5   2  15 2.86000 1.83000   1
  -4   1 -13 -1.0500 1.00000   1
   4   1  13 -0.1000 0.98000   1
  -4  -1 -13 0.47000 0.72000   1
  -4  -1 -13 0.59000 0.54000   1
  -4   1 -13 -2.2900 2.17000   1
   4   1  13 0.30000 0.51000   1
  -4  -1 -13 -0.4100 1.79000   1
  -4  -1 -13 -0.2000 2.12000   1
  -4   1 -13 0.20000 0.34000   1
  -2  -4   6 0.75000 0.32000   1
   2   4  -6 1.45000 1.45000   1
  -2   4   6 -0.8500 1.58000   1
  -2   4   6 0.60000 1.82000   1
   2   4  -6 1.19000 2.92000   1
  -2   4   6 0.49000 1.02000   1
  10  -1 -13 11.0700 1.95000   1
  10   1 -13 9.77000 2.11000   1
  10   1 -13 8.41000 1.96000   1
  10  -1 -13 7.19000 1.93000   1
 -10   1  13 11.9400 1.92000   1
  -5   1 -12 0.01000 0.36000   1
   5   1  12 -0.2200 0.84000   1
   5  -1  12 0.05000 0.54000   1
  -5   1 -12 0.71000 3.47000   1
  -5  -1 -12 -0.3900 1.63000   1
  -5   1 -12 0.32000 1.14000   1
  -5   1 -12 -0.3500 1.65000   1
  -5  -1 -12 0.60000 0.44000   1
   4   4  -4 1.53000 1.75000   1
  -4   4   4 2.48000 2.24000   1
   4   4  -4 1.03000 2.00000   1
  -4   4   4 -1.7000 1.60000   1
  -4  -4   4 -0.1300 0.86000   1
  -4   4   4 1.11000 0.92000   1
  12   0  -8 7.32000 2.06000   1
  12   0  -8 9.02000 2.05000   1
 -12   0   8 9.18000 2.19000   1
   9   2 -12 1.66000 1.72000   1
   9  -2 -12 -0.6200 1.13000   1
  -9   2  12 -0.6200 1.49000   1
   9   2 -12 0.33000 1.06000   1
 -12   0   3 -1.4300 1.21000   1
  12   0  -3 1.23000 1.57000   1
  -1   3  12 0.18000 1.14000   1
  -1   3  12 1.41000 1.44000   1
   1   3 -12 8.29000 4.24000   1
   1   3 -12 0.64000 0.91000   1
  11   0 -12 1.85000 1.42000   1
  11   0 -12 1.37000 1.49000   1
  -7   1  16 17.5100 2.36000   1
   7   1 -16 14.0800 2.06000   1
   7  -1 -16 12.0800 2.14000   1
   7   1 -16 17.1100 3.00000   1
   7  -1 -16 10.0400 1.68000   1
  -2   0  17 -0.1100 1.29000   1
   2   0 -17 2.19000 1.51000   1
  -2   0  17 -0.4700 0.50000   1
 -10   2  10 9.83000 1.76000   1
  10   2 -10 8.98000 2.12000   1
  10   2 -10 5.47000 2.73000   1
 -10  -2  10 8.18000 1.65000   1
  10  -2 -10 6.48000 1.71000   1
   8  -1   8 2.43000 1.75000   1
  -8   1  -8 6.15000 1.80000   1
  -8  -1  -8 4.47000 2.46000   1
  -8   1  -8 1.65000 1.12000   1
  -8   1  -8 3.28000 0.89000   1
   8   1   8 2.66000 1.52000   1
   8   0 -16 3.51000 1.16000   1
   8   0 -16 0.75000 1.63000   1
  -8   0  16 3.73000 1.50000   1
  -3  -4  -3 0.04000 0.94000   1
  -3  -4  -3 1.59000 1.95000   1
  -3   4  -3 0.29000 3.47000   1
  -3   4  -3 -0.6800 1.25000   1
   3  -4   3 0.35000 0.56000   1
   3   4   3 1.66000 2.03000   1
   3   4   3 -1.4900 0.94000   1
   3  -4   3 -0.2700 1.60000   1
 -11   1  11 3.00000 1.83000   1
 -11  -1  11 1.21000 1.46000   1
  11   1 -11 3.64000 1.82000   1
  11  -1 -11 3.53000 1.59000   1
  11  -1 -11 1.45000 1.61000   1
  11   1 -11 1.71000 1.61000   1
  -8   2  -6 7.98000 1.75000   1
  -8  -2  -6 7.61000 2.54000   1
   8   2   6 7.27000 2.00000   1
   8  -2   6 4.58000 1.95000   1
   8   2   6 16.4700 2.48000   1
  -8   2  -6 11.4600 2.41000   1
  -8   2  -6 6.90000 1.45000   1
  -8  -3  -1 -2.3800 1.94000   1
   8   3   1 1.41000 1.37000   1
  -8  -3  -1 0.35000 1.12000   1
   8   3   1 3.53000 1.28000   1
   8   3   1 2.13000 1.28000   1
   8  -3   1 1.34000 1.21000   1
  -8   3  -1 0.26000 1.08000   1
  -8   3  -1 0.83000 1.07000   1
   8  -3   1 0.84000 1.44000   1
   0   4  -6 -0.1500 3.38000   1
   0   4   6 0.31000 0.70000   1
   0   4  -6 1.68000 1.36000   1
   0   4   6 1.05000 2.01000   1
  -6   0  17 0.24000 0.90000   1
   6   0 -17 0.27000 1.34000   1
  -6   0  17 -0.5700 0.58000   1
  11   0   2 9.19000 2.54000   1
 -11   0  -2 12.2500 2.75000   1
 -10   0  14 6.09000 1.70000   1
  10   0 -14 2.27000 1.75000   1
  10   0 -14 2.65000 1.41000   1
  -3  -1 -14 3.03000 2.22000   1
  -3  -1 -14 -0.5800 1.93000   1
   3   1  14 -0.5600 0.81000   1
   3   1  14 0.37000 0.21000   1
  -3   1 -14 1.41000 2.93000   1
  -3   1 -14 0.72000 1.07000   1
   3   1  14 0.39000 0.27000   1
  -3  -1 -14 0.52000 0.50000   1
  -4  -4  -1 2.18000 1.94000   1
  -4   4  -1 1.86000 1.56000   1
  -4  -4  -1 1.80000 1.88000   1
   4   4   1 1.96000 2.10000   1
   4   4   1 1.10000 1.65000   1
   4  -4   1 0.97000 2.17000   1
   4  -4   1 0.12000 0.84000   1
  -4   4  -1 5.10000 3.37000   1
  -4  -4  -1 0.79000 1.44000   1
  10  -1   4 1.49000 1.42000   1
  10   1   4 1.62000 1.47000   1
 -10   1  -4 0.88000 1.45000   1
 -10  -1  -4 1.79000 1.46000   1
 -10   1  -4 0.77000 0.93000   1
  -3   4   6 1.15000 1.57000   1
  -3   4   6 2.84000 1.85000   1
   3   4  -6 1.61000 1.68000   1
  -3   4   6 0.49000 1.05000   1
   3   4  -6 0.25000 2.78000   1
 -11   1  -1 0.94000 1.44000   1
 -11  -1  -1 0.40000 1.79000   1
 -11   1  -1 -0.1800 0.99000   1
  11  -1   1 0.26000 1.43000   1
  11   1   1 0.09000 1.49000   1
   5  -3 -12 0.93000 1.42000   1
  -5   3  12 0.89000 1.78000   1
  -5   3  12 3.52000 1.65000   1
  -5   3  12 1.51000 1.27000   1
  -5   3  12 0.49000 0.85000   1
   5   3 -12 1.14000 0.91000   1
   5   3 -12 3.25000 1.33000   1
   5   3 -12 7.26000 2.95000   1
  10  -2   1 -0.1900 1.44000   1
  10   2   1 0.80000 1.42000   1
 -10   2  -1 0.38000 0.97000   1
 -10  -2  -1 -1.2000 1.68000   1
 -10   2  -1 1.06000 0.94000   1
  10   2   1 0.45000 1.34000   1
  -1   2 -14 1.78000 0.76000   1
  -1   2 -14 1.07000 3.49000   1
  -1  -2 -14 0.21000 0.24000   1
  -1  -2 -14 0.66000 0.43000   1
   1  -2  14 0.58000 0.50000   1
   1   2  14 -0.8500 1.56000   1
   1   2  14 0.01000 0.48000   1
   1   2  14 2.49000 1.50000   1
   1   2  14 1.02000 0.69000   1
  -1   2 -14 0.20000 0.43000   1
  -6   1 -11 0.69000 0.48000   1
  -6   1 -11 0.12000 0.44000   1
  -6   1 -11 0.23000 0.33000   1
  -6   1 -11 -1.2700 1.39000   1
   6   1  11 0.25000 0.75000   1
   6  -1  11 1.21000 0.68000   1
   6   1  11 -0.1100 0.97000   1
   6   1  11 1.46000 0.78000   1
  -6  -1 -11 1.02000 1.99000   1
  -6  -1 -11 0.34000 0.52000   1
  -4   4   5 0.31000 1.56000   1
  -4   4   5 -0.0900 0.99000   1
   4   4  -5 0.84000 1.25000   1
   4   4  -5 4.95000 2.25000   1
  -4  -4   5 -0.0400 0.70000   1
  -4   4   5 4.17000 2.49000   1
   9   2   4 0.75000 1.36000   1
   9  -2   4 1.21000 1.46000   1
  -9  -2  -4 1.26000 1.00000   1
   9   2   4 1.76000 1.33000   1
  -9   2  -4 2.20000 1.37000   1
  -9  -2  -4 0.56000 2.28000   1
  -9   2  -4 0.22000 1.03000   1
   9   0   7 0.17000 1.05000   1
  -9   0  -7 -0.4900 1.47000   1
   7   3   4 2.79000 1.83000   1
   7   3   4 2.41000 2.30000   1
   7  -3   4 0.84000 1.57000   1
   7   3   4 2.42000 1.47000   1
  -7   3  -4 4.42000 1.43000   1
  -7  -3  -4 2.58000 1.44000   1
  -7   3  -4 3.78000 1.33000   1
  -7  -3  -4 2.60000 1.68000   1
  -7  -3  -4 5.78000 2.95000   1
  12   0  -9 -0.9800 0.97000   1
  12   0  -9 1.35000 1.21000   1
 -12   0   9 -0.4100 1.48000   1
   0   1 -16 -1.3900 1.48000   1
   0  -1  16 1.80000 1.01000   1
   0   1  16 0.38000 1.52000   1
   0  -1 -16 1.10000 1.07000   1
   0   1  16 0.81000 0.78000   1
   0  -1 -16 0.15000 0.49000   1
   0   1 -16 -3.6100 2.87000   1
 -12   0   2 8.37000 2.42000   1
  12   0  -2 12.2700 2.13000   1
   1   2 -15 0.79000 0.79000   1
   1   2 -15 -0.3600 3.60000   1
   1   2 -15 -0.1000 0.60000   1
   1   2 -15 0.16000 0.44000   1
  -1   2  15 0.29000 1.72000   1
  -1   2  15 0.38000 0.50000   1
   1  -2 -15 0.74000 0.29000   1
  -1  -2  15 0.61000 0.81000   1
  -6   3  -6 1.94000 1.19000   1
   6  -3   6 1.30000 0.97000   1
  -6   3  -6 2.98000 2.93000   1
  -6  -3  -6 -0.4700 0.96000   1
  -6   3  -6 1.34000 0.95000   1
  -6  -3  -6 5.00000 2.94000   1
   6   3   6 1.70000 1.94000   1
   6  -3   6 4.23000 1.70000   1
   6   3   6 2.29000 1.54000   1
   6   2 -15 0.39000 0.49000   1
   6   2 -15 -0.3000 0.77000   1
  -6   2  15 0.76000 1.33000   1
  -6   2  15 -1.1900 1.05000   1
   6  -2 -15 0.02000 0.92000   1
   6  -2 -15 1.38000 0.67000   1
   6   2 -15 0.53000 2.15000   1
  -7  -2  -8 0.42000 0.85000   1
   7  -2   8 2.05000 1.60000   1
  -7  -2  -8 2.60000 2.52000   1
   7   2   8 2.13000 1.29000   1
  -7   2  -8 0.90000 1.27000   1
  -7   2  -8 1.57000 0.71000   1
  -7   2  -8 1.20000 0.79000   1
   7   2   8 1.04000 1.52000   1
 -10   0  -5 -0.3400 1.46000   1
  10   0   5 0.22000 1.08000   1
   4   1 -17 13.2900 2.76000   1
   4  -1 -17 9.84000 1.47000   1
   4  -1 -17 6.92000 1.03000   1
  -4   1  17 3.57000 2.28000   1
  -4  -1  17 6.89000 1.14000   1
  -4   1  17 11.0600 1.58000   1
  -4   1  17 12.7800 2.60000   1
  -8  -3   9 -0.6100 0.83000   1
   8   3  -9 0.09000 0.83000   1
   8   3  -9 -0.5700 1.03000   1
   8   3  -9 2.67000 1.95000   1
   8   3  -9 -0.9900 1.38000   1
  -8   3   9 -1.1100 1.64000   1
   8  -3  -9 -0.1300 1.31000   1
  -1   0 -16 6.86000 1.97000   1
  -1   0 -16 2.74000 2.36000   1
   1   0  16 4.61000 1.60000   1
 -12   1   6 13.7900 2.57000   1
 -12  -1   6 13.2600 2.62000   1
  12   1  -6 7.74000 2.04000   1
 -12   1   6 11.5700 2.47000   1
  12   1  -6 5.35000 1.23000   1
  12   1  -6 8.41000 2.27000   1
  12  -1  -6 8.43000 2.33000   1
  12   1  -5 -0.7800 1.64000   1
  12  -1  -5 -0.3700 1.67000   1
 -12   1   5 1.74000 1.38000   1
 -12   1   5 1.95000 1.64000   1
 -12  -1   5 1.45000 1.62000   1
  12   1  -5 3.22000 1.61000   1
  12   1  -5 0.45000 0.61000   1
   2   4   5 -0.2700 0.67000   1
   2   4   5 -1.7100 1.96000   1
   2  -4   5 0.63000 0.42000   1
  -2   4  -5 -2.0400 3.88000   1
  -2   4  -5 1.33000 1.29000   1
  -2  -4  -5 1.84000 2.26000   1
   0   3  12 -2.0300 1.69000   1
   0   3  12 -2.2300 1.45000   1
   0   3 -12 0.63000 0.77000   1
   0  -3  12 0.42000 0.49000   1
   0   3 -12 0.32000 2.55000   1
  -4  -4  -2 -0.5600 1.80000   1
  -4  -4  -2 -2.6400 1.72000   1
  -4  -4  -2 1.60000 0.94000   1
  -4   4  -2 -1.0900 1.23000   1
   4  -4   2 0.85000 0.72000   1
  -4   4  -2 -4.3700 3.27000   1
   4   4   2 -3.0200 1.82000   1
   4   4   2 0.19000 1.01000   1
   4  -4   2 0.72000 1.71000   1
   1   4   6 -0.1700 0.48000   1
   1   4   6 1.27000 2.01000   1
  -1   4  -6 -4.2400 3.64000   1
  -1   4  -6 0.44000 1.33000   1
  -3   1  17 2.94000 1.16000   1
  -3   1  17 0.94000 1.54000   1
   3   1 -17 0.83000 2.18000   1
   3  -1 -17 0.95000 0.85000   1
   3   1 -17 1.09000 0.38000   1
  -3  -1  17 0.74000 0.48000   1
  -3   1  17 4.10000 1.72000   1
  -3   1  17 1.14000 0.40000   1
  -3  -1  17 1.13000 0.51000   1
  -3  -1  17 2.19000 1.32000   1
 -11  -2   5 0.99000 1.66000   1
  11   2  -5 0.15000 1.55000   1
  11  -2  -5 3.46000 1.81000   1
  11   2  -5 1.23000 1.22000   1
 -11   2   5 1.65000 1.64000   1
 -11   2   5 1.08000 1.61000   1
 -12   1   7 2.66000 1.20000   1
 -12   1   7 2.50000 1.89000   1
 -12  -1   7 1.69000 1.78000   1
  12   1  -7 1.87000 0.83000   1
  12  -1  -7 3.46000 1.57000   1
  12   1  -7 2.28000 1.99000   1
  12   1  -7 -0.6200 1.63000   1
  -2   4   7 0.50000 0.44000   1
  -2   4   7 -0.2300 1.03000   1
   2   4  -7 -0.9600 2.81000   1
  -2   4   7 0.51000 1.80000   1
  -2   4   7 0.14000 0.99000   1
  -2  -4   7 0.22000 0.27000   1
  12   1  -4 1.75000 1.69000   1
 -12  -1   4 2.04000 1.67000   1
  12   1  -4 0.60000 1.58000   1
 -12   1   4 -0.0700 1.38000   1
  12  -1  -4 0.63000 1.60000   1
 -12   1   4 0.78000 1.55000   1
   5   1 -17 11.0600 2.62000   1
  -5   1  17 13.3400 1.89000   1
  -5   1  17 6.95000 1.03000   1
  -5  -1  17 10.5000 1.58000   1
  -5  -1  17 4.88000 1.46000   1
   5  -1 -17 8.20000 1.16000   1
   5   1 -17 9.25000 1.35000   1
  -5   1  17 15.3500 2.43000   1
   5  -1 -17 9.16000 1.72000   1
   9   3  -4 -0.5900 1.44000   1
   9   3  -4 1.10000 1.23000   1
  -9  -3   4 -0.0500 1.21000   1
   9   3  -4 1.11000 1.43000   1
   9  -3  -4 1.45000 1.51000   1
  -9   3   4 -0.4100 1.30000   1
  -2  -1 -15 2.67000 2.28000   1
  -2  -1 -15 0.43000 0.51000   1
  -2   1 -15 3.69000 2.83000   1
   2   1  15 0.02000 0.91000   1
  -2  -1 -15 3.06000 1.71000   1
  -2   1 -15 0.30000 1.28000   1
   1   0 -17 -0.2900 1.28000   1
  -1   0  17 0.39000 1.23000   1
  -1   0  17 -0.0800 0.37000   1
   1   4  -7 5.62000 3.69000   1
  -1   4   7 1.75000 2.04000   1
  -1   4   7 0.41000 0.58000   1
   1   4  -7 1.11000 1.40000   1
 -11  -2   6 5.72000 1.95000   1
 -11   2   6 3.49000 1.49000   1
  11   2  -6 3.04000 1.71000   1
 -11   2   6 3.11000 1.89000   1
  11  -2  -6 2.52000 2.16000   1
  11   2  -6 2.08000 2.03000   1
   3   3  10 -0.2800 1.18000   1
   3  -3  10 -0.1500 0.47000   1
   3   3  10 0.07000 1.61000   1
  -3   3 -10 0.31000 0.55000   1
  -3   3 -10 0.41000 2.80000   1
  -3  -3 -10 0.06000 0.46000   1
  -3   3 -10 0.25000 0.72000   1
  -3  -3 -10 3.19000 2.72000   1
   5   4  -2 0.66000 2.08000   1
  -5   4   2 2.94000 1.73000   1
   5   4  -2 1.05000 1.77000   1
  -5   4   2 0.00000 0.63000   1
  -5  -4   2 1.19000 1.70000   1
  -5   4   2 -0.6800 3.76000   1
  -5  -4   2 0.19000 1.63000   1
   5   4  -2 1.13000 1.48000   1
   9   3  -5 -2.0200 1.69000   1
   9   3  -5 2.24000 1.65000   1
   9   3  -5 -0.4400 1.43000   1
  -9  -3   5 1.12000 1.50000   1
   9  -3  -5 2.30000 1.59000   1
  -9   3   5 0.33000 1.50000   1
 -11   2   4 12.6200 2.57000   1
  11   2  -4 8.12000 2.05000   1
  11   2  -4 6.46000 2.40000   1
  11  -2  -4 11.6900 2.70000   1
 -11  -2   4 11.3100 2.54000   1
 -11   2   4 10.4300 1.78000   1
   3  -4   4 0.60000 0.67000   1
   3   4   4 -0.9500 2.19000   1
   3   4   4 0.61000 0.94000   1
  -3  -4  -4 1.96000 2.19000   1
  -3   4  -4 2.60000 3.91000   1
  -8   0  -9 -0.0700 0.60000   1
   8   0   9 -0.5400 0.97000   1
  -8   0  -9 0.48000 1.70000   1
  -5  -4   3 -0.7700 0.68000   1
   5   4  -3 0.51000 1.69000   1
   5   4  -3 3.17000 1.66000   1
   5   4  -3 2.10000 1.11000   1
  -5  -4   3 0.46000 1.29000   1
  -5   4   3 0.21000 0.59000   1
  -5   4   3 1.62000 2.85000   1
  -5   4   3 0.86000 1.18000   1
  -4   3  -9 4.14000 0.95000   1
   4  -3   9 2.39000 1.35000   1
   4   3   9 3.25000 1.62000   1
  -4   3  -9 3.11000 5.53000   1
  -4   3  -9 3.77000 1.17000   1
   4   3   9 4.93000 2.17000   1
  -4  -3  -9 8.83000 3.48000   1
   9   3  -3 0.31000 1.35000   1
  -9  -3   3 -0.1000 1.45000   1
   9   3  -3 1.05000 1.51000   1
   9   3  -3 -0.1000 1.57000   1
  -9   3   3 0.44000 1.36000   1
   9  -3  -3 1.09000 1.62000   1
  -4   4   6 1.64000 1.66000   1
   4   4  -6 -0.0800 1.58000   1
  -4  -4   6 0.11000 0.42000   1
  -4   4   6 -0.1500 1.11000   1
   4   4  -6 -1.0600 2.17000   1
  -4   4   6 1.13000 1.61000   1
   8   3   2 0.42000 1.29000   1
   8   3   2 0.55000 1.23000   1
   8   3   2 2.61000 1.75000   1
  -8  -3  -2 0.32000 1.15000   1
  -8  -3  -2 2.22000 2.03000   1
   8  -3   2 2.56000 1.48000   1
  -8   3  -2 -1.7500 1.06000   1
  -8   3  -2 0.99000 1.12000   1
   9   1 -15 4.85000 1.56000   1
  -9   1  15 8.14000 2.00000   1
   9  -1 -15 6.24000 1.61000   1
   9  -1 -15 5.15000 1.75000   1
   9   1 -15 7.53000 2.12000   1
   5   4  -1 3.09000 1.73000   1
   5   4  -1 -1.8000 2.03000   1
   5  -4  -1 0.93000 1.90000   1
  -5  -4   1 2.50000 1.55000   1
  -5   4   1 1.38000 1.53000   1
  -5  -4   1 0.01000 1.74000   1
  -5   4   1 1.51000 3.14000   1
   5   4  -1 0.93000 1.78000   1
  -5   4   1 0.11000 0.58000   1
  -7   0  17 0.05000 0.97000   1
   7   0 -17 -0.1800 0.86000   1
  -7   0  17 0.13000 0.49000   1
   7   1  10 3.81000 0.98000   1
  -7   1 -10 2.56000 1.51000   1
  -7   1 -10 0.63000 0.65000   1
  -7   1 -10 0.58000 0.54000   1
  -7  -1 -10 2.83000 2.34000   1
   7  -1  10 1.08000 1.18000   1
  -7   1 -10 1.19000 0.61000   1
  10   2 -11 1.07000 1.42000   1
 -10   2  11 2.23000 1.91000   1
 -10  -2  11 3.07000 1.30000   1
  10   2 -11 2.73000 2.18000   1
  10  -2 -11 2.83000 1.70000   1
   7  -3 -11 -0.3500 1.27000   1
  -7   3  11 -1.5400 1.49000   1
  -7   3  11 -0.8100 0.77000   1
   7   3 -11 0.18000 0.59000   1
   7   3 -11 0.35000 1.04000   1
   7   3 -11 0.95000 2.28000   1
  12   0 -10 17.7900 2.86000   1
  12   0 -10 14.9600 2.48000   1
 -12   0  10 16.5300 2.35000   1
   4   2  12 5.36000 2.04000   1
   4   2  12 2.61000 1.16000   1
  -4   2 -12 10.7400 4.76000   1
  -4   2 -12 4.25000 0.87000   1
  -4  -2 -12 3.51000 3.00000   1
  -4  -2 -12 4.87000 1.68000   1
  -4   2 -12 4.13000 1.04000   1
  11   2  -7 3.07000 2.10000   1
 -11  -2   7 3.63000 1.68000   1
 -11   2   7 3.47000 1.79000   1
  11   2  -7 2.38000 1.31000   1
  11  -2  -7 3.32000 1.94000   1
   3   4  -7 -0.7400 2.57000   1
  -3   4   7 0.33000 0.49000   1
  -3   4   7 -0.1600 1.91000   1
  -3   4   7 1.20000 1.44000   1
  -3   4   7 0.41000 1.08000   1
   3   4  -7 0.72000 1.55000   1
   9   3  -6 1.87000 2.02000   1
   9   3  -6 -0.0500 1.81000   1
   9   3  -6 1.82000 1.22000   1
  -9  -3   6 1.93000 1.26000   1
   9  -3  -6 2.14000 1.77000   1
  -9   3   6 0.53000 1.86000   1
   5   4  -4 0.24000 1.56000   1
  -5   4   4 0.77000 0.71000   1
  -5   4   4 -1.9800 1.70000   1
  -5  -4   4 0.54000 1.08000   1
   5   4  -4 2.97000 1.83000   1
   5   4  -4 -2.6900 1.64000   1
   8   2 -14 4.14000 2.18000   1
   8   2 -14 1.42000 1.14000   1
   8  -2 -14 2.36000 1.06000   1
  -8   2  14 2.61000 1.66000   1
   8  -2 -14 1.61000 1.24000   1
   8   2 -14 1.07000 0.60000   1
  12  -1  -8 10.5600 2.41000   1
  12   1  -8 10.9600 2.37000   1
 -12   1   8 19.1900 2.81000   1
 -12  -1   8 15.7200 2.46000   1
 -12   1   8 11.0400 2.03000   1
  12   1  -8 10.2100 2.15000   1
  12   0  -1 -1.0800 1.65000   1
 -12   0   1 -2.1700 1.77000   1
 -11   2   3 1.19000 1.17000   1
  11   2  -3 0.00000 1.70000   1
  11  -2  -3 2.23000 1.81000   1
 -11   2   3 2.21000 1.28000   1
  11   2  -3 0.02000 1.50000   1
 -11  -2   3 0.30000 1.74000   1
 -12   1   3 1.39000 1.10000   1
  12   1  -3 -0.0900 1.49000   1
  12  -1  -3 -0.8000 1.41000   1
  12   1  -3 0.25000 1.45000   1
 -12  -1   3 -1.8700 1.61000   1
 -12   1   3 0.16000 1.01000   1
  -2  -3 -11 -2.5300 2.56000   1
   2   3  11 -0.5200 1.37000   1
  -2   3 -11 2.96000 3.61000   1
  -2   3 -11 -0.0900 0.31000   1
  -2   3 -11 0.02000 0.70000   1
   2  -3  11 0.02000 0.42000   1
  11   1 -12 -0.7300 1.42000   1
 -11   1  12 0.91000 1.45000   1
  11   1 -12 -0.0600 1.11000   1
 -11  -1  12 -0.1800 0.93000   1
  11  -1 -12 -0.0900 1.17000   1
  11  -1 -12 0.47000 1.12000   1
   5   0  13 0.06000 0.39000   1
  -5   0 -13 0.81000 1.68000   1
  -5   0 -13 -0.9200 2.28000   1
  -5   0 -13 0.64000 0.79000   1
  -5   0 -13 0.03000 0.28000   1
   6  -3 -12 -0.9700 1.23000   1
  -6   3  12 0.27000 1.17000   1
  -6   3  12 1.42000 0.85000   1
  -6   3  12 -0.2900 1.51000   1
   6   3 -12 0.42000 0.97000   1
   6   3 -12 5.69000 2.43000   1
   6   3 -12 -0.0700 0.46000   1
  11   0 -13 0.44000 1.33000   1
  11   0 -13 -1.5000 1.27000   1
  -5   2 -11 -0.0300 0.36000   1
   5   2  11 -0.1100 1.18000   1
  -5   2 -11 0.11000 3.98000   1
  -5   2 -11 -0.2600 0.77000   1
  -5   2 -11 0.52000 0.46000   1
  -5   2 -11 0.03000 1.52000   1
  -5  -2 -11 -0.1600 0.42000   1
  -5  -2 -11 -0.1800 2.42000   1
  -5   2 -11 0.36000 0.28000   1
   5   2  11 1.37000 0.98000   1
   9   3  -2 3.51000 1.98000   1
  -9  -3   2 -0.9600 1.77000   1
   9   3  -2 1.86000 1.46000   1
   9   3  -2 2.68000 1.60000   1
   9  -3  -2 -0.5700 1.53000   1
  -9   3   2 1.13000 1.38000   1
   9  -3  -2 1.83000 1.49000   1
   0   4  -7 0.66000 1.57000   1
   0   4  -7 2.66000 3.55000   1
   0   4   7 -0.1500 1.51000   1
  -4   0 -14 -0.7500 1.84000   1
  -4   0 -14 -1.0000 2.88000   1
   2  -1 -17 2.78000 0.89000   1
  -2   1  17 1.81000 1.83000   1
  -2  -1  17 3.21000 1.34000   1
  -2   1  17 2.91000 1.09000   1
   2   1 -17 5.06000 2.73000   1
  -8   1  16 -1.0200 1.32000   1
   8   1 -16 -0.1000 0.83000   1
   8  -1 -16 -0.8400 1.04000   1
   8   1 -16 1.20000 1.65000   1
   8  -1 -16 0.37000 1.16000   1
  -3   2 -13 1.49000 0.64000   1
  -3  -2 -13 5.76000 2.08000   1
   3   2  13 1.61000 1.55000   1
   3   2  13 2.65000 0.96000   1
  -3   2 -13 4.49000 4.10000   1
   3   2  13 1.04000 0.53000   1
  -3   3  13 0.38000 1.55000   1
  -3   3  13 0.63000 1.19000   1
  -3  -3  13 0.00000 0.57000   1
   3   3 -13 -0.0500 0.57000   1
   3   3 -13 -0.5900 0.95000   1
   3   3 -13 -2.5600 2.39000   1
 -10  -2  -2 4.20000 2.44000   1
 -10   2  -2 1.73000 1.19000   1
  10   2   2 0.79000 1.56000   1
  10  -2   2 1.84000 1.80000   1
 -10   2  -2 3.02000 1.57000   1
   5   4   0 2.16000 1.35000   1
   5   4   0 0.88000 1.59000   1
  -5   4   0 0.30000 3.24000   1
  -5  -4   0 -1.3200 1.70000   1
  -5  -4   0 -0.7800 1.68000   1
  -5   4   0 -0.2900 0.48000   1
   5   4   0 1.88000 2.08000   1
   5  -4   0 0.40000 1.82000   1
  -5   4   0 0.72000 1.55000   1
  -5  -3  -8 1.11000 2.99000   1
  -5  -3  -8 1.02000 0.75000   1
  -5   3  -8 1.89000 5.10000   1
  -5   3  -8 3.19000 1.27000   1
   5   3   8 1.93000 1.49000   1
   5   3   8 1.72000 2.01000   1
   5  -3   8 1.30000 1.30000   1
   9   2 -13 0.19000 1.19000   1
   9  -2 -13 2.54000 1.39000   1
   9  -2 -13 1.01000 0.92000   1
  -9   2  13 1.94000 1.70000   1
   9   2 -13 2.58000 2.10000   1
  -6   1  17 -0.2300 0.58000   1
  -6  -1  17 0.42000 0.85000   1
   6   1 -17 0.09000 1.79000   1
   6  -1 -17 0.14000 0.82000   1
  -6   1  17 0.59000 1.19000   1
   6  -1 -17 0.88000 0.89000   1
   6   1 -17 1.20000 0.78000   1
  -6  -1  17 0.38000 1.08000   1
 -11   1  -2 -0.4500 1.52000   1
  11  -1   2 2.11000 1.42000   1
  11   1   2 1.73000 1.50000   1
 -11  -1  -2 1.57000 1.82000   1
 -11   1  -2 -0.8100 0.98000   1
  10  -1 -14 14.7900 2.45000   1
  10  -1 -14 9.39000 2.54000   1
  10   1 -14 10.6800 2.31000   1
 -10   1  14 16.3800 2.78000   1
 -11   0  -3 -1.0000 1.65000   1
  11   0   3 -0.3500 1.39000   1
   0   2  15 0.42000 0.45000   1
   0  -2  15 -0.1000 0.82000   1
   0   2  15 -0.2400 1.45000   1
   0   2  15 0.54000 1.49000   1
   0   2 -15 0.72000 2.24000   1
   0   2 -15 1.03000 0.98000   1
   0   2 -15 -0.0400 0.37000   1
   0   2 -15 -0.3100 0.50000   1
   0  -2 -15 0.17000 0.29000   1
  -6   0 -12 2.20000 1.90000   1
   6   0  12 1.30000 0.81000   1
  -6   0 -12 0.81000 0.50000   1
  -6   0 -12 1.23000 0.54000   1
  -2   3  13 0.56000 1.43000   1
  -2   3  13 0.10000 1.08000   1
   2   3 -13 0.03000 1.11000   1
  -2  -3  13 0.21000 0.42000   1
  -2  -3  13 -0.2000 0.46000   1
   2   3 -13 -2.3500 3.15000   1
   2   3 -13 0.66000 0.77000   1
   5   4  -5 1.73000 1.17000   1
   5   4  -5 2.23000 1.51000   1
  -5   4   5 -0.5600 0.77000   1
   5   4  -5 0.48000 1.99000   1
  -5  -4   5 0.11000 0.80000   1
  -5   4   5 -1.0000 1.58000   1
  -4   3  13 -0.7800 1.39000   1
  -4   3  13 1.60000 1.64000   1
   4   3 -13 0.69000 2.22000   1
   4   3 -13 0.45000 1.04000   1
  -4   4  -3 3.67000 3.73000   1
  -4  -4  -3 0.82000 1.10000   1
  -4  -4  -3 -0.4200 2.03000   1
   4   4   3 -2.2200 2.04000   1
   4  -4   3 1.16000 1.86000   1
   4   4   3 2.03000 0.89000   1
   4  -4   3 0.56000 0.64000   1
  -4  -4  -3 -0.9800 1.72000   1
   9   3  -7 2.56000 1.18000   1
   9   3  -7 -1.5200 1.73000   1
  -9  -3   7 -0.7400 1.36000   1
   9   3  -7 -0.7400 1.43000   1
  -9   3   7 0.23000 1.06000   1
 -11   2   8 2.03000 1.15000   1
  11   2  -8 1.99000 1.90000   1
  11  -2  -8 0.21000 1.63000   1
  11   2  -8 0.40000 1.48000   1
 -11  -2   8 1.59000 1.44000   1
  -7   2  15 0.55000 1.48000   1
   7   2 -15 1.43000 0.97000   1
   7  -2 -15 1.65000 1.10000   1
   7   2 -15 0.93000 0.63000   1
   7  -2 -15 1.02000 1.03000   1
  -7   2  15 1.20000 1.51000   1
   7   2 -15 3.43000 2.27000   1
 -11   2   2 0.12000 1.11000   1
  11  -2  -2 -0.5700 0.54000   1
  11   2  -2 0.89000 1.54000   1
  11   2  -2 1.33000 0.95000   1
  11  -2  -2 -0.1400 1.06000   1
 -11  -2   2 -0.5500 1.62000   1
 -11   2   2 -1.3100 1.35000   1
  -9   1  -7 1.14000 1.48000   1
  -9  -1  -7 -0.2900 1.82000   1
   9  -1   7 1.64000 1.26000   1
  -9   1  -7 0.69000 0.75000   1
   9   1   7 -1.0000 1.24000   1
   8   3 -10 0.19000 2.08000   1
   8   3 -10 0.55000 1.36000   1
  -8  -3  10 0.22000 0.91000   1
   8   3 -10 0.89000 0.65000   1
  -8   3  10 1.11000 1.78000   1
 -12   1   9 2.21000 1.09000   1
  12   1  -9 0.54000 1.39000   1
  12  -1  -9 1.71000 1.23000   1
  12  -1  -9 -0.5900 1.16000   1
 -12   1   9 1.48000 1.79000   1
 -12  -1   9 1.45000 1.12000   1
  -3   0 -15 0.01000 2.28000   1
  -3   0 -15 2.33000 1.85000   1
  -9  -3   1 0.59000 1.61000   1
   9   3  -1 0.25000 1.20000   1
   9   3  -1 -0.5300 1.06000   1
   9   3  -1 -2.4500 1.71000   1
  -9   3   1 0.97000 1.11000   1
   9  -3  -1 1.64000 1.50000   1
  12  -1  -2 11.4800 2.32000   1
  12   1  -2 11.6800 2.78000   1
  12   1  -2 7.05000 2.11000   1
 -12   1   2 8.57000 2.17000   1
 -12  -1   2 13.8400 2.78000   1
 -12   1   2 14.8200 2.92000   1
   6  -2  10 0.54000 1.20000   1
   6   2  10 0.64000 1.03000   1
   6   2  10 0.35000 1.19000   1
  -6  -2 -10 -0.1000 0.60000   1
  -6   2 -10 1.36000 0.93000   1
  -6   2 -10 0.32000 0.54000   1
  -6  -2 -10 0.03000 2.54000   1
  -6   2 -10 0.23000 0.46000   1
  -6   2 -10 0.67000 2.02000   1
  -6   2 -10 0.04000 0.38000   1
   9   0 -16 9.36000 2.14000   1
   9   0 -16 13.8600 2.49000   1
  -9   0  16 13.6500 2.41000   1
   7  -3   5 0.91000 1.42000   1
  -7   3  -5 -0.3700 0.87000   1
  -7  -3  -5 0.17000 0.81000   1
   7   3   5 0.38000 1.53000   1
   7   3   5 -0.9100 1.15000   1
  -7  -3  -5 0.90000 2.21000   1
  -7   3  -5 -0.4000 0.80000   1
   2   4   6 0.62000 1.99000   1
  -2  -4  -6 3.34000 2.42000   1
  -2   4  -6 3.68000 3.81000   1
  -2   4  -6 -0.2400 1.26000   1
  -4   4   7 1.96000 1.97000   1
  -4   4   7 0.46000 1.04000   1
  -4   4   7 -0.3100 1.74000   1
   4   4  -7 1.31000 1.20000   1
   4   4  -7 -0.7100 2.55000   1
  -4   4   7 0.08000 0.59000   1
  10  -1   5 2.66000 1.47000   1
  10   1   5 1.18000 1.41000   1
 -10   1  -5 1.47000 1.48000   1
 -10   1  -5 1.11000 1.18000   1
 -10  -1  -5 0.24000 2.04000   1
 -10  -1  -5 0.41000 0.42000   1
  -5  -4  -1 1.10000 1.75000   1
   5  -4   1 -0.1700 1.98000   1
   5   4   1 1.77000 2.10000   1
   5   4   1 -0.7100 1.77000   1
  -5  -4  -1 0.19000 1.93000   1
  -5   4  -1 -0.1100 1.43000   1
  -5   4  -1 1.67000 3.74000   1
   5   4   1 2.61000 1.51000   1
   4  -2 -16 0.41000 0.69000   1
   4   2 -16 0.45000 0.82000   1
  -4   2  16 0.54000 1.65000   1
  -4   2  16 0.40000 1.14000   1
  -4   2  16 0.67000 0.57000   1
  -4   2  16 1.35000 1.33000   1
  -4  -2  16 0.61000 0.63000   1
   4   2 -16 -0.2100 1.80000   1
   4   2 -16 0.82000 0.44000   1
  -9  -2  -5 0.95000 1.66000   1
   9   2   5 0.19000 1.29000   1
   9  -2   5 0.94000 1.34000   1
   9   2   5 0.38000 1.38000   1
  -9  -2  -5 1.72000 0.87000   1
  -9   2  -5 1.34000 1.27000   1
  -9   2  -5 0.27000 1.16000   1
  -8   2  -7 5.74000 1.62000   1
   8   2   7 5.90000 1.59000   1
   8   2   7 6.59000 1.84000   1
  -8   2  -7 3.13000 1.11000   1
  -8   2  -7 3.82000 0.69000   1
  -8  -2  -7 9.17000 2.39000   1
   1   3  12 1.91000 1.75000   1
  -1   3 -12 1.04000 0.70000   1
  -1   3 -12 -0.8800 3.69000   1
   1  -3  12 0.45000 0.43000   1
  10   0 -15 -1.2100 1.36000   1
 -10   0  15 0.48000 1.34000   1
  10   0 -15 0.10000 0.99000   1
  -1  -1 -16 6.26000 3.11000   1
  -1  -1 -16 10.0300 2.25000   1
  -1   1 -16 5.41000 3.28000   1
   1   1  16 7.30000 1.63000   1
  -1  -1 -16 4.41000 0.77000   1
  -1   1 -16 7.00000 1.87000   1
   1  -1  16 6.81000 1.55000   1
   1   1  16 6.65000 1.27000   1
  -3   2  16 0.52000 0.54000   1
   3   2 -16 1.08000 0.32000   1
   3   2 -16 3.95000 2.95000   1
  -3  -2  16 0.52000 0.45000   1
   3   2 -16 0.85000 0.60000   1
   3   2 -16 0.79000 0.98000   1
   3  -2 -16 0.63000 0.56000   1
  -3   2  16 1.33000 1.38000   1
  -3   2  16 1.95000 1.75000   1
  -2   2 -14 0.67000 4.05000   1
  -2  -2 -14 3.90000 2.95000   1
  -2   2 -14 2.77000 0.59000   1
  -2   2 -14 2.74000 0.96000   1
   2   2  14 1.83000 0.64000   1
   2   2  14 3.44000 0.87000   1
  -2  -2 -14 1.59000 0.79000   1
   2   2  14 5.83000 1.53000   1
  -2  -2 -14 1.62000 0.38000   1
  -3  -4  -5 3.01000 2.37000   1
   3   4   5 -0.4000 1.57000   1
   3  -4   5 0.61000 0.57000   1
   3   4   5 0.30000 0.66000   1
  -3   4  -5 0.92000 2.70000   1
  -3   4  -5 0.65000 1.31000   1
  12   0 -11 0.93000 1.03000   1
  12   0 -11 0.58000 1.35000   1
 -12   0  11 -0.2300 1.46000   1
  -2   4   8 -0.6900 1.34000   1
  -2   4   8 0.30000 0.29000   1
  -2  -4   8 -0.0200 0.23000   1
   2   4  -8 1.57000 1.65000   1
   2   4  -8 -1.4200 3.14000   1
  -2   4   8 -0.6000 1.18000   1
  -2   4   8 0.11000 0.54000   1
   1   4   7 0.82000 2.09000   1
  -1   4  -7 -0.2200 1.15000   1
  -1   4  -7 -6.7600 4.26000   1
  -1   3  13 -1.6300 1.69000   1
  -1   3  13 1.04000 1.48000   1
   1   3 -13 1.76000 2.89000   1
   1   3 -13 1.08000 0.84000   1
  -1  -3  13 0.24000 0.41000   1
  -1  -3  13 0.46000 0.46000   1
  -5   3  13 0.96000 0.92000   1
  -5   3  13 3.96000 1.45000   1
  -5   3  13 1.11000 1.80000   1
   5  -3 -13 1.18000 1.03000   1
  -5   3  13 2.98000 1.70000   1
   5   3 -13 4.08000 3.16000   1
   5   3 -13 1.35000 1.22000   1
 -12   0   0 2.14000 1.80000   1
  12   0   0 0.13000 1.56000   1
   0   0  17 0.49000 0.85000   1
   0   0 -17 -1.1600 1.36000   1
   0   0 -17 0.16000 1.28000   1
  -5   4   6 0.05000 1.17000   1
   5   4  -6 -0.7000 1.11000   1
   5   4  -6 -1.2800 1.58000   1
  -5  -4   6 -0.1000 0.65000   1
  -5   4   6 2.00000 1.74000   1
   5   4  -6 3.06000 2.00000   1
   1   4  -8 0.93000 4.05000   1
  -1   4   8 0.99000 2.33000   1
   1   4  -8 1.28000 1.47000   1
  -8  -3  -3 2.33000 2.16000   1
  -8  -3  -3 0.44000 1.08000   1
   8   3   3 0.84000 1.33000   1
   8   3   3 1.25000 1.43000   1
   8   3   3 2.38000 1.86000   1
  -8   3  -3 -0.8300 1.01000   1
   8  -3   3 0.22000 1.57000   1
  -8   3  -3 1.18000 1.05000   1
  -4   0  18 3.89000 1.04000   1
   4   0 -18 5.46000 2.18000   1
  -4   0  18 7.00000 1.87000   1
  -1   1  17 6.76000 2.01000   1
   1   1 -17 2.91000 1.84000   1
   1  -1 -17 4.21000 1.41000   1
   1  -1 -17 3.53000 0.80000   1
  -1   1  17 5.47000 1.39000   1
  -1  -1  17 4.30000 1.51000   1
   1   1 -17 6.60000 3.17000   1
  -9  -3   8 0.80000 1.17000   1
   9   3  -8 0.73000 1.18000   1
   9   3  -8 2.55000 2.13000   1
  -9   3   8 0.29000 1.77000   1
   9  -3  -8 0.79000 1.25000   1
   6  -3   7 1.99000 1.46000   1
  -6   3  -7 1.13000 0.92000   1
  -6  -3  -7 0.18000 0.80000   1
  -6  -3  -7 1.64000 2.76000   1
  -6   3  -7 1.89000 1.03000   1
  -6   3  -7 -1.7600 2.09000   1
   6   3   7 1.91000 1.80000   1
   6  -3   7 1.33000 0.97000   1
   6   3   7 2.28000 1.38000   1
   5   2 -16 0.16000 0.63000   1
   5  -2 -16 0.93000 0.89000   1
  -5   2  16 -0.2800 1.20000   1
   5  -2 -16 -0.4500 0.68000   1
   5   2 -16 0.16000 0.45000   1
  -5   2  16 0.11000 1.19000   1
  -5   2  16 -0.5600 1.49000   1
   5   2 -16 -0.1100 2.06000   1
  -5  -2  16 -0.0500 0.69000   1
  11  -2  -9 0.05000 1.08000   1
 -11  -2   9 -0.0600 1.21000   1
 -11   2   9 -0.5400 1.31000   1
  11   2  -9 -1.4300 1.26000   1
  -8  -1  -9 5.21000 2.40000   1
  -8   1  -9 0.57000 0.86000   1
   8   1   9 2.75000 1.18000   1
   8  -1   9 3.10000 1.32000   1
  -8   1  -9 4.58000 1.71000   1
  -7   0 -11 0.62000 0.50000   1
  -7   0 -11 -0.8000 1.63000   1
   7   0  11 0.25000 0.76000   1
  -7   0 -11 -0.3700 0.54000   1
  -3   4   8 2.32000 1.81000   1
  -3   4   8 0.04000 1.05000   1
  -3   4   8 0.33000 0.50000   1
  -3   4   8 0.19000 1.16000   1
   3   4  -8 1.01000 2.12000   1
   5   0 -18 57.1000 5.31000   1
  -5   0  18 53.8400 4.14000   1
 -11   2   1 0.31000 1.17000   1
  11  -2  -1 0.36000 1.60000   1
 -11   2   1 -1.1300 1.37000   1
 -11  -2   1 1.12000 1.29000   1
  11   2  -1 0.96000 1.41000   1
  11   2  -1 0.74000 1.53000   1
  10  -2 -12 2.54000 1.76000   1
  10   2 -12 2.92000 1.62000   1
 -10  -2  12 5.88000 1.54000   1
  10   2 -12 1.83000 2.51000   1
 -10   2  12 5.75000 2.18000   1
   8   0 -17 0.67000 0.87000   1
  -8   0  17 0.06000 1.25000   1
   8   0 -17 0.75000 1.35000   1
   7  -1 -17 3.06000 1.29000   1
   7   1 -17 4.83000 2.04000   1
   7  -1 -17 3.96000 1.32000   1
   7   1 -17 1.86000 1.07000   1
  -7   1  17 5.09000 1.54000   1
 -10   0  -6 1.17000 1.54000   1
  10   0   6 -0.5900 1.16000   1
  -2  -2  16 -0.9200 0.78000   1
   2   2 -16 0.59000 0.56000   1
   2  -2 -16 0.43000 0.41000   1
   2   2 -16 -0.2200 1.01000   1
   2   2 -16 -1.7100 2.66000   1
  -2  -2  16 0.22000 0.22000   1
  -2   2  16 1.10000 1.53000   1
  -2   2  16 0.64000 0.50000   1
  -2  -2  16 -0.0400 0.26000   1
  -2   2  16 1.56000 1.11000   1
   2   2 -16 -0.2600 0.43000   1
   3   0 -18 16.5000 2.38000   1
  -3   0  18 8.09000 1.39000   1
  -3   0  18 14.7200 2.59000   1
  -3   0  18 9.26000 1.05000   1
  -9  -3   0 -1.5100 1.72000   1
   9   3   0 -0.1100 1.33000   1
   9   3   0 1.78000 1.73000   1
   9   3   0 -1.7700 1.27000   1
  -9   3   0 -0.0800 1.09000   1
   9  -3   0 1.82000 1.06000   1
   9  -3   0 1.83000 1.45000   1
  -9   3   0 -0.2900 1.09000   1
 -12   1  10 2.94000 1.42000   1
  12  -1 -10 3.48000 1.75000   1
  12   1 -10 2.63000 1.31000   1
  12  -1 -10 0.75000 1.66000   1
  12   1 -10 1.15000 1.73000   1
 -12  -1  10 1.30000 1.56000   1
   9   0   8 4.81000 1.56000   1
  -9   0  -8 4.12000 1.66000   1
  12   1  -1 3.76000 1.98000   1
  12  -1  -1 1.58000 2.02000   1
 -12   1   1 2.18000 1.42000   1
 -12  -1   1 4.87000 2.11000   1
 -12   1   1 3.99000 1.52000   1
  -2   0 -16 1.38000 1.72000   1
  -2   0 -16 1.80000 2.76000   1
   5  -1  13 3.44000 0.76000   1
  -5  -1 -13 2.08000 2.11000   1
  -5   1 -13 6.80000 1.67000   1
  -5  -1 -13 2.36000 0.81000   1
   5   1  13 2.28000 0.83000   1
   5   1  13 6.80000 1.44000   1
  -5   1 -13 6.87000 4.19000   1
  -5   1 -13 6.05000 2.05000   1
  -5  -1 -13 5.65000 2.76000   1
  -4   4  -4 -0.5500 1.12000   1
   4  -4   4 0.15000 0.62000   1
   4   4   4 0.33000 0.65000   1
  -4  -4  -4 0.20000 0.90000   1
  -4  -4  -4 -2.6500 1.98000   1
  -4   4  -4 5.44000 3.38000   1
   4   4   4 -1.2100 1.34000   1
  11   1 -13 10.2500 1.97000   1
  11  -1 -13 11.3700 2.41000   1
  11   1 -13 17.1400 2.84000   1
 -11   1  13 14.2400 2.86000   1
  11  -1 -13 9.15000 1.95000   1
  -5   4  -2 1.22000 3.79000   1
  -5   4  -2 -0.9800 1.42000   1
   5  -4   2 1.26000 0.87000   1
  -5  -4  -2 0.92000 1.61000   1
   5   4   2 -0.4100 1.58000   1
  -5  -4  -2 1.20000 1.90000   1
   5   4   2 -0.9000 1.75000   1
   5   4   2 -0.2900 1.05000   1
   5  -4   2 1.16000 1.82000   1
   4   1  14 4.02000 1.29000   1
  -4   1 -14 3.60000 3.76000   1
  -4   1 -14 2.24000 1.41000   1
  -4  -1 -14 2.40000 2.74000   1
  -4  -1 -14 7.35000 2.28000   1
  -7   3  12 2.10000 1.12000   1
  -7   3  12 -0.0300 0.80000   1
   7  -3 -12 0.78000 1.33000   1
   7   3 -12 2.81000 2.52000   1
   7   3 -12 -0.7000 1.15000   1
   0   4  -8 -0.0200 1.31000   1
   0   4  -8 -3.5100 3.39000   1
   0   4   8 1.13000 1.42000   1
  10  -2   3 -0.2500 1.46000   1
 -10  -2  -3 -0.8200 2.05000   1
 -10  -2  -3 0.89000 0.80000   1
 -10   2  -3 0.86000 1.18000   1
  10   2   3 0.15000 1.33000   1
 -10   2  -3 1.45000 1.34000   1
  -7  -2  -9 4.04000 1.89000   1
  -7   2  -9 0.92000 0.97000   1
   7   2   9 0.13000 1.02000   1
   7  -2   9 0.07000 1.03000   1
   7   2   9 -0.1400 1.29000   1
  -7   2  -9 0.18000 0.37000   1
  -7   2  -9 0.59000 0.69000   1
  -7   2  -9 -0.0100 0.51000   1
  -6  -4   3 0.10000 1.11000   1
   6   4  -3 -0.9100 1.60000   1
   6   4  -3 0.35000 1.50000   1
   6   4  -3 1.12000 1.44000   1
  -6   4   3 -0.1500 0.65000   1
  -6   4   3 -1.5900 1.46000   1
   6  -4  -3 1.85000 1.51000   1
  -6   4   3 3.47000 2.48000   1
   6   4  -2 2.94000 1.63000   1
   6   4  -2 0.15000 1.38000   1
  -6  -4   2 0.19000 1.62000   1
  -6  -4   2 0.14000 1.51000   1
   6   4  -2 -0.0800 1.84000   1
   6   4  -2 -0.0800 1.76000   1
  -6   4   2 -0.1000 0.62000   1
  -6   4   2 4.79000 2.50000   1
  -6   4   2 -1.2000 1.05000   1
   6  -4  -2 2.58000 1.63000   1
   6  -4  -2 -0.0500 1.77000   1
   6   0 -18 4.28000 1.72000   1
   6   0 -18 3.28000 0.94000   1
  -6   0  18 4.67000 1.57000   1
  11   0 -14 1.80000 1.50000   1
  11   0 -14 0.93000 1.06000   1
  11   1   3 -0.3500 1.48000   1
  11  -1   3 0.75000 1.54000   1
 -11   1  -3 1.71000 1.18000   1
 -11  -1  -3 2.18000 1.99000   1
 -11   1  -3 0.09000 0.97000   1
  -6  -4   4 1.45000 1.18000   1
   6   4  -4 1.79000 1.72000   1
   6   4  -4 -1.7400 2.09000   1
   6   4  -4 0.36000 1.55000   1
  -6   4   4 2.04000 2.42000   1
  -6   4   4 0.00000 0.75000   1
   6  -4  -4 1.10000 1.50000   1
  -6   4   4 0.52000 1.61000   1
   6  -2 -16 1.08000 0.63000   1
   6   2 -16 -0.2600 2.11000   1
   6  -2 -16 0.38000 1.02000   1
   6   2 -16 0.06000 0.82000   1
   6   2 -16 0.83000 0.53000   1
  -6   2  16 0.15000 1.51000   1
  -6   2  16 1.40000 1.52000   1
  -6   2  16 0.11000 1.34000   1
   6   1  12 0.87000 0.96000   1
   6  -1  12 0.84000 0.66000   1
  -6  -1 -12 3.19000 2.23000   1
  -6   1 -12 1.11000 0.30000   1
  -6   1 -12 2.50000 1.53000   1
  -6   1 -12 4.90000 1.94000   1
  -6   1 -12 0.94000 0.52000   1
  -4   4   8 0.14000 1.85000   1
   4   4  -8 0.19000 2.41000   1
   4   4  -8 -0.2700 1.33000   1
   4   4  -8 -1.2600 1.33000   1
  -4   4   8 1.69000 1.39000   1
  -4   4   8 1.03000 1.09000   1
  -4   4   8 0.09000 0.56000   1
  -5  -4   7 0.59000 0.49000   1
   5   4  -7 2.51000 1.57000   1
   5   4  -7 2.54000 2.36000   1
   5   4  -7 0.70000 1.49000   1
  -5   4   7 1.05000 0.69000   1
  -5   4   7 -0.5100 1.68000   1
  -5   4   7 -0.1800 0.92000   1
  -8   3  11 1.13000 1.20000   1
   8  -3 -11 -0.5000 1.32000   1
   8   3 -11 0.48000 0.71000   1
   8   3 -11 -0.3800 1.17000   1
   8   3 -11 -0.1800 2.03000   1
  -6  -4   1 1.83000 1.50000   1
  -6  -4   1 -2.5500 1.43000   1
   6   4  -1 0.26000 1.71000   1
   6   4  -1 2.01000 1.48000   1
   6   4  -1 -0.4200 1.25000   1
  -6   4   1 -0.2700 0.51000   1
  -6   4   1 -2.1800 1.75000   1
  -6   4   1 0.72000 1.37000   1
   6  -4  -1 -2.5400 1.60000   1
   6  -4  -1 1.52000 1.16000   1
   9   3  -9 0.06000 1.23000   1
  -9  -3   9 -1.3900 1.10000   1
   9   3  -9 1.86000 1.76000   1
   9  -3  -9 -0.8200 1.31000   1
  -9   3   9 0.90000 0.93000   1
  -1   2 -15 0.52000 0.87000   1
  -1   2 -15 0.99000 3.62000   1
   1   2  15 0.99000 1.21000   1
   1   2  15 0.81000 0.62000   1
   1   2  15 0.37000 0.42000   1
   1   2  15 -0.6300 1.20000   1
  -1  -2 -15 1.05000 0.47000   1
  -2   0  18 10.6400 2.08000   1
  -2   0  18 4.89000 0.84000   1
   2   0 -18 8.07000 1.83000   1
   0   3  13 1.27000 1.02000   1
   0   3  13 -0.2800 1.62000   1
   0  -3  13 0.25000 0.39000   1
   0   3 -13 0.14000 0.67000   1
   0   3 -13 0.71000 3.56000   1
 -11   2  10 0.38000 1.41000   1
 -11  -2  10 0.12000 1.10000   1
  11   2 -10 0.20000 1.67000   1
  11  -2 -10 -0.3400 1.35000   1
  11   2 -10 1.19000 1.26000   1
   4   3  10 1.20000 1.46000   1
  -4   3 -10 0.10000 1.14000   1
  -4  -3 -10 3.86000 3.21000   1
  -4   3 -10 -4.1200 4.73000   1
  -4   3 -10 0.74000 0.76000   1
   4   3  10 3.67000 1.96000   1
  -6   3  13 0.28000 1.04000   1
  -6   3  13 2.82000 1.56000   1
   6  -3 -13 0.63000 1.42000   1
  -6   3  13 1.01000 1.73000   1
   6   3 -13 0.98000 1.24000   1
   6   3 -13 7.37000 2.74000   1
  -3  -1 -15 5.84000 1.85000   1
  -3  -1 -15 5.32000 1.92000   1
   3   1  15 0.91000 0.97000   1
  -3   1 -15 2.60000 3.41000   1
  -3   1 -15 1.23000 1.37000   1
  -3  -3 -11 -0.7400 2.88000   1
   3   3  11 -1.2100 1.74000   1
   3   3  11 -0.0800 1.05000   1
  -3   3 -11 0.69000 0.78000   1
  -3   3 -11 0.40000 3.86000   1
  -3   3 -11 -0.4400 0.53000   1
   3  -3  11 -0.1500 0.40000   1
  11   0   4 10.1000 2.30000   1
 -11   0  -4 10.7300 2.50000   1
   9  -2 -14 1.19000 1.07000   1
   9  -2 -14 0.08000 0.94000   1
  -9   2  14 0.88000 1.46000   1
   9   2 -14 0.06000 1.00000   1
   9   2 -14 1.76000 1.42000   1
  12   0 -12 0.34000 1.32000   1
  12   0 -12 0.81000 1.14000   1
   9   1 -16 7.84000 2.10000   1
   9  -1 -16 3.39000 1.77000   1
   9   1 -16 3.15000 1.38000   1
   9  -1 -16 3.60000 1.47000   1
  -9   1  16 6.17000 1.78000   1
  -8   2  15 1.66000 1.85000   1
   8   2 -15 1.72000 2.34000   1
   8  -2 -15 0.97000 1.29000   1
   8  -2 -15 2.54000 1.26000   1
   8   2 -15 2.23000 1.15000   1
   6   4  -5 1.34000 1.12000   1
  -6  -4   5 0.68000 1.12000   1
   6   4  -5 4.36000 2.00000   1
   6   4  -5 -0.3200 1.28000   1
  -6   4   5 2.33000 1.84000   1
   6  -4  -5 -3.1000 1.66000   1
  -6   4   5 -2.7000 2.37000   1
  -6   4   5 1.32000 0.77000   1
  11  -2   0 2.49000 1.71000   1
  11   2   0 4.67000 1.98000   1
 -11   2   0 2.94000 1.61000   1
 -11   2   0 3.99000 1.82000   1
 -11  -2   0 5.38000 2.26000   1
   2   4   7 2.18000 2.01000   1
  -2  -4  -7 1.11000 2.42000   1
  -2   4  -7 0.39000 1.23000   1
  -2   4  -7 -0.4300 3.88000   1
   1   2 -16 1.48000 0.55000   1
  -1   2  16 0.64000 0.55000   1
  -1   2  16 1.70000 1.87000   1
  -1  -2  16 0.46000 0.84000   1
  -1   2  16 1.84000 1.45000   1
   1   2 -16 1.68000 1.20000   1
   1   2 -16 5.60000 3.66000   1
   1  -2 -16 0.87000 0.38000   1
  12   0   1 1.87000 1.56000   1
 -12   0  -1 -0.5200 1.58000   1
  10   1 -15 3.71000 1.59000   1
  10   1 -15 5.10000 2.12000   1
  10  -1 -15 5.22000 1.70000   1
 -10   1  15 7.58000 2.17000   1
  10  -1 -15 6.55000 1.84000   1
  -3   4  -6 0.58000 1.22000   1
   3   4   6 0.32000 0.42000   1
   3   4   6 0.03000 1.45000   1
  -3   4  -6 -1.1800 3.85000   1
  -3  -4  -6 2.04000 2.47000   1
  -9  -3  -1 -0.2600 0.94000   1
   9   3   1 0.93000 1.53000   1
  -9  -3  -1 0.91000 1.83000   1
   9   3   1 2.62000 1.38000   1
   9   3   1 1.36000 1.67000   1
   9  -3   1 0.16000 1.44000   1
  -9   3  -1 -0.7500 1.06000   1
  -9   3  -1 0.70000 1.06000   1
   8   0  10 0.85000 0.93000   1
  -8   0 -10 1.10000 1.88000   1
 -12   1  11 1.82000 1.31000   1
 -12  -1  11 2.22000 1.57000   1
  12  -1 -11 2.39000 1.16000   1
  12   1 -11 1.79000 1.53000   1
  12   1 -11 2.04000 1.61000   1
  12  -1 -11 0.38000 1.59000   1
   5   3   9 -0.5300 1.87000   1
   5   3   9 1.54000 1.48000   1
   5  -3   9 0.66000 1.09000   1
  -5  -3  -9 -1.7600 2.78000   1
  -5   3  -9 -1.0600 4.58000   1
  -5   3  -9 0.30000 0.72000   1
  -5   3  -9 0.67000 0.63000   1
   7   3   6 -0.2600 1.49000   1
   7   3   6 -0.2100 1.18000   1
  -7   3  -6 0.61000 0.77000   1
  -7  -3  -6 0.59000 0.65000   1
  -7   3  -6 3.38000 1.74000   1
  -7  -3  -6 4.00000 2.27000   1
  -7   3  -6 -0.8900 0.77000   1
   7  -3   6 -0.1000 1.32000   1
   6   4   0 -0.2300 1.52000   1
   6   4   0 0.32000 1.87000   1
  -6  -4   0 -1.0600 1.54000   1
  -6  -4   0 0.36000 1.62000   1
   6   4   0 2.75000 1.76000   1
  -6   4   0 -1.1600 1.40000   1
  -6   4   0 6.18000 2.64000   1
  -6   4   0 0.26000 0.45000   1
   6  -4   0 -1.3500 1.75000   1
   6  -4   0 -1.3300 1.25000   1
 -13   0   6 0.26000 1.69000   1
  13   0  -6 -1.0500 1.64000   1
  13   0  -6 2.07000 1.17000   1
  -2   4   9 0.03000 1.35000   1
  -2   4   9 1.50000 1.90000   1
   2   4  -9 -0.9900 1.38000   1
   2   4  -9 4.68000 3.15000   1
 -12   1   0 6.13000 1.59000   1
  12   1   0 5.95000 2.13000   1
  12  -1   0 0.56000 2.10000   1
 -12  -1   0 6.86000 1.87000   1
 -12   1   0 6.93000 2.11000   1
   0   1  17 1.17000 0.90000   1
   0   1  17 3.39000 1.89000   1
   0   1 -17 2.59000 3.28000   1
   0  -1 -17 3.23000 1.62000   1
   0   1 -17 1.56000 2.00000   1
   0  -1  17 4.06000 1.30000   1
  -5  -4  -3 1.02000 1.48000   1
  -5  -4  -3 0.68000 2.08000   1
  -5   4  -3 -0.8700 1.19000   1
  -5   4  -3 -5.7200 3.60000   1
   5   4   3 0.21000 1.65000   1
   5   4   3 2.81000 1.86000   1
   5   4   3 -0.1500 1.09000   1
   8   3   4 -0.3600 1.21000   1
  -8  -3  -4 0.19000 1.03000   1
   8   3   4 -1.5900 1.31000   1
  -8  -3  -4 3.24000 2.10000   1
   8  -3   4 2.61000 1.49000   1
  -8   3  -4 -1.1600 0.94000   1
  -8   3  -4 -1.1000 1.04000   1
   4   1 -18 0.62000 1.68000   1
  -4   1  18 1.40000 1.54000   1
  -4   1  18 0.66000 0.84000   1
  -4  -1  18 0.18000 0.51000   1
   4  -1 -18 0.62000 0.76000   1
   4   1 -18 -0.4900 0.36000   1
  13   0  -7 -1.3900 1.12000   1
  13   0  -7 0.15000 1.61000   1
 -13   0   7 0.38000 1.63000   1
   2   3  12 -1.0100 1.48000   1
  -2  -3 -12 3.48000 2.70000   1
  -2   3 -12 0.60000 0.56000   1
  -2   3 -12 0.00000 0.33000   1
  -2   3 -12 -2.4300 2.48000   1
  13   0  -5 -0.0300 1.05000   1
 -13   0   5 0.37000 1.19000   1
  -1   4  -8 -0.4000 1.04000   1
  -1   4  -8 3.50000 3.68000   1
   1   4   8 0.14000 1.79000   1
  -3   4   9 0.38000 1.13000   1
  -3   4   9 -0.3600 1.94000   1
  -3   4   9 0.60000 0.83000   1
   3   4  -9 0.47000 1.34000   1
   3   4  -9 1.97000 3.05000   1
  -7   1 -11 0.53000 0.50000   1
   7   1  11 -0.2200 0.93000   1
   7  -1  11 0.20000 0.95000   1
  -7   1 -11 0.83000 1.49000   1
  -7  -1 -11 0.50000 1.91000   1
  -3   3  14 2.61000 1.74000   1
  -3   3  14 3.01000 1.64000   1
   3   3 -14 0.20000 3.32000   1
   3   3 -14 2.13000 1.12000   1
   5   1 -18 1.02000 1.83000   1
   5  -1 -18 1.31000 0.89000   1
  -5   1  18 1.09000 1.03000   1
  -5  -1  18 0.31000 0.73000   1
   5  -1 -18 0.53000 0.60000   1
  -5  -1  18 0.36000 0.87000   1
  -5   1  18 -0.0300 1.52000   1
   5   1 -18 0.40000 0.60000   1
  -1   4   9 -1.3500 0.99000   1
  -1   4   9 -0.2800 2.15000   1
   1   4  -9 3.46000 4.14000   1
   1   4  -9 0.72000 1.64000   1
   6   4  -6 2.27000 1.53000   1
   6   4  -6 2.64000 1.93000   1
   6   4  -6 -1.3100 1.45000   1
   6  -4  -6 -0.9800 1.11000   1
  -6   4   6 -0.2400 1.64000   1
  -6   4   6 -0.0600 0.78000   1
  -6   4   6 -1.1700 2.18000   1
   7   0 -18 12.5500 2.26000   1
   7   0 -18 22.3900 2.98000   1
  -7   0  18 21.2900 2.81000   1
   8   1 -17 -0.1400 0.83000   1
   8  -1 -17 0.32000 0.82000   1
   8  -1 -17 -0.1300 1.01000   1
  -8   1  17 0.61000 1.26000   1
   8   1 -17 0.92000 1.49000   1
   9  -2   6 8.40000 1.69000   1
   9   2   6 2.43000 1.42000   1
   9   2   6 3.01000 1.63000   1
  -9  -2  -6 2.07000 2.82000   1
  -9   2  -6 0.80000 1.00000   1
  -9   2  -6 1.72000 1.51000   1
  -4   3  14 0.62000 1.17000   1
  -4   3  14 0.87000 1.81000   1
   4   3 -14 0.91000 2.88000   1
   4   3 -14 1.46000 1.09000   1
   4   4   5 0.87000 2.09000   1
  -4  -4  -5 1.13000 2.40000   1
  -4   4  -5 0.77000 3.73000   1
  -4   4  -5 0.25000 1.14000   1
   4   4   5 0.75000 0.68000   1
 -10  -1  -6 1.27000 0.53000   1
 -10   1  -6 1.21000 1.31000   1
 -10  -1  -6 3.04000 1.64000   1
 -10   1  -6 3.56000 1.64000   1
  10   1   6 3.69000 1.51000   1
  10  -1   6 0.84000 1.55000   1
  -3  -1  18 1.85000 1.38000   1
  -3  -1  18 0.55000 0.35000   1
  -3   1  18 2.57000 1.70000   1
   3  -1 -18 0.40000 0.83000   1
   3   1 -18 1.13000 2.38000   1
  -3   1  18 2.21000 1.21000   1
  -1   0 -17 -0.2400 2.00000   1
  -1   0 -17 0.68000 1.50000   1
   1   0  17 0.43000 1.25000   1
  -4  -2 -13 0.33000 1.41000   1
   4   2  13 1.62000 1.36000   1
   4   2  13 1.59000 1.01000   1
  -4   2 -13 -2.5100 4.18000   1
  -4   2 -13 0.21000 0.99000   1
  -4  -2 -13 -0.9200 1.84000   1
 -13   0   8 8.30000 2.20000   1
  13   0  -8 10.2500 2.26000   1
  13   0  -8 7.95000 1.72000   1
  13   0  -4 3.76000 1.78000   1
 -13   0   4 8.20000 2.35000   1
  10   2 -13 2.64000 1.48000   1
 -10   2  13 1.22000 1.77000   1
  10   2 -13 0.72000 1.17000   1
  10  -2 -13 2.15000 1.35000   1
  -5   2 -12 -2.1600 3.44000   1
  -5   2 -12 -0.2600 0.75000   1
  -5  -2 -12 -1.0600 2.39000   1
   5   2  12 0.10000 0.78000   1
   5   2  12 0.18000 1.11000   1
  -9   1  -8 1.49000 1.14000   1
  -9   1  -8 8.67000 2.03000   1
   9   1   8 5.74000 1.64000   1
  -9  -1  -8 4.51000 2.55000   1
   9  -1   8 3.23000 1.71000   1
  -2   3  14 0.81000 1.45000   1
  -2   3  14 2.54000 1.56000   1
   2   3 -14 4.10000 2.49000   1
  -2  -3  14 -0.0200 0.56000   1
   2   3 -14 -0.6000 0.82000   1
   5   4  -8 0.44000 1.45000   1
   5   4  -8 3.59000 2.41000   1
   5   4  -8 -0.8600 1.49000   1
  -5   4   8 0.16000 0.51000   1
  -5   4   8 1.10000 1.28000   1
  -5   4   8 2.53000 2.16000   1
  -5   4   8 0.19000 1.06000   1
  -2  -1 -16 8.64000 2.56000   1
  -2   1 -16 -0.5500 2.99000   1
   2   1  16 0.87000 0.77000   1
  -2   1 -16 2.50000 1.79000   1
  -2  -1 -16 2.24000 1.57000   1
   7  -2 -16 4.02000 1.26000   1
   7   2 -16 3.54000 2.37000   1
  -7   2  16 3.51000 1.78000   1
   7   2 -16 2.04000 1.08000   1
   7  -2 -16 2.14000 1.20000   1
  10   0 -16 13.3600 2.81000   1
 -10   0  16 18.9200 2.76000   1
  10   0 -16 12.8700 2.60000   1
  -9   3  10 0.81000 1.68000   1
   9  -3 -10 1.65000 1.41000   1
   9   3 -10 1.38000 2.17000   1
   9   3 -10 -0.6600 1.38000   1
  -9  -3  10 0.52000 0.94000   1
 -10  -3   5 -0.3900 1.31000   1
  10   3  -5 1.06000 1.34000   1
  10   3  -5 -0.2700 1.28000   1
  10   3  -5 0.97000 1.67000   1
 -10   3   5 0.99000 1.41000   1
  10  -3  -5 1.85000 1.68000   1
   8   2   8 2.36000 2.06000   1
   8  -2   8 1.01000 1.53000   1
  -8   2  -8 2.54000 1.40000   1
  -8  -2  -8 4.61000 2.22000   1
  -8   2  -8 2.35000 0.85000   1
   8   2   8 2.32000 1.35000   1
  -1   0  18 0.00000 0.26000   1
  -1   0  18 0.08000 1.29000   1
   1   0 -18 -0.0400 1.16000   1
  10   3  -4 0.71000 1.58000   1
  10   3  -4 1.27000 1.49000   1
 -10  -3   4 0.72000 1.39000   1
  10   3  -4 0.08000 1.54000   1
  10  -3  -4 -0.5700 1.61000   1
 -10   3   4 1.00000 1.34000   1
   6   4   1 -0.6800 1.49000   1
  -6  -4  -1 0.21000 1.82000   1
  -6  -4  -1 1.91000 1.50000   1
   6   4   1 0.97000 1.23000   1
   6   4   1 0.38000 1.10000   1
  -6   4  -1 0.46000 0.34000   1
   6  -4   1 0.52000 0.69000   1
  -6   4  -1 1.82000 2.73000   1
  -6   4  -1 0.42000 1.32000   1
   6  -4   1 -1.5200 2.02000   1
  11   2 -11 -0.5900 1.82000   1
  11  -2 -11 0.78000 1.50000   1
 -11  -2  11 1.04000 1.15000   1
 -11   2  11 0.13000 1.44000   1
  11   2 -11 0.77000 1.32000   1
   9   0 -17 -0.0100 0.86000   1
   9   0 -17 0.45000 1.30000   1
  -9   0  17 0.34000 1.30000   1
   6  -3   8 0.80000 1.21000   1
   6   3   8 1.60000 1.63000   1
  -6   3  -8 0.44000 0.74000   1
  -6   3  -8 -1.9400 3.47000   1
  -6   3  -8 -0.6300 2.39000   1
  -6  -3  -8 0.79000 2.72000   1
  -6   3  -8 -0.6600 0.88000   1
   6   3   8 0.70000 1.15000   1
  -3   2 -14 1.16000 1.10000   1
  -3  -2 -14 1.84000 0.97000   1
  -3  -2 -14 -2.2000 2.78000   1
   3   2  14 2.11000 1.36000   1
   3   2  14 1.19000 0.69000   1
  -3   2 -14 0.11000 2.89000   1
  -4   4   9 1.66000 1.85000   1
  -4   4   9 1.35000 1.27000   1
  -4   4   9 0.41000 1.14000   1
   4   4  -9 1.23000 3.05000   1
   4   4  -9 -0.0700 1.31000   1
   4   4  -9 0.62000 1.47000   1
   6   1 -18 1.67000 0.76000   1
   6  -1 -18 0.30000 0.75000   1
   6   1 -18 1.10000 1.67000   1
   6  -1 -18 0.26000 0.98000   1
  -6   1  18 0.25000 1.15000   1
  -6  -1  18 1.41000 0.92000   1
  -5   0 -14 2.12000 1.83000   1
   5   0  14 0.37000 0.30000   1
  -5   0 -14 0.51000 1.11000   1
  -5   0 -14 0.62000 2.35000   1
  11   1 -14 0.83000 1.31000   1
  11  -1 -14 0.77000 1.34000   1
  11  -1 -14 1.54000 1.42000   1
  11   1 -14 1.15000 1.67000   1
 -11   1  14 2.09000 1.69000   1
  10   3  -6 0.89000 1.04000   1
  10   3  -6 -0.2900 1.62000   1
 -10  -3   6 -0.3600 1.27000   1
  10  -3  -6 1.49000 1.65000   1
 -10   3   6 0.00000 1.42000   1
  -5   3  14 -0.4300 0.85000   1
  -5   3  14 0.49000 1.28000   1
  -5   3  14 -1.6700 1.11000   1
   5   3 -14 0.80000 2.63000   1
   5   3 -14 -0.2100 1.13000   1
 -10   2  -4 1.12000 1.39000   1
 -10  -2  -4 2.90000 1.51000   1
 -10  -2  -4 -0.0100 0.79000   1
  10  -2   4 -0.3300 1.47000   1
  10   2   4 1.91000 1.31000   1
 -11   2  -1 -0.1100 1.10000   1
  11  -2   1 0.05000 1.45000   1
  11   2   1 0.57000 1.42000   1
 -11   2  -1 -1.5500 1.03000   1
 -11  -2  -1 -0.5900 1.95000   1
  10   3  -3 -0.3200 1.40000   1
  10   3  -3 0.96000 1.44000   1
  10   3  -3 3.20000 1.62000   1
 -10  -3   3 -0.0400 1.58000   1
  10  -3  -3 0.76000 1.57000   1
 -10   3   3 0.11000 1.14000   1
   0   4   9 0.91000 2.11000   1
   0   4  -9 -0.8700 3.13000   1
   0   4  -9 -1.1200 1.53000   1
   6   2  11 0.49000 0.93000   1
   6  -2  11 0.69000 1.12000   1
   6   2  11 -0.1600 1.29000   1
   6   2  11 0.04000 1.48000   1
  -6   2 -11 0.44000 0.42000   1
  -6  -2 -11 -0.8600 1.68000   1
  -6   2 -11 -1.1000 2.07000   1
  -6   2 -11 -7.8000 4.01000   1
  -6   2 -11 0.71000 0.96000   1
  13   0  -9 3.06000 1.49000   1
  13   0  -9 0.08000 1.33000   1
 -13   0   9 -1.4100 1.52000   1
 -13   0   3 0.21000 1.73000   1
  13   0  -3 0.99000 1.66000   1
  -4   0 -15 0.60000 1.77000   1
  -4   0 -15 -0.7500 2.78000   1
   1   3  13 -1.0700 1.60000   1
  -1   3 -13 0.06000 0.17000   1
  -1   3 -13 0.56000 0.58000   1
  -1   3 -13 -1.1300 3.85000   1
  -9  -3  -2 0.23000 1.05000   1
   9   3   2 3.12000 1.51000   1
   9   3   2 2.71000 1.69000   1
   9   3   2 0.80000 1.26000   1
  -9  -3  -2 0.62000 1.52000   1
  -9   3  -2 -0.3500 1.12000   1
   9  -3   2 -1.0300 1.45000   1
  -9   3  -2 1.00000 1.03000   1
  -7   3  13 0.53000 1.72000   1
   7  -3 -13 2.23000 1.38000   1
   7   3 -13 1.23000 2.58000   1
   7   3 -13 1.88000 1.21000   1
   2   1 -18 20.4000 4.19000   1
   2  -1 -18 17.5800 2.06000   1
  -2   1  18 20.8600 2.99000   1
  -2   1  18 12.0200 1.78000   1
  -2  -1  18 17.1200 2.41000   1
  -6  -4   7 0.57000 0.68000   1
   6   4  -7 0.07000 1.62000   1
   6   4  -7 0.91000 2.25000   1
   6   4  -7 1.28000 1.60000   1
  -6   4   7 -0.0600 2.04000   1
  -6   4   7 0.60000 0.92000   1
   6  -4  -7 1.46000 1.10000   1
  -6   4   7 1.18000 1.67000   1
   6   0  13 0.97000 0.56000   1
  -6   0 -13 0.55000 1.76000   1
   8  -3 -12 3.67000 1.51000   1
  -8   3  12 -0.1200 1.30000   1
   8   3 -12 -0.2800 1.26000   1
   8   3 -12 0.42000 2.26000   1
   0   2  16 8.75000 1.81000   1
   0  -2 -16 5.38000 0.74000   1
   0   2  16 5.88000 1.06000   1
   0   2 -16 12.4600 4.87000   1
   0   2  16 8.56000 1.98000   1
   0  -2  16 8.55000 1.26000   1
   0   2 -16 5.88000 1.66000   1
   0   2 -16 5.38000 0.88000   1
  12   0 -13 1.77000 1.32000   1
  12   0 -13 -0.0500 1.60000   1
 -11   1  -4 1.11000 1.48000   1
  11  -1   4 0.43000 1.56000   1
  11   1   4 1.65000 1.32000   1
 -11   1  -4 -0.0500 1.05000   1
 -11  -1  -4 -0.8300 1.91000   1
  12  -1 -12 -0.1000 1.26000   1
  12   1 -12 0.37000 1.09000   1
  12  -1 -12 1.16000 1.24000   1
  12   1 -12 -1.3200 1.18000   1
 -12   1  12 -1.2500 1.46000   1
 -12  -1  12 0.33000 1.25000   1
  10   0   7 -0.4100 1.16000   1
 -10   0  -7 0.21000 1.58000   1
  10   3  -7 0.84000 1.47000   1
 -10  -3   7 0.67000 1.27000   1
  10  -3  -7 0.68000 1.53000   1
  10   3  -7 1.56000 1.76000   1
 -10   3   7 -0.2500 1.62000   1
  -1   3  14 2.36000 1.94000   1
  -1   3  14 1.28000 1.29000   1
   1   3 -14 7.87000 4.29000   1
 -12   0  -2 1.75000 1.62000   1
  12   0   2 2.57000 1.68000   1
  11   0 -15 1.70000 1.35000   1
 -11   0  15 -1.2600 1.37000   1
  11   0 -15 -0.0700 1.13000   1
  -5  -4  -4 0.93000 2.39000   1
   5   4   4 1.20000 1.75000   1
  -5   4  -4 -0.6100 1.55000   1
   5   4   4 1.96000 1.03000   1
   5   4   4 0.68000 1.95000   1
  -5   4  -4 3.40000 3.89000   1
  12   1   1 0.86000 1.10000   1
  12  -1   1 0.54000 1.61000   1
 -12   1  -1 2.66000 1.64000   1
 -12  -1  -1 0.50000 1.97000   1
 -12   1  -1 0.16000 1.12000   1
  -4   2  17 3.77000 2.06000   1
  -4   2  17 8.58000 1.99000   1
   4   2 -17 2.60000 2.99000   1
   4   2 -17 2.23000 1.02000   1
  10   3  -2 -0.2500 1.21000   1
  10   3  -2 -0.6200 1.44000   1
  10   3  -2 -0.6700 1.50000   1
 -10  -3   2 1.25000 1.55000   1
  10  -3  -2 0.35000 1.09000   1
  10  -3  -2 0.66000 1.14000   1
 -10   3   2 1.28000 1.13000   1
 -12   2   6 2.38000 1.31000   1
  12   2  -6 0.49000 1.65000   1
  12  -2  -6 0.41000 1.54000   1
  12   2  -6 0.67000 1.04000   1
 -12  -2   6 -0.1700 1.39000   1
 -12   2   6 0.33000 1.05000   1
  12   2  -5 1.51000 1.38000   1
  12   2  -5 -0.6100 1.52000   1
 -12  -2   5 0.90000 1.82000   1
  12  -2  -5 1.84000 1.92000   1
 -12   2   5 3.47000 1.74000   1
 -12   2   5 2.27000 1.52000   1
  -8   1 -10 0.36000 0.58000   1
  -8  -1 -10 -0.0300 2.04000   1
   8  -1  10 0.09000 1.01000   1
   8   1  10 1.39000 0.92000   1
  -8   1 -10 -0.1000 1.40000   1
  -3   4  -7 1.81000 3.69000   1
  -3  -4  -7 0.41000 2.43000   1
   3   4   7 0.75000 1.96000   1
  -3   4  -7 -0.7600 1.12000   1
  13   1  -6 0.03000 1.22000   1
  13   1  -6 0.90000 1.72000   1
  13  -1  -6 -0.2100 1.65000   1
 -13   1   6 -0.2800 1.18000   1
 -13   1   6 1.23000 1.45000   1
 -13  -1   6 0.79000 1.17000   1
  -2  -4  -8 -2.6900 2.52000   1
  -2   4  -8 0.25000 1.39000   1
   2   4   8 2.02000 1.90000   1
  -2   4  -8 3.01000 3.02000   1
  -3   2  17 2.17000 1.36000   1
  -3   2  17 3.13000 1.69000   1
   3  -2 -17 0.32000 0.56000   1
   3   2 -17 0.49000 0.68000   1
   3   2 -17 0.03000 1.00000   1
   3   2 -17 5.04000 2.86000   1
  -3  -2  17 0.38000 0.46000   1
  -3  -2  17 1.52000 1.02000   1
 -12   2   7 0.56000 1.53000   1
 -12  -2   7 -0.2200 1.40000   1
  12   2  -7 1.52000 1.06000   1
  12  -2  -7 1.35000 1.55000   1
  12   2  -7 0.32000 1.66000   1
  -6  -4  -2 3.67000 1.54000   1
   6   4   2 2.00000 2.24000   1
   6   4   2 1.23000 1.07000   1
   6   4   2 -0.2800 1.75000   1
  -6   4  -2 0.13000 2.11000   1
   6  -4   2 -0.6000 1.59000   1
  -6   4  -2 1.52000 1.35000   1
  -6   4  -2 0.47000 3.87000   1
  12   2  -4 1.19000 1.18000   1
  12   2  -4 -0.5600 1.54000   1
 -12  -2   4 2.71000 1.55000   1
 -12   2   4 -0.7400 1.42000   1
 -12   2   4 -1.1500 1.22000   1
  12  -2  -4 0.82000 1.77000   1
   5  -2 -17 3.52000 0.90000   1
  -5   2  17 1.70000 1.40000   1
   5  -2 -17 1.31000 0.82000   1
  -5   2  17 2.94000 1.35000   1
   5   2 -17 0.37000 0.76000   1
   5   2 -17 3.58000 2.40000   1
  -9   0  -9 0.12000 1.85000   1
   9   0   9 1.86000 1.16000   1
  -3   0 -16 4.48000 2.86000   1
  -3   0 -16 7.47000 2.21000   1
 -13   1   7 8.31000 2.22000   1
 -13   1   7 5.24000 1.51000   1
  13  -1  -7 5.94000 2.02000   1
  13   1  -7 2.01000 1.42000   1
  13   1  -7 2.26000 2.33000   1
 -13  -1   7 6.25000 1.70000   1
  -2   2 -15 -1.2200 0.78000   1
  -2  -2 -15 0.42000 2.64000   1
  -2   2 -15 0.41000 2.43000   1
  -2  -2 -15 0.18000 0.67000   1
   2   2  15 0.42000 1.18000   1
   2   2  15 -0.2700 0.56000   1
  13  -1  -5 4.98000 2.54000   1
  13   1  -5 4.42000 2.59000   1
 -13   1   5 12.0800 2.54000   1
 -13   1   5 7.25000 1.76000   1
 -13  -1   5 8.34000 1.95000   1
  11   0   5 -0.2400 1.25000   1
 -11   0  -5 0.77000 1.57000   1
   7   4  -3 0.56000 1.46000   1
   7   4  -3 -1.7000 1.14000   1
   7   4  -3 4.17000 1.60000   1
  -7  -4   3 0.14000 1.57000   1
   7  -4  -3 0.10000 1.77000   1
  -7   4   3 -0.9600 1.38000   1
  -7   4   3 0.49000 0.61000   1
  -7   4   3 1.42000 2.31000   1
 -13   0  10 0.10000 1.13000   1
  13   0 -10 -1.5700 1.45000   1
  13   0 -10 0.04000 1.01000   1
  13   0  -2 14.2900 3.61000   1
 -13   0   2 20.2400 3.36000   1
   7   4  -4 -0.5700 1.56000   1
   7   4  -4 0.34000 1.64000   1
   7   4  -4 -0.8600 1.42000   1
  -7  -4   4 2.04000 1.04000   1
   7  -4  -4 -1.9600 1.56000   1
  -7   4   4 0.12000 0.64000   1
  -7   4   4 2.39000 1.78000   1
  -7   4   4 -2.1900 1.47000   1
   8   0 -18 61.8500 6.28000   1
   8   0 -18 43.2700 5.25000   1
  -8   0  18 67.7500 6.21000   1
  -7   0 -12 0.73000 1.60000   1
   7   0  12 0.00000 0.91000   1
  -7  -4   2 0.36000 1.33000   1
   7   4  -2 0.17000 1.45000   1
   7   4  -2 0.70000 1.64000   1
   7   4  -2 1.15000 1.14000   1
  -7   4   2 -1.0100 2.39000   1
   7  -4  -2 -1.3300 1.59000   1
  -7   4   2 -0.7300 0.89000   1
   7  -4  -2 -1.6200 1.54000   1
  -7   4   2 -0.3500 0.62000   1
  -8  -3  -5 0.43000 1.01000   1
  -8  -3  -5 0.55000 2.43000   1
   8   3   5 0.64000 1.27000   1
   8   3   5 0.10000 1.28000   1
   8  -3   5 2.45000 1.42000   1
  -8   3  -5 -0.4900 0.93000   1
   7   1 -18 0.87000 0.71000   1
  -7   1  18 -0.3700 1.06000   1
  -7  -1  18 0.23000 0.91000   1
   7  -1 -18 -0.4100 0.95000   1
   7  -1 -18 0.65000 0.72000   1
   7   1 -18 1.23000 1.64000   1
  -2   4  10 1.78000 1.53000   1
  -2   4  10 2.11000 1.47000   1
   2   4 -10 -0.3800 1.43000   1
   2   4 -10 -0.7600 3.63000   1
  -5   4   9 0.66000 1.92000   1
  -5   4   9 -0.2600 1.10000   1
  -5   4   9 1.50000 1.87000   1
   5   4  -9 -0.8500 1.36000   1
   5   4  -9 4.79000 2.66000   1
   5   4  -9 1.01000 1.40000   1
  -6   3  14 0.85000 1.41000   1
  -6   3  14 0.10000 1.12000   1
   6  -3 -14 -0.1600 1.18000   1
   6   3 -14 0.99000 0.92000   1
   6   3 -14 3.00000 2.59000   1
  -9   2  15 3.87000 2.37000   1
   9  -2 -15 4.01000 1.51000   1
   9   2 -15 4.48000 1.76000   1
   9   2 -15 9.84000 2.76000   1
   9  -2 -15 9.20000 2.16000   1
 -10  -3   8 4.19000 1.63000   1
 -10   3   8 1.13000 2.04000   1
  10   3  -8 3.07000 1.92000   1
  10   3  -8 5.76000 2.43000   1
  10  -3  -8 3.42000 1.57000   1
  -7   2 -10 0.75000 1.00000   1
  -7  -2 -10 0.84000 2.33000   1
  -7   2 -10 -0.1100 0.48000   1
   7   2  10 -0.6100 1.63000   1
  -7   2 -10 3.46000 2.14000   1
   7  -2  10 0.22000 1.32000   1
   7   2  10 0.01000 1.13000   1
   4   4   6 2.29000 1.59000   1
  -4   4  -6 -3.6500 3.97000   1
  -4  -4  -6 0.63000 2.52000   1
  -4   4  -6 0.33000 1.28000   1
   4   4   6 -0.2300 2.03000   1
   4   4   6 0.36000 0.55000   1
  -3   4  10 -0.0600 1.23000   1
  -3   4  10 1.87000 1.94000   1
   3   4 -10 2.33000 2.32000   1
   3   4 -10 -0.2700 1.29000   1
  -1  -1 -17 -2.9200 2.41000   1
  -1   1 -17 3.99000 2.40000   1
  -1  -1 -17 -0.0900 1.39000   1
   1   1  17 -0.1900 1.41000   1
   1  -1  17 0.83000 1.08000   1
   1   1  17 -0.0100 0.75000   1
  -1   1 -17 0.01000 1.64000   1
 -13  -1   8 1.04000 1.55000   1
 -13   1   8 0.82000 1.65000   1
  13   1  -8 1.41000 1.44000   1
  13  -1  -8 0.52000 1.38000   1
  13   1  -8 -0.9600 1.77000   1
 -13   1   8 1.43000 1.37000   1
  13   1  -4 1.19000 1.18000   1
 -13   1   4 0.08000 1.28000   1
 -13   1   4 1.29000 1.69000   1
 -13  -1   4 2.99000 1.76000   1
  13  -1  -4 0.62000 1.77000   1
   7   4  -5 0.75000 1.76000   1
   7   4  -5 -0.2500 1.52000   1
   7   4  -5 -0.6500 1.81000   1
  -7  -4   5 1.38000 0.94000   1
  -7   4   5 -0.0200 0.78000   1
  -7   4   5 1.91000 1.51000   1
  -7   4   5 -3.0700 2.44000   1
   7  -4  -5 2.00000 1.62000   1
   9  -3 -11 2.89000 1.43000   1
  -9   3  11 0.26000 1.76000   1
   9   3 -11 2.26000 1.41000   1
  -9  -3  11 1.26000 1.01000   1
   9   3 -11 0.43000 2.32000   1
 -12   2   8 2.45000 1.26000   1
  12   2  -8 0.36000 1.72000   1
  12  -2  -8 1.90000 1.68000   1
  12   2  -8 1.45000 1.58000   1
 -12  -2   8 2.19000 1.48000   1
   1   4   9 -2.1600 2.17000   1
  -1   4  -9 7.26000 4.11000   1
  -1   4  -9 0.83000 1.21000   1
  10   3  -1 0.73000 1.41000   1
  10   3  -1 -0.4400 1.42000   1
  10   3  -1 0.65000 1.53000   1
 -10  -3   1 0.01000 1.68000   1
  10  -3  -1 -0.1500 0.93000   1
  10  -3  -1 0.71000 1.56000   1
 -10   3   1 -0.1200 1.17000   1
 -10   3   1 1.09000 1.11000   1
  12   2  -3 0.11000 1.48000   1
  12   2  -3 2.19000 1.66000   1
 -12  -2   3 1.34000 1.45000   1
 -12   2   3 -1.7800 1.40000   1
 -12   2   3 -0.1000 1.07000   1
  12  -2  -3 -0.1200 1.21000   1
   7   3   7 0.10000 1.57000   1
   7  -3   7 1.18000 1.39000   1
   7   3   7 1.37000 1.27000   1
  -7   3  -7 -0.2600 0.79000   1
  -7   3  -7 3.84000 2.39000   1
  -7  -3  -7 -1.2500 2.60000   1
  -7   3  -7 0.30000 0.92000   1
  11   2 -12 2.66000 2.33000   1
  11  -2 -12 0.64000 1.83000   1
  11   2 -12 1.23000 1.73000   1
 -11   2  12 4.21000 2.08000   1
 -11  -2  12 3.64000 1.57000   1
   6   4  -8 0.03000 2.38000   1
   6   4  -8 1.74000 1.67000   1
   6   4  -8 0.44000 1.58000   1
  -6  -4   8 0.27000 0.61000   1
  -6   4   8 -0.3100 1.88000   1
   6  -4  -8 2.82000 1.10000   1
  -6   4   8 0.14000 1.97000   1
  -6   4   8 0.51000 1.24000   1
  -4   0  19 1.38000 1.44000   1
   4   0 -19 0.30000 1.37000   1
  -4   0  19 -0.2900 0.69000   1
  10   1 -16 -0.0400 1.72000   1
  10  -1 -16 1.18000 1.31000   1
  10  -1 -16 2.39000 1.31000   1
  10   1 -16 1.58000 1.18000   1
 -10   1  16 2.98000 1.54000   1
  -2   2  17 0.84000 1.57000   1
  -2   2  17 0.61000 1.82000   1
   2  -2 -17 0.95000 0.45000   1
   2   2 -17 -2.4100 3.06000   1
   2   2 -17 0.87000 0.58000   1
  -2  -2  17 1.08000 1.14000   1
   2   2 -17 0.33000 1.09000   1
   5   0 -19 0.60000 1.24000   1
  -5   0  19 -0.3000 0.93000   1
  -5   0  19 0.03000 1.31000   1
   5   0 -19 0.18000 0.35000   1
  -1   4  10 1.97000 1.08000   1
  -1   4  10 0.44000 2.19000   1
   1   4 -10 -0.0700 4.36000   1
   1   4 -10 0.16000 1.60000   1
   4   3  11 1.60000 1.43000   1
   4   3  11 -0.0500 1.04000   1
  -4  -3 -11 0.46000 2.73000   1
  -4   3 -11 -2.8000 3.83000   1
  -4   3 -11 -0.2400 0.59000   1
  -4   3 -11 0.18000 0.67000   1
   7   4  -1 1.87000 1.58000   1
   7   4  -1 -1.3700 1.55000   1
  -7  -4   1 1.37000 1.51000   1
   7   4  -1 0.50000 1.66000   1
  -7  -4   1 1.65000 1.28000   1
   7  -4  -1 2.54000 1.94000   1
   7  -4  -1 -1.1900 1.15000   1
  -7   4   1 -0.6100 2.30000   1
  -7   4   1 1.69000 1.12000   1
  -7   4   1 -0.3100 0.52000   1
   1  -1 -18 16.9400 2.32000   1
   1   1 -18 23.4000 4.41000   1
  -1   1  18 23.0700 3.25000   1
  -1   1  18 12.7700 1.82000   1
  -1  -1  18 21.9500 2.63000   1
   1   1 -18 20.2700 3.37000   1
   8  -2 -16 3.09000 1.30000   1
   8  -2 -16 6.37000 1.68000   1
   8   2 -16 4.63000 2.00000   1
   8   2 -16 4.13000 1.79000   1
  -8   2  16 9.16000 2.11000   1
   0   0 -18 4.23000 2.12000   1
   0   0 -18 6.56000 2.18000   1
   0   0  18 7.22000 1.97000   1
   9   1 -17 -0.2400 0.92000   1
   9   1 -17 1.66000 1.05000   1
  -9   1  17 -0.2400 1.29000   1
   9  -1 -17 -0.3600 0.96000   1
   6  -2 -17 1.58000 1.13000   1
  -6   2  17 4.52000 1.17000   1
  -6   2  17 0.39000 1.38000   1
   6  -2 -17 0.90000 0.75000   1
   6   2 -17 -0.0400 0.81000   1
   6   2 -17 0.75000 2.17000   1
 -11   2  -2 1.37000 1.06000   1
 -11  -2  -2 -1.1800 2.07000   1
  11  -2   2 1.63000 1.57000   1
  11   2   2 0.62000 1.48000   1
 -11   2  -2 1.82000 1.41000   1
  10  -2 -14 0.10000 0.94000   1
  10   2 -14 0.06000 1.06000   1
  10  -2 -14 0.50000 0.80000   1
 -10   2  14 0.21000 1.15000   1
   3   3  12 4.34000 1.82000   1
   3   3  12 2.26000 1.13000   1
  -3  -3 -12 1.29000 2.14000   1
  -3   3 -12 0.12000 0.52000   1
  -3   3 -12 -0.6100 3.62000   1
  -5   1 -14 1.17000 3.12000   1
  -5  -1 -14 1.44000 2.00000   1
   5   1  14 -0.2300 0.87000   1
   5   1  14 0.41000 0.47000   1
  -5  -1 -14 0.92000 2.22000   1
  -5   1 -14 1.62000 1.18000   1
  -5  -1 -14 -0.3300 0.81000   1
   0   3  14 4.54000 1.83000   1
   0   3  14 2.51000 1.80000   1
   0   3 -14 0.87000 4.26000   1
  -4   4  10 1.16000 1.29000   1
  -4   4  10 0.26000 0.99000   1
  -4   4  10 0.26000 1.92000   1
   4   4 -10 -3.0800 3.04000   1
   4   4 -10 1.31000 1.34000   1
   4   4 -10 0.74000 1.36000   1
  -5   3 -10 1.23000 0.77000   1
   5   3  10 1.08000 1.59000   1
   5   3  10 2.21000 1.80000   1
  -5   3 -10 0.40000 0.95000   1
  -5   3 -10 6.69000 4.58000   1
  -5  -3 -10 -1.5400 2.29000   1
   7   4  -6 3.44000 1.35000   1
   7   4  -6 4.90000 1.58000   1
  -7  -4   6 -0.0200 1.05000   1
   7   4  -6 0.81000 1.98000   1
  -7   4   6 2.72000 1.58000   1
  -7   4   6 3.99000 2.36000   1
  -7   4   6 0.05000 0.85000   1
   7  -4  -6 0.49000 1.62000   1
   9   3   3 2.41000 1.61000   1
   9   3   3 -1.4700 1.31000   1
   9   3   3 -0.8600 1.06000   1
  -9  -3  -3 0.06000 0.94000   1
  -9  -3  -3 0.93000 1.90000   1
   9  -3   3 2.77000 1.38000   1
  -9   3  -3 0.66000 0.99000   1
  -9   3  -3 -1.0400 1.02000   1
   3   0 -19 -0.5300 1.68000   1
  -3   0  19 0.43000 0.55000   1
  -3   0  19 0.43000 1.43000   1
  13   1  -9 1.16000 1.32000   1
 -13   1   9 2.38000 1.60000   1
  13  -1  -9 -0.3600 0.94000   1
 -13  -1   9 -0.4500 1.39000   1
  13   1  -9 1.17000 1.76000   1
 -13   1   9 0.69000 1.37000   1
  13   1  -3 0.97000 1.27000   1
 -13   1   3 0.45000 1.17000   1
  13  -1  -3 0.12000 1.64000   1
 -13   1   3 1.90000 1.53000   1
 -13  -1   3 0.73000 1.82000   1
  13   1  -3 -1.3000 1.50000   1
   4   1  15 1.78000 0.90000   1
  -4   1 -15 3.25000 3.49000   1
  -4  -1 -15 1.62000 2.58000   1
  -4  -1 -15 4.63000 2.64000   1
  -4   1 -15 3.43000 1.65000   1
  -9  -2  -7 0.52000 2.42000   1
   9  -2   7 -0.9600 1.33000   1
  -9   2  -7 0.83000 0.96000   1
   9   2   7 2.61000 1.30000   1
   9   2   7 1.49000 1.59000   1
  -9   2  -7 0.76000 1.25000   1
   6   1  13 1.00000 0.84000   1
   6  -1  13 0.95000 0.85000   1
  -6   1 -13 0.98000 4.10000   1
  -6   1 -13 6.31000 2.45000   1
  -6   1 -13 3.39000 1.66000   1
  -6  -1 -13 10.5100 2.57000   1
  12  -2  -9 1.31000 1.70000   1
  12   2  -9 1.53000 1.11000   1
 -12  -2   9 0.71000 1.52000   1
 -12   2   9 2.82000 1.65000   1
   6   0 -19 1.97000 1.39000   1
   6   0 -19 0.72000 0.66000   1
  -6   0  19 1.03000 0.87000   1
  13   0 -11 1.36000 1.48000   1
  13   0 -11 -0.4700 1.35000   1
 -13   0  11 0.96000 1.57000   1
  13   0  -1 -1.1500 1.69000   1
 -13   0   1 -0.3700 1.22000   1
  12   1 -13 0.71000 1.63000   1
  12  -1 -13 1.56000 1.29000   1
  12   1 -13 0.93000 1.25000   1
 -12   1  13 0.35000 1.59000   1
  12  -1 -13 -0.2300 1.39000   1
  10   3  -9 2.42000 2.23000   1
  10  -3  -9 4.55000 1.57000   1
 -10   3   9 0.83000 1.64000   1
 -10  -3   9 2.04000 1.25000   1
  10   3  -9 0.80000 1.48000   1
  -2   0 -17 -0.4900 1.87000   1
  -2   0 -17 -0.2300 1.62000   1
  12   2  -2 -2.4400 1.58000   1
 -12  -2   2 0.29000 1.61000   1
  12   2  -2 0.07000 1.47000   1
  12  -2  -2 0.49000 1.58000   1
 -12   2   2 0.05000 0.98000   1
 -12   2   2 -0.1400 1.13000   1
  -6  -4  -3 0.34000 1.94000   1
  -6  -4  -3 0.08000 1.46000   1
   6   4   3 0.89000 1.93000   1
   6   4   3 -0.9800 1.08000   1
   6   4   3 -0.2600 0.92000   1
  -6   4  -3 4.44000 1.84000   1
  -6   4  -3 8.50000 3.91000   1
  -6   4  -3 -0.9300 1.15000   1
  10  -1   7 0.65000 1.40000   1
 -10   1  -7 0.55000 0.79000   1
 -10  -1  -7 -0.2200 1.77000   1
 -10   1  -7 0.43000 1.33000   1
 -10  -1  -7 0.40000 0.42000   1
  10   1   7 0.37000 1.16000   1
  -5  -4  -5 0.51000 2.32000   1
  -5   4  -5 -1.2100 1.13000   1
  -5   4  -5 1.27000 2.86000   1
   5   4   5 1.33000 1.60000   1
   5   4   5 1.46000 2.00000   1
   5   4   5 1.04000 0.74000   1
   7   4   0 0.44000 1.60000   1
   7   4   0 2.43000 1.87000   1
   7   4   0 0.55000 1.32000   1
  -7  -4   0 -0.3200 1.34000   1
  -7  -4   0 -0.0600 1.64000   1
   7  -4   0 2.02000 1.53000   1
  -7   4   0 0.86000 1.33000   1
  -7   4   0 -1.8800 2.43000   1
  -7   4   0 0.12000 0.43000   1
   7  -4   0 0.64000 1.48000   1
  12   1   2 -0.1000 1.12000   1
  12  -1   2 1.58000 1.57000   1
 -12   1  -2 1.34000 1.72000   1
 -12  -1  -2 -0.2600 1.91000   1
 -12   1  -2 0.99000 1.06000   1
 -10   2  -5 -1.3500 1.25000   1
 -10  -2  -5 1.52000 0.61000   1
 -10   2  -5 0.13000 0.84000   1
 -10  -2  -5 2.10000 2.21000   1
  10   2   5 -0.3200 1.31000   1
  10  -2   5 -0.4000 1.50000   1
  12   0 -14 9.02000 2.21000   1
  12   0 -14 8.95000 2.10000   1
  11   1 -15 1.21000 1.62000   1
  11  -1 -15 3.14000 1.24000   1
  11  -1 -15 1.03000 1.37000   1
 -11   1  15 1.41000 1.70000   1
  11   1 -15 -1.4300 1.22000   1
 -10  -3   0 -0.7500 1.54000   1
  10   3   0 -0.8000 1.46000   1
  10   3   0 -0.5600 1.26000   1
  10   3   0 0.22000 1.42000   1
 -10   3   0 -0.1000 1.05000   1
 -10   3   0 -0.7100 0.98000   1
  10  -3   0 -1.5400 1.07000   1
  10  -3   0 1.60000 0.77000   1
   1   2  16 2.48000 2.04000   1
   1   2  16 1.46000 0.63000   1
  -1  -2 -16 5.20000 3.04000   1
   1   2  16 4.90000 1.35000   1
  -1   2 -16 3.37000 1.24000   1
  -1   2 -16 -0.3500 3.78000   1
  -1   2 -16 1.36000 0.55000   1
  -1  -2 -16 0.84000 0.58000   1
   8   0  11 -1.0600 1.05000   1
  -8   0 -11 -0.3600 1.74000   1
   0   4 -10 0.16000 1.06000   1
   0   4 -10 0.17000 4.34000   1
  -2  -3 -13 0.15000 2.14000   1
   2   3  13 -0.5800 1.50000   1
   2   3  13 1.10000 0.99000   1
  -2   3 -13 1.08000 3.73000   1
  -2   3 -13 -0.6200 0.44000   1
  -2   3 -13 -0.0600 0.32000   1
   8  -3 -13 1.98000 1.34000   1
  -8   3  13 -0.2300 1.32000   1
   8   3 -13 0.53000 1.18000   1
   8   3 -13 0.20000 2.24000   1
 -12   0  -3 -1.8400 1.59000   1
  12   0   3 1.15000 1.58000   1
  -3   3  15 0.38000 1.23000   1
  -3   3  15 2.55000 1.68000   1
   3   3 -15 0.51000 0.87000   1
   3   3 -15 1.45000 2.90000   1
  -4   3  15 -0.1500 1.38000   1
  -4   3  15 -0.5500 1.47000   1
   4   3 -15 -0.0600 0.80000   1
   4   3 -15 1.13000 1.79000   1
  10   0 -17 -0.1500 0.90000   1
  10   0 -17 -0.4400 1.20000   1
 -10   0  17 0.15000 1.25000   1
   7   4  -7 1.41000 1.70000   1
   7   4  -7 -0.6800 1.37000   1
   7   4  -7 0.02000 1.96000   1
  -7  -4   7 0.35000 0.97000   1
  -7   4   7 0.89000 1.42000   1
  -7   4   7 -0.0800 1.02000   1
   7  -4  -7 0.15000 1.12000   1
  -7   4   7 1.74000 2.03000   1
   9   1   9 3.23000 1.53000   1
  -9  -1  -9 0.91000 2.17000   1
  -9   1  -9 0.17000 0.86000   1
  -9   1  -9 6.70000 1.66000   1
   9  -1   9 4.30000 1.37000   1
  -3   1 -16 1.16000 1.30000   1
  -3   1 -16 3.16000 2.82000   1
   3   1  16 0.07000 0.82000   1
  -3  -1 -16 0.26000 2.38000   1
  -3  -1 -16 3.36000 1.82000   1
  -6   3  -9 1.40000 0.83000   1
  -6   3  -9 1.09000 1.76000   1
  -6   3  -9 -1.1200 4.70000   1
  -6   3  -9 0.19000 0.93000   1
  -6  -3  -9 1.68000 2.56000   1
   6   3   9 0.52000 1.66000   1
   6   3   9 -0.7700 1.35000   1
   1  -2 -17 0.05000 0.35000   1
  -1   2  17 1.12000 1.68000   1
  -1   2  17 1.69000 1.28000   1
  -1  -2  17 0.66000 0.82000   1
   1   2 -17 2.56000 2.92000   1
   1   2 -17 0.75000 0.47000   1
   1   2 -17 -1.0900 1.07000   1
 -11   1  -5 1.32000 0.98000   1
 -11   1  -5 1.16000 1.51000   1
  11  -1   5 1.22000 1.54000   1
 -11  -1  -5 0.79000 1.88000   1
  11   1   5 1.04000 1.46000   1
  13  -1 -10 1.38000 1.09000   1
  13   1 -10 0.31000 0.98000   1
  13  -1 -10 0.07000 1.35000   1
  13   1 -10 0.82000 1.60000   1
 -13  -1  10 -0.0900 0.97000   1
 -13   1  10 0.07000 0.66000   1
 -13   1  10 -1.8100 1.45000   1
  13   1  -2 3.13000 2.13000   1
  13  -1  -2 1.92000 2.16000   1
 -13  -1   2 7.68000 2.45000   1
 -13   1   2 4.81000 1.36000   1
 -13   1   2 6.36000 1.79000   1
  -7   3  14 -0.5700 0.82000   1
   7  -3 -14 0.13000 1.18000   1
  -7   3  14 1.23000 1.34000   1
   7   3 -14 -0.3300 0.92000   1
   7   3 -14 2.14000 2.17000   1
   8   2   9 -0.0900 1.31000   1
   8  -2   9 -0.7600 1.13000   1
  -8   2  -9 -0.5600 1.31000   1
  -8  -2  -9 -1.6800 2.32000   1
   8   2   9 0.24000 1.06000   1
  -8   2  -9 -0.6100 0.74000   1
   8  -1 -18 3.27000 1.46000   1
  -8  -1  18 6.08000 1.52000   1
  -8   1  18 8.31000 1.79000   1
   8   1 -18 2.64000 1.68000   1
   8  -1 -18 4.01000 1.17000   1
   8   1 -18 3.11000 1.17000   1
  -2   0  19 0.03000 0.42000   1
  -2   0  19 -1.0900 1.29000   1
   2   0 -19 -0.8600 1.29000   1
  -6   4   9 -0.1200 1.54000   1
  -6   4   9 2.12000 1.09000   1
  -6   4   9 -0.1400 2.33000   1
   6   4  -9 1.50000 1.65000   1
   6   4  -9 -2.6800 2.73000   1
   6   4  -9 -1.5300 1.83000   1
   7   1  12 1.39000 1.07000   1
  -7  -1 -12 3.71000 1.71000   1
  -7   1 -12 3.05000 1.56000   1
   7  -1  12 1.13000 1.07000   1
  -5   4  10 1.00000 1.53000   1
  -5   4  10 2.99000 1.40000   1
  -5   4  10 -0.4400 1.55000   1
   5   4 -10 1.50000 1.66000   1
   5   4 -10 -0.1700 1.75000   1
   5   4 -10 3.36000 3.15000   1
  -3  -4  -8 -1.2300 2.60000   1
  -3   4  -8 -1.9100 3.92000   1
  -3   4  -8 0.06000 1.04000   1
   3   4   8 2.54000 1.97000   1
   7  -2 -17 0.17000 1.09000   1
  -7   2  17 -0.2600 1.52000   1
   7  -2 -17 0.49000 0.69000   1
   7   2 -17 0.22000 1.51000   1
   7   2 -17 1.31000 0.88000   1
  -2   3  15 2.12000 1.58000   1
  -2   3  15 1.49000 1.57000   1
   2   3 -15 -0.1000 0.77000   1
   2   3 -15 3.06000 3.18000   1
  -2  -3  15 -0.1000 0.63000   1
  -5   3  15 1.55000 1.57000   1
  -5   3  15 0.68000 1.02000   1
   5   3 -15 -0.4800 2.52000   1
   5   3 -15 -0.1000 0.90000   1
 -12  -2  10 2.12000 1.61000   1
 -12   2  10 6.59000 1.95000   1
  12  -2 -10 2.78000 1.87000   1
  12   2 -10 3.97000 1.88000   1
  12   2 -10 3.73000 2.22000   1
  11   0 -16 6.52000 2.16000   1
  11   0 -16 9.58000 2.12000   1
 -11   0  16 12.4500 2.32000   1
   7   0 -19 0.44000 1.35000   1
  -7   0  19 0.06000 1.04000   1
   7   0 -19 0.84000 0.62000   1
   2   4   9 0.70000 1.85000   1
  -2  -4  -9 0.20000 1.99000   1
  -2   4  -9 4.32000 4.13000   1
  -2   4  -9 0.20000 1.00000   1
   9  -3 -12 1.35000 1.57000   1
  -9   3  12 1.66000 1.89000   1
   9   3 -12 2.24000 1.39000   1
   9   3 -12 2.55000 1.78000   1
  12   2  -1 -0.0700 1.09000   1
 -12  -2   1 0.44000 1.78000   1
  12   2  -1 1.26000 1.54000   1
 -12   2   1 -0.0500 1.37000   1
 -12   2   1 1.06000 1.12000   1
  12  -2  -1 -0.1800 1.25000   1
   7   4   1 0.30000 1.60000   1
   7   4   1 1.24000 1.63000   1
  -7  -4  -1 1.92000 1.11000   1
   7   4   1 -0.3300 2.08000   1
  -7  -4  -1 1.03000 1.78000   1
  -7   4  -1 1.35000 1.34000   1
  -7   4  -1 2.71000 2.93000   1
   7  -4   1 0.59000 1.23000   1
   7  -4   1 0.68000 2.05000   1
  -9   0  18 16.2600 2.78000   1
   9   0 -18 8.88000 2.36000   1
   9   0 -18 16.3100 2.65000   1
   5   2  13 1.60000 1.30000   1
   5   2  13 -0.8700 0.91000   1
  -5   2 -13 0.12000 0.90000   1
  -5  -2 -13 0.79000 1.58000   1
  -5  -2 -13 1.59000 2.34000   1
  -4  -1  19 1.59000 0.57000   1
  -4  -1  19 2.40000 1.38000   1
   4  -1 -19 3.45000 1.19000   1
   4   1 -19 2.31000 2.25000   1
  -4   1  19 3.56000 1.41000   1
  -4   1  19 2.08000 1.88000   1
  11   2 -13 0.86000 2.01000   1
 -11   2  13 2.17000 1.80000   1
  11   2 -13 1.54000 1.32000   1
  11  -2 -13 1.39000 1.02000   1
  -4  -2 -14 0.62000 1.39000   1
   4   2  14 0.53000 0.77000   1
   4   2  14 2.97000 1.25000   1
  -4  -2 -14 2.61000 2.86000   1
  -4   2 -14 7.75000 3.99000   1
  -4   2 -14 1.33000 0.90000   1
  -4   4  -7 1.15000 1.07000   1
  -4  -4  -7 0.85000 2.48000   1
   4   4   7 -1.4200 1.60000   1
   4   4   7 0.61000 2.01000   1
  -4   4  -7 -0.6300 4.32000   1
  -5  -1  19 0.07000 0.56000   1
  -5   1  19 1.44000 0.97000   1
   5   1 -19 0.34000 0.55000   1
   5  -1 -19 0.27000 0.56000   1
  -5   1  19 0.53000 1.82000   1
   5   1 -19 1.63000 1.58000   1
   5  -1 -19 -0.0600 0.89000   1
 -10  -3  10 0.43000 1.09000   1
  10   3 -10 2.83000 1.90000   1
 -10   3  10 -0.7700 1.48000   1
  10   3 -10 0.68000 1.02000   1
  10  -3 -10 1.50000 1.38000   1
   0  -1  18 0.94000 1.22000   1
   0   1 -18 0.59000 1.89000   1
   0  -1 -18 4.92000 1.30000   1
   0  -1 -18 0.46000 1.83000   1
   0   1 -18 2.05000 3.13000   1
   0   1  18 1.16000 1.63000   1
   0   1  18 1.15000 0.90000   1
  10   0   8 -0.5500 1.08000   1
 -10   0  -8 -0.6500 1.16000   1
   8   3   6 1.91000 1.47000   1
  -8  -3  -6 2.65000 2.68000   1
   8   3   6 -0.7300 1.93000   1
   8  -3   6 0.25000 1.58000   1
  -8   3  -6 2.59000 0.92000   1
  -8   3  -6 1.18000 0.98000   1
  13   0 -12 3.84000 1.81000   1
  13   0 -12 2.51000 1.70000   1
  13   0   0 1.87000 1.40000   1
 -13   0   0 2.65000 1.38000   1
  -3   4  11 0.05000 1.21000   1
  -3   4  11 1.51000 1.87000   1
   3   4 -11 -0.3000 1.10000   1
   3   4 -11 5.64000 3.45000   1
  -2   4  11 3.45000 2.00000   1
  -2   4  11 2.47000 1.47000   1
   2   4 -11 1.01000 1.20000   1
   2   4 -11 3.98000 3.80000   1
  11   0   6 -0.4200 1.34000   1
 -11   0  -6 -0.6200 1.58000   1
 -11   2  -3 0.83000 1.05000   1
 -11  -2  -3 -2.0400 2.04000   1
  11  -2   3 -2.0100 1.52000   1
  11   2   3 0.13000 1.43000   1
 -11   2  -3 -1.0900 1.42000   1
  -6  -2 -12 0.29000 1.58000   1
  -6   2 -12 -0.5000 1.86000   1
  -6   2 -12 0.76000 1.03000   1
   6  -2  12 0.38000 0.79000   1
   6   2  12 -0.9000 0.77000   1
   6   2  12 0.22000 1.15000   1
  -6   2 -12 -1.6200 2.77000   1
 -10  -3  -1 -0.7900 2.03000   1
  10   3   1 -2.1400 1.54000   1
  10   3   1 0.81000 1.45000   1
  10   3   1 1.03000 1.36000   1
 -10   3  -1 0.33000 1.02000   1
 -10   3  -1 0.49000 1.16000   1
  10  -3   1 2.55000 1.48000   1
   1   3  14 2.11000 1.67000   1
  -1   3 -14 -1.1300 3.57000   1
  -3   1  19 6.95000 1.28000   1
  -3  -1  19 7.81000 1.75000   1
   3  -1 -19 6.08000 1.17000   1
   3   1 -19 9.19000 2.76000   1
  -3   1  19 6.78000 1.76000   1
  -6  -4  -4 -1.0100 1.02000   1
   6   4   4 -0.6100 0.95000   1
   6   4   4 0.98000 1.49000   1
   6   4   4 1.00000 1.52000   1
  -6  -4  -4 -0.7500 2.12000   1
  -6   4  -4 0.22000 1.16000   1
  -6   4  -4 2.17000 4.21000   1
   7   4  -8 0.39000 1.72000   1
   7   4  -8 -1.5800 2.01000   1
   7  -4  -8 0.42000 1.34000   1
  -7  -4   8 -0.3200 0.74000   1
  -7   4   8 0.10000 1.47000   1
  -7   4   8 1.07000 1.98000   1
  -7   4   8 -0.4900 0.92000   1
   7   4  -8 -0.0300 1.04000   1
   9   3   4 1.20000 1.42000   1
   9   3   4 -0.0200 1.64000   1
  -9  -3  -4 1.07000 2.07000   1
  -9  -3  -4 -0.3300 1.04000   1
   9  -3   4 -0.4300 1.54000   1
  -9   3  -4 -0.6400 1.06000   1
  -9   3  -4 2.09000 1.27000   1
   1   4  10 1.04000 2.00000   1
  -1   4 -10 0.62000 1.10000   1
  -1   4 -10 -0.6900 3.72000   1
  -6  -1  19 0.87000 0.84000   1
  -6   1  19 0.63000 1.23000   1
   6   1 -19 0.82000 0.68000   1
  -6   1  19 1.23000 1.25000   1
   6   1 -19 1.81000 1.76000   1
   6  -1 -19 -0.3800 0.99000   1
   3   2  15 0.39000 0.51000   1
  -3  -2 -15 0.08000 2.66000   1
  -3   2 -15 1.35000 0.98000   1
   3   2  15 0.77000 1.35000   1
  -3  -2 -15 0.97000 1.04000   1
  -3   2 -15 1.78000 3.99000   1
 -13   1  11 0.77000 1.56000   1
 -13  -1  11 0.00000 1.44000   1
  13   1 -11 1.18000 1.62000   1
  13  -1 -11 1.26000 1.04000   1
  13   1 -11 0.26000 1.56000   1
  13  -1 -11 -0.1600 1.48000   1
  13  -1  -1 2.63000 2.07000   1
 -13   1   1 2.56000 1.17000   1
 -13  -1   1 4.27000 1.58000   1
 -13   1   1 1.97000 1.94000   1
  13   1  -1 2.84000 1.96000   1
  -1   0 -18 4.24000 1.83000   1
  -1   0 -18 4.47000 2.52000   1
   1   0  18 3.38000 1.69000   1
  -2  -1 -17 3.77000 2.41000   1
  -2   1 -17 -0.1800 2.74000   1
  -2   1 -17 0.68000 1.24000   1
   2   1  17 0.07000 0.57000   1
  -2  -1 -17 -0.2600 1.59000   1
  -1   3  15 -1.6900 1.54000   1
  -1   3  15 2.52000 1.50000   1
   1   3 -15 1.04000 1.00000   1
   1   3 -15 -5.1000 3.55000   1
  -1  -3  15 0.42000 0.51000   1
   9   2 -16 1.41000 2.27000   1
   9  -2 -16 1.81000 1.40000   1
   9   2 -16 2.43000 1.17000   1
   9  -2 -16 3.08000 1.16000   1
  -9   2  16 1.43000 1.74000   1
  -4   4  11 1.27000 1.93000   1
  -4   4  11 0.87000 1.23000   1
   4   4 -11 1.05000 1.31000   1
   4   4 -11 1.07000 1.39000   1
   4   4 -11 -2.2700 3.09000   1
  -1   4  11 0.70000 1.92000   1
  -1   4  11 0.49000 1.04000   1
   1   4 -11 -0.6800 3.08000   1
   1   4 -11 0.56000 0.98000   1
  -6   3  15 2.27000 1.41000   1
  -6   3  15 0.68000 0.94000   1
   6  -3 -15 -0.6500 0.99000   1
  -6   3  15 -0.2500 1.49000   1
   6   3 -15 -0.3600 1.21000   1
   6   3 -15 -0.5500 2.34000   1
  -7   3  -8 0.89000 0.81000   1
   7   3   8 0.93000 1.62000   1
   7  -3   8 0.92000 1.37000   1
   7   3   8 0.05000 1.22000   1
  -7   3  -8 0.64000 0.82000   1
  -7  -3  -8 2.03000 2.62000   1
  -7   3  -8 1.21000 2.53000   1
 -12   1  14 2.29000 1.91000   1
  12  -1 -14 3.27000 1.51000   1
  12   1 -14 1.65000 1.78000   1
  12  -1 -14 2.87000 1.54000   1
  12   1 -14 1.41000 1.38000   1
  -5   0 -15 0.48000 1.73000   1
  -5   0 -15 1.22000 2.64000   1
  -5   4  -6 1.29000 1.14000   1
  -5   4  -6 2.57000 3.40000   1
  -5  -4  -6 2.21000 2.71000   1
   5   4   6 3.54000 1.99000   1
   5   4   6 0.60000 1.73000   1
  10   2 -15 -0.6100 1.85000   1
  10   2 -15 0.87000 1.06000   1
  10  -2 -15 0.00000 1.09000   1
 -10   2  15 1.41000 1.61000   1
  10  -2 -15 0.38000 1.28000   1
  -8   1 -11 -0.0600 0.56000   1
  -8  -1 -11 -1.1100 1.76000   1
  -8   1 -11 0.11000 1.40000   1
   8   1  11 1.45000 1.00000   1
   8  -1  11 0.15000 1.02000   1
   1   0 -19 0.20000 1.34000   1
  -1   0  19 -0.3600 1.34000   1
  -8  -4   4 0.63000 1.51000   1
   8   4  -4 1.88000 1.49000   1
   8   4  -4 1.40000 1.58000   1
  -8   4   4 -0.7500 1.43000   1
   8  -4  -4 0.47000 1.96000   1
  12   2 -11 -0.2700 1.16000   1
  12  -2 -11 0.47000 1.20000   1
  12   2 -11 0.28000 1.59000   1
 -12   2  11 -0.5000 1.42000   1
 -12  -2  11 -0.0400 1.18000   1
  12  -1   3 1.28000 1.66000   1
 -12  -1  -3 0.99000 1.45000   1
 -12   1  -3 1.70000 1.47000   1
 -12   1  -3 -0.0800 1.01000   1
  12   1   3 -0.1900 1.45000   1
  -9   0 -10 0.60000 1.29000   1
   9   0  10 -0.0200 1.01000   1
   6   0  14 0.85000 0.49000   1
  -6   0 -14 5.02000 1.35000   1
  -6   0 -14 2.68000 1.94000   1
  -6   0 -14 1.11000 3.07000   1
   8   4  -3 0.10000 1.72000   1
  -8  -4   3 0.47000 1.37000   1
   8   4  -3 2.83000 1.41000   1
   8   4  -3 1.34000 1.57000   1
  -8   4   3 2.56000 1.41000   1
   8  -4  -3 1.53000 1.53000   1
   7   4   2 0.43000 2.05000   1
   7   4   2 -0.3900 1.14000   1
   7   4   2 1.11000 1.62000   1
  -7  -4  -2 2.65000 2.12000   1
  -7  -4  -2 1.82000 1.37000   1
  -7   4  -2 2.71000 2.82000   1
   7  -4   2 -1.1400 1.54000   1
   7  -4   2 0.02000 1.13000   1
  -7   4  -2 1.39000 1.29000   1
 -12  -2   0 0.71000 1.41000   1
  12   2   0 -1.0300 1.26000   1
  12   2   0 -0.2700 1.45000   1
 -12   2   0 0.53000 1.06000   1
 -12   2   0 3.03000 1.37000   1
  12  -2   0 -0.0200 1.61000   1
   0   2  17 0.44000 1.40000   1
   0   2  17 0.03000 0.41000   1
   0   2  17 0.71000 1.52000   1
   0   2 -17 0.61000 1.14000   1
   0  -2  17 -0.2800 0.94000   1
   0   2 -17 6.72000 3.35000   1
 -11  -3   5 -0.9600 1.22000   1
  11   3  -5 -0.7600 1.31000   1
  11  -3  -5 1.46000 1.14000   1
  11   3  -5 0.46000 1.33000   1
 -11   3   5 0.22000 1.22000   1
 -10   1  17 -0.2900 1.30000   1
  10   1 -17 -0.3600 1.02000   1
  10   1 -17 0.95000 1.53000   1
  10  -1 -17 0.12000 1.09000   1
  10  -1 -17 1.11000 1.07000   1
   8  -4  -5 -0.0100 1.78000   1
   8   4  -5 2.62000 1.87000   1
   8   4  -5 0.55000 1.78000   1
  -8  -4   5 0.30000 1.33000   1
  -8   4   5 2.18000 1.57000   1
   8   4  -5 0.26000 1.49000   1
  -4   2  18 3.11000 1.84000   1
   4  -2 -18 1.34000 0.62000   1
   4   2 -18 1.32000 2.74000   1
  -4  -2  18 0.89000 0.59000   1
   4   2 -18 0.58000 0.71000   1
  -4   0 -16 2.70000 2.49000   1
  -4   0 -16 -0.6600 1.82000   1
  -6   4  10 0.91000 1.94000   1
  -6   4  10 0.23000 2.10000   1
  -6   4  10 1.59000 1.20000   1
   6   4 -10 3.37000 2.64000   1
   6   4 -10 1.48000 1.70000   1
   6   4 -10 0.15000 1.62000   1
  12   0 -15 -0.1000 1.26000   1
 -12   0  15 -0.0700 1.33000   1
  12   0 -15 -0.0300 1.13000   1
 -11   3   6 0.78000 1.24000   1
 -11  -3   6 0.55000 1.25000   1
  11  -3  -6 -0.5600 0.97000   1
  11   3  -6 -0.8000 1.47000   1
  11   3  -6 0.28000 1.23000   1
  11   3  -4 1.13000 1.38000   1
  11  -3  -4 1.42000 1.12000   1
 -11  -3   4 -0.4200 1.43000   1
 -11   3   4 0.00000 1.31000   1
  11   3  -4 -1.2900 1.41000   1
   7   2  11 0.10000 0.88000   1
   7  -2  11 1.34000 1.05000   1
   7   2  11 -0.4600 1.55000   1
  -7   2 -11 -1.0600 2.12000   1
  -7   2 -11 2.89000 1.23000   1
  -7  -2 -11 1.16000 2.24000   1
   2   1 -19 3.69000 1.99000   1
  -2  -1  19 7.31000 1.67000   1
  -2   1  19 5.82000 2.16000   1
   2   1 -19 6.00000 3.03000   1
  -2   1  19 3.98000 1.28000   1
   2  -1 -19 6.48000 1.13000   1
  -8  -4   2 -0.7900 1.75000   1
   8   4  -2 1.14000 1.40000   1
   8   4  -2 0.24000 1.26000   1
   8   4  -2 -1.3600 1.49000   1
  -8   4   2 -2.7900 1.94000   1
   8  -4  -2 1.71000 1.76000   1
   8  -4  -2 -1.2600 1.38000   1
  -8   4   2 0.50000 1.23000   1
  -5   2  18 5.07000 1.88000   1
   5  -2 -18 0.26000 0.68000   1
  -5   2  18 1.65000 1.42000   1
   5   2 -18 0.38000 0.88000   1
   5   2 -18 1.95000 1.68000   1
   8   0 -19 -0.7100 0.70000   1
  -8   0  19 0.03000 1.14000   1
   8   0 -19 0.76000 1.30000   1
 -12   0  -4 1.98000 1.62000   1
  12   0   4 -0.1000 1.52000   1
  -8   2  17 1.79000 1.68000   1
   8  -2 -17 0.41000 0.83000   1
   8  -2 -17 1.39000 1.14000   1
   8   2 -17 1.33000 1.91000   1
   8   2 -17 1.77000 0.95000   1
 -10   3  11 -0.1500 1.09000   1
  10  -3 -11 -0.7200 1.30000   1
  10   3 -11 1.07000 1.29000   1
  10   3 -11 -0.3200 1.22000   1
 -10  -3  11 0.59000 1.11000   1
 -10   2  -6 0.08000 1.02000   1
 -10  -2  -6 2.02000 2.22000   1
 -10   2  -6 1.33000 1.20000   1
  10  -2   6 2.55000 1.51000   1
  10   2   6 1.61000 1.32000   1
 -10  -2  -6 0.29000 0.78000   1
  -3   2  18 -0.6900 1.18000   1
   3  -2 -18 0.32000 0.56000   1
  -3   2  18 0.59000 1.71000   1
   3   2 -18 0.70000 0.87000   1
   3   2 -18 0.22000 0.39000   1
  -3  -2  18 0.09000 0.97000   1
   3   2 -18 0.44000 2.77000   1
   4   3  12 1.07000 1.19000   1
  -4  -3 -12 1.24000 3.11000   1
   4   3  12 0.88000 1.65000   1
  -4   3 -12 1.15000 0.66000   1
  -4   3 -12 4.02000 4.45000   1
 -11   3   7 0.15000 0.94000   1
 -11  -3   7 -1.4400 1.16000   1
  11   3  -7 0.86000 0.97000   1
  11  -3  -7 -1.0200 1.07000   1
  11   3  -7 1.32000 1.55000   1
  11   1 -16 1.56000 1.66000   1
  11  -1 -16 2.31000 1.40000   1
  11  -1 -16 3.20000 1.30000   1
 -11   1  16 -0.0500 1.69000   1
  11   1 -16 0.70000 1.28000   1
  -8   3  14 -0.5600 1.19000   1
   8  -3 -14 -0.0900 1.32000   1
   8   3 -14 0.51000 1.13000   1
   8   3 -14 -1.1500 2.24000   1
  -9   2  -8 -0.5900 0.64000   1
   9   2   8 2.10000 1.13000   1
   9   2   8 0.02000 1.06000   1
   9  -2   8 -0.6300 1.14000   1
  -9   2  -8 -0.3800 1.04000   1
  -9  -2  -8 -1.4500 1.69000   1
   7  -1 -19 1.07000 0.85000   1
   7   1 -19 0.56000 0.67000   1
  -7   1  19 0.74000 1.22000   1
  -7  -1  19 -0.2300 1.01000   1
   7  -1 -19 0.18000 0.94000   1
   7   1 -19 -0.4200 1.61000   1
   8   4  -6 0.66000 1.69000   1
   8   4  -6 -1.3800 1.80000   1
  -8   4   6 0.96000 1.41000   1
  -8  -4   6 0.17000 0.97000   1
   8   4  -6 1.77000 1.10000   1
   8  -4  -6 1.36000 1.32000   1
  -5   4  11 3.10000 1.23000   1
  -5   4  11 -0.9100 1.90000   1
  -5   4  11 -0.5800 1.06000   1
   5   4 -11 -1.5900 1.38000   1
   5   4 -11 1.40000 1.50000   1
   5   4 -11 4.31000 2.00000   1
  11  -3  -3 1.89000 1.12000   1
  11   3  -3 1.36000 1.56000   1
  11   3  -3 -0.3600 1.56000   1
  11  -3  -3 1.92000 1.64000   1
 -11  -3   3 -0.4400 1.52000   1
 -11   3   3 0.61000 1.21000   1
   9   1 -18 5.29000 1.39000   1
   9  -1 -18 4.76000 1.58000   1
   9  -1 -18 4.67000 1.45000   1
   9   1 -18 3.68000 2.10000   1
  -9   1  18 9.12000 1.98000   1
  -2  -2 -16 1.10000 2.57000   1
  -2   2 -16 1.34000 0.98000   1
  -2   2 -16 3.16000 3.46000   1
   2   2  16 0.63000 1.20000   1
   2   2  16 -0.0300 0.49000   1
   7   0  13 0.47000 0.69000   1
  -7   0 -13 0.23000 1.73000   1
  14   0  -6 1.73000 1.79000   1
 -14   0   6 1.42000 1.37000   1
  14   0  -7 0.03000 1.62000   1
  14   0  -7 -2.3900 1.26000   1
 -14   0   7 0.59000 1.66000   1
   0   4  11 3.19000 1.92000   1
   0   4 -11 -1.3700 1.20000   1
   0   4 -11 5.01000 4.13000   1
   5   3  11 1.11000 1.05000   1
  -5  -3 -11 2.66000 2.10000   1
   5   3  11 -0.5700 1.64000   1
  -5   3 -11 4.93000 4.18000   1
  -5   3 -11 -0.2900 0.67000   1
  -5   3 -11 0.37000 0.71000   1
  -7   4   9 0.71000 1.91000   1
  -7   4   9 -0.3400 1.18000   1
  -7   4   9 0.71000 1.16000   1
   7  -4  -9 0.18000 1.27000   1
  -7  -4   9 0.10000 0.60000   1
   7   4  -9 0.37000 2.42000   1
   7   4  -9 0.71000 1.66000   1
   7   4  -9 2.89000 1.86000   1
  13   0 -13 1.09000 1.02000   1
  13   0 -13 -1.1800 1.53000   1
  13   0   1 1.23000 1.61000   1
 -13   0  -1 2.67000 1.43000   1
   8   4  -1 -1.8600 1.33000   1
   8   4  -1 0.36000 1.83000   1
  -8  -4   1 -0.3700 1.49000   1
  -8  -4   1 2.00000 0.97000   1
   8   4  -1 0.14000 1.56000   1
   8  -4  -1 3.22000 1.82000   1
  -8   4   1 1.89000 2.54000   1
  -8   4   1 0.57000 1.16000   1
   8  -4  -1 -1.2100 1.77000   1
  -3  -3 -13 5.05000 2.96000   1
   3   3  13 0.54000 1.50000   1
   3   3  13 -2.0200 1.10000   1
  -3   3 -13 3.63000 2.97000   1
  -3   3 -13 -0.1000 0.41000   1
 -10  -3  -2 0.54000 0.85000   1
 -10  -3  -2 2.37000 1.83000   1
  10   3   2 -0.5000 1.41000   1
  10   3   2 1.83000 1.60000   1
  10   3   2 -0.4700 1.19000   1
 -10   3  -2 -0.1700 1.06000   1
 -10   3  -2 -1.2200 1.00000   1
  10  -3   2 0.10000 1.43000   1
  10  -1   8 0.14000 1.52000   1
  10   1   8 2.27000 1.26000   1
 -10   1  -8 1.76000 1.50000   1
 -10  -1  -8 1.42000 2.20000   1
 -10   1  -8 0.85000 0.84000   1
  -9   3  13 -0.2200 1.85000   1
   9  -3 -13 1.05000 1.38000   1
   9   3 -13 -0.6800 1.67000   1
   9   3 -13 2.60000 1.21000   1
  13   1 -12 -0.2400 1.39000   1
  13  -1 -12 0.83000 1.35000   1
  13   1 -12 -0.6900 1.45000   1
 -13   1  12 1.90000 1.69000   1
 -13  -1  12 0.58000 0.98000   1
  13  -1 -12 0.03000 1.54000   1
  13   1   0 -0.2000 1.05000   1
 -13  -1   0 0.32000 1.24000   1
 -13   1   0 -0.5400 1.08000   1
 -13   1   0 1.69000 1.43000   1
  13  -1   0 0.38000 1.57000   1
 -14   0   5 -1.2300 1.63000   1
  14   0  -5 0.80000 1.52000   1
 -14   0   8 -1.7900 1.57000   1
  14   0  -8 -0.1200 1.15000   1
  14   0  -8 -1.2600 1.47000   1
  -6   2  18 -0.4100 1.30000   1
   6  -2 -18 0.45000 0.62000   1
   6  -2 -18 0.80000 0.95000   1
  -6   2  18 1.18000 1.71000   1
   6   2 -18 -0.2900 0.78000   1
   6   2 -18 -0.7700 2.16000   1
  11   2 -14 0.52000 1.12000   1
 -11   2  14 0.97000 1.13000   1
  11   2 -14 0.28000 1.24000   1
  11  -2 -14 -0.9000 1.18000   1
  -3   0 -17 0.90000 2.65000   1
  -3   0 -17 0.39000 1.66000   1
 -11   1  -6 0.24000 0.84000   1
 -11  -1  -6 -0.8900 1.28000   1
 -11   1  -6 -0.6400 1.23000   1
  11   1   6 0.91000 1.14000   1
  11  -1   6 0.77000 1.28000   1
  -3  -4  -9 -3.9500 2.87000   1
   3   4   9 -1.9100 2.10000   1
  -3   4  -9 -0.3600 1.29000   1
  -3   4  -9 3.01000 4.23000   1
   0   3  15 0.25000 1.47000   1
   0   3  15 0.43000 1.51000   1
   0   3 -15 -1.4000 3.70000   1
  11   3  -8 -0.3200 1.38000   1
  11   3  -8 0.87000 1.78000   1
 -11  -3   8 1.78000 1.52000   1
 -11   3   8 0.04000 1.45000   1
  11  -3  -8 0.85000 1.42000   1
   6   4   5 -1.0100 1.59000   1
   6   4   5 1.55000 1.99000   1
   6   4   5 0.37000 0.92000   1
  -6  -4  -5 1.61000 2.27000   1
  -6   4  -5 0.47000 1.06000   1
  -6   4  -5 3.58000 3.11000   1
   7  -3 -15 0.40000 1.22000   1
  -7   3  15 0.53000 1.62000   1
  -7   3  15 0.40000 1.39000   1
   7   3 -15 1.05000 1.04000   1
   7   3 -15 -1.1900 2.45000   1
  11   3  -2 -0.4700 1.52000   1
 -11  -3   2 1.36000 1.61000   1
  11   3  -2 2.13000 1.51000   1
  11  -3  -2 1.00000 1.54000   1
  11  -3  -2 0.34000 1.08000   1
 -11   3   2 0.39000 0.89000   1
 -11   3   2 -0.9300 0.89000   1
  -2   2  18 -0.1600 1.15000   1
  -2   2  18 -1.2100 1.20000   1
   2   2 -18 2.05000 2.82000   1
  -2  -2  18 0.82000 0.87000   1
   2   2 -18 -0.0300 1.05000   1
   8   4  -7 4.04000 1.98000   1
   8   4  -7 2.05000 1.76000   1
  -8   4   7 1.41000 1.49000   1
  -8  -4   7 0.21000 1.11000   1
   8  -4  -7 0.35000 1.64000   1
  -8   4   7 0.09000 0.76000   1
   8   4  -7 0.03000 1.35000   1
  -4   4  -8 8.26000 4.21000   1
  -4  -4  -8 0.66000 2.64000   1
   4   4   8 1.39000 1.42000   1
   4   4   8 0.46000 1.24000   1
  -4   4  -8 -1.0200 1.01000   1
  -1  -1 -18 4.03000 2.46000   1
  -1  -1 -18 1.32000 1.62000   1
   1   1  18 0.51000 0.66000   1
   1  -1  18 1.41000 1.14000   1
  -1   1 -18 -1.6100 1.49000   1
  -1   1 -18 2.90000 2.67000   1
   1   1  18 1.45000 1.68000   1
 -11   2  -4 0.12000 0.92000   1
 -11   2  -4 0.90000 1.24000   1
 -11  -2  -4 -0.8900 1.99000   1
  11  -2   4 1.43000 1.48000   1
  11   2   4 0.47000 1.32000   1
  -2  -4 -10 0.94000 3.17000   1
   2   4  10 1.88000 2.04000   1
  -2   4 -10 6.16000 4.55000   1
  -2   4 -10 2.32000 1.19000   1
  -6   3 -10 -0.3200 0.75000   1
  -6  -3 -10 1.24000 2.56000   1
   6   3  10 1.13000 1.41000   1
  -6   3 -10 4.68000 4.23000   1
   6   3  10 -0.4800 1.32000   1
  -6   3 -10 0.64000 0.71000   1
  -7  -4  -3 0.62000 2.31000   1
  -7  -4  -3 0.73000 1.42000   1
   7   4   3 -0.1000 1.03000   1
   7   4   3 -0.5300 2.03000   1
   7   4   3 1.45000 1.50000   1
   7  -4   3 -1.9200 1.58000   1
  -7   4  -3 0.96000 1.21000   1
  -7   4  -3 3.98000 2.83000   1
  14   0  -4 -0.4700 1.61000   1
 -14   0   4 1.60000 1.35000   1
 -12   2  12 1.13000 1.58000   1
  12   2 -12 1.18000 1.40000   1
  12  -2 -12 1.28000 1.39000   1
  12   2 -12 0.52000 1.04000   1
 -12  -2  12 -0.5900 1.26000   1
  -5   0  20 0.11000 1.36000   1
   5   0 -20 -0.2000 1.22000   1
  -5   0  20 -0.0900 0.68000   1
  14   0  -9 -0.3200 1.24000   1
  14   0  -9 1.04000 1.39000   1
 -14   0   9 0.18000 1.47000   1
  -4   0  20 7.26000 2.05000   1
   4   0 -20 8.19000 1.69000   1
  -4   0  20 3.43000 0.92000   1
 -10   0  18 0.04000 1.40000   1
  10   0 -18 1.15000 1.43000   1
  10   0 -18 1.74000 1.01000   1
  12   2   1 0.97000 1.49000   1
 -12  -2  -1 -1.2600 1.37000   1
  12  -2   1 2.49000 1.69000   1
 -12   2  -1 0.62000 1.06000   1
 -12   2  -1 0.76000 1.36000   1
  -4   3  16 0.80000 1.65000   1
  -4   3  16 0.27000 1.59000   1
   4   3 -16 1.21000 2.94000   1
   4   3 -16 0.62000 0.85000   1
  -5  -1 -15 -0.5200 2.03000   1
  -5  -1 -15 0.26000 1.95000   1
  -5   1 -15 -0.4800 3.03000   1
  -5   1 -15 0.45000 1.11000   1
  -9  -3  -5 0.38000 1.29000   1
   9   3   5 -0.4800 1.72000   1
  -9  -3  -5 0.41000 2.45000   1
   9   3   5 2.14000 1.45000   1
  -9   3  -5 1.20000 0.99000   1
  -9   3  -5 0.06000 1.03000   1
   9  -3   5 1.40000 1.64000   1
  11   0 -17 -1.1800 1.30000   1
  11   0 -17 -0.9100 1.17000   1
 -11   0  17 0.96000 1.40000   1
  -8  -3  -7 4.01000 2.54000   1
   8   3   7 1.52000 1.73000   1
   8   3   7 0.46000 1.38000   1
  -8   3  -7 2.28000 2.65000   1
  -8   3  -7 1.16000 0.83000   1
  -8   3  -7 0.30000 0.93000   1
   8  -3   7 1.78000 1.47000   1
   8   4   0 1.42000 1.30000   1
   8   4   0 -0.7800 1.54000   1
   8   4   0 0.50000 1.74000   1
  -8  -4   0 -1.0000 1.32000   1
  -8  -4   0 1.79000 1.65000   1
   8  -4   0 1.04000 1.49000   1
   8  -4   0 1.68000 1.30000   1
  -8   4   0 -0.0500 2.49000   1
  -8   4   0 -1.9400 1.29000   1
  -3   3  16 1.39000 1.11000   1
  -3   3  16 0.86000 1.65000   1
  -3  -3  16 -0.0400 0.62000   1
   3   3 -16 0.33000 0.82000   1
   3   3 -16 1.81000 2.28000   1
  -3   4  12 -0.4500 1.51000   1
  -3   4  12 -0.3400 1.42000   1
   3   4 -12 0.24000 1.37000   1
   3   4 -12 0.16000 3.73000   1
   3   4 -12 3.25000 1.49000   1
   2   3  14 0.34000 1.00000   1
  -2  -3 -14 0.09000 2.99000   1
   2   3  14 1.01000 1.53000   1
  -2   3 -14 1.01000 3.84000   1
  -1  -1  19 -0.5500 1.27000   1
  -1   1  19 0.99000 0.98000   1
  -1   1  19 0.67000 1.70000   1
   1   1 -19 1.19000 2.59000   1
   1   1 -19 1.04000 1.49000   1
   1  -1 -19 1.52000 1.13000   1
   8   2  10 1.77000 1.27000   1
  -8   2 -10 2.12000 0.76000   1
  -8   2 -10 1.27000 1.14000   1
  -8  -2 -10 -0.4800 2.45000   1
   8  -2  10 1.73000 1.35000   1
   8   2  10 1.06000 1.29000   1
   9  -1  10 2.09000 1.66000   1
   9   1  10 3.47000 1.53000   1
  -9   1 -10 10.7500 2.15000   1
  -9  -1 -10 5.14000 2.65000   1
  -6   1 -14 0.17000 3.08000   1
  -6   1 -14 0.38000 1.48000   1
  -6  -1 -14 2.77000 2.43000   1
  -6  -1 -14 0.60000 1.90000   1
   6  -1  14 -0.0800 0.45000   1
   6   1  14 -0.0700 0.53000   1
  -6   1 -14 -0.2700 1.09000   1
   0   5   0 1.32000 2.29000   1
   0   5   0 -1.0400 1.79000   1
   0  -5   0 -1.1600 2.20000   1
   0  -5   0 -0.5100 1.39000   1
  -2   4  12 -2.2500 1.44000   1
  -2   4  12 1.59000 1.97000   1
   2   4 -12 5.80000 3.75000   1
   2   4 -12 1.54000 1.32000   1
 -13  -2   6 0.14000 1.46000   1
 -13   2   6 0.52000 1.02000   1
  13   2  -6 -0.4000 1.52000   1
  13   2  -6 1.27000 1.22000   1
  13  -2  -6 0.09000 1.59000   1
 -13   2   6 -1.1200 1.27000   1
   0   0 -19 -0.6300 1.49000   1
   0   0 -19 -2.4000 1.48000   1
   0   0  19 -1.1200 1.49000   1
   8   0  12 0.02000 0.79000   1
  -8   0 -12 0.74000 1.24000   1
  -6   0  20 1.06000 0.88000   1
   6   0 -20 -0.2100 1.39000   1
   0  -5   1 -0.5600 2.18000   1
   0  -5   1 0.67000 1.40000   1
   0  -5  -1 -0.3100 1.51000   1
   0   5  -1 -0.3600 1.76000   1
   0   5  -1 2.35000 2.37000   1
   0   5   1 0.39000 1.32000   1
   0   5   1 -0.2000 2.00000   1
   4   1  16 7.37000 1.28000   1
  -4  -1 -16 6.66000 3.26000   1
  -4   1 -16 8.90000 2.20000   1
  -4  -1 -16 5.00000 3.39000   1
  -4   1 -16 17.3500 4.46000   1
 -13   2   7 0.53000 1.22000   1
 -13   2   7 0.33000 1.33000   1
  13   2  -7 -0.7800 1.72000   1
  13   2  -7 1.41000 1.12000   1
  13  -2  -7 -0.2300 1.48000   1
 -13  -2   7 -0.1600 1.39000   1
 -13  -2   5 -0.1500 1.71000   1
  13   2  -5 1.61000 1.72000   1
  13   2  -5 1.01000 1.28000   1
  13  -2  -5 -1.0200 1.81000   1
 -13   2   5 2.66000 1.70000   1
 -13   2   5 1.35000 1.00000   1
  12   1 -15 2.13000 1.19000   1
  12  -1 -15 0.44000 1.35000   1
  12   1 -15 2.14000 1.59000   1
 -12   1  15 0.65000 1.65000   1
  12  -1 -15 -0.7600 0.93000   1
  -5   3  16 -0.2800 1.52000   1
  -5   3  16 0.27000 1.42000   1
   5   3 -16 -0.7400 2.42000   1
   5   3 -16 0.25000 0.86000   1
 -11  -3   9 0.74000 1.24000   1
 -11   3   9 -0.3300 1.04000   1
  11   3  -9 0.78000 1.39000   1
  11   3  -9 1.67000 1.77000   1
  11  -3  -9 2.55000 1.40000   1
  -5   4  -7 2.80000 4.29000   1
  -5  -4  -7 1.80000 2.69000   1
   5   4   7 2.19000 1.93000   1
   5   4   7 1.62000 1.48000   1
  -5   4  -7 -0.6400 0.98000   1
  -4   4  12 -1.3300 1.30000   1
  -4   4  12 -2.2300 1.41000   1
   4   4 -12 0.30000 2.27000   1
   4   4 -12 -0.3100 1.32000   1
   4   4 -12 0.35000 1.27000   1
   3   0 -20 0.65000 1.40000   1
  -3   0  20 1.26000 1.49000   1
  -1  -5   0 -0.1300 1.83000   1
  -1   5   0 1.95000 2.94000   1
  -1   5   0 -0.2100 1.33000   1
  -1  -5   0 -0.1500 1.68000   1
   1  -5   0 1.58000 2.33000   1
   1   5   0 2.81000 1.82000   1
   1   5   0 2.14000 2.10000   1
  -1   5   1 -0.1200 2.25000   1
  -1   5   1 -0.3000 1.74000   1
   1  -5  -1 1.34000 2.12000   1
   1   5  -1 0.04000 1.80000   1
   1   5  -1 1.64000 2.70000   1
  -1  -5   1 1.75000 2.35000   1
  -1  -5   1 1.56000 1.52000   1
  11   0   7 0.26000 1.59000   1
 -11   0  -7 1.25000 1.27000   1
  -6   4  11 1.39000 1.25000   1
  -6   4  11 1.20000 1.10000   1
   6   4 -11 -3.4600 2.52000   1
   6   4 -11 -1.5600 1.52000   1
   6   4 -11 0.47000 1.36000   1
   8  -1 -19 1.36000 0.79000   1
   8   1 -19 0.42000 1.60000   1
   8   1 -19 -0.5300 0.80000   1
   8  -1 -19 0.38000 0.99000   1
  -8  -1  19 0.08000 1.09000   1
  -8   1  19 0.02000 1.47000   1
  11   3  -1 -1.6300 1.11000   1
 -11  -3   1 -0.4700 1.62000   1
  11   3  -1 2.80000 1.41000   1
  11   3  -1 2.99000 1.44000   1
 -11   3   1 -0.3400 1.11000   1
  11  -3  -1 -1.3100 0.96000   1
  11  -3  -1 1.81000 1.39000   1
 -11   3   1 -0.3800 1.20000   1
  14   0  -3 -0.5700 1.19000   1
 -14   0   3 0.00000 1.70000   1
   7  -2 -18 1.03000 0.85000   1
   7  -2 -18 1.41000 1.00000   1
  -7   2  18 0.48000 1.07000   1
  -7   2  18 0.47000 1.44000   1
   7   2 -18 1.33000 2.11000   1
   7   2 -18 -0.0100 0.77000   1
  10  -3 -12 2.90000 1.57000   1
 -10   3  12 1.18000 1.41000   1
  10   3 -12 2.23000 1.37000   1
 -10  -3  12 0.19000 1.26000   1
  10   3 -12 -0.7800 2.14000   1
  12   1   4 0.62000 1.50000   1
 -12   1  -4 -0.0700 1.66000   1
 -12  -1  -4 3.17000 1.92000   1
 -12   1  -4 0.33000 1.13000   1
  12  -1   4 0.46000 1.60000   1
  14   0 -10 0.65000 1.04000   1
 -14   0  10 1.85000 1.60000   1
  14   0 -10 2.07000 1.11000   1
   1   4  11 0.87000 2.01000   1
  -1   4 -11 3.24000 2.66000   1
  -1   4 -11 -0.2000 0.87000   1
  -8   4   8 -1.6200 1.51000   1
  -8  -4   8 -0.9600 0.90000   1
  -8   4   8 2.00000 0.80000   1
   8   4  -8 -1.8000 2.06000   1
   8  -4  -8 0.74000 1.62000   1
   8   4  -8 -1.1200 2.01000   1
   8   4  -8 2.55000 1.10000   1
  -2   3  16 -0.1400 1.45000   1
  -2   3  16 1.41000 1.20000   1
  -2  -3  16 0.44000 0.67000   1
   2   3 -16 -3.5100 2.32000   1
   2   3 -16 0.17000 0.90000   1
  -7   4  10 0.93000 1.72000   1
  -7   4  10 0.73000 1.07000   1
  -7   4  10 0.23000 1.74000   1
   7  -4 -10 0.03000 1.42000   1
   7   4 -10 2.39000 2.42000   1
   7   4 -10 1.89000 1.64000   1
   7   4 -10 0.03000 1.42000   1
   1   2  17 0.82000 1.11000   1
   1   2  17 -0.5800 1.21000   1
  -1  -2 -17 1.17000 2.55000   1
  -1   2 -17 0.34000 0.94000   1
  -1  -5  -1 0.95000 2.18000   1
  -1   5  -1 0.89000 3.04000   1
  -1  -5  -1 1.75000 1.89000   1
   1   5   1 -1.3400 2.18000   1
   1  -5   1 2.37000 2.19000   1
  -1   5  -1 0.65000 1.75000   1
   1   5   1 0.67000 1.91000   1
   0  -5   2 1.26000 1.09000   1
   0   5  -2 -2.3200 1.61000   1
   0   5  -2 -0.1200 2.53000   1
   0   5   2 -0.4900 1.88000   1
   0   5   2 0.76000 1.90000   1
   0  -5  -2 0.67000 2.12000   1
   0  -5   2 -0.5900 2.06000   1
  13   2  -8 0.67000 1.91000   1
  13   2  -8 0.52000 1.93000   1
  13  -2  -8 0.82000 1.75000   1
 -13   2   8 2.41000 1.65000   1
 -13  -2   8 2.08000 1.73000   1
 -13   2   4 1.49000 1.52000   1
 -13   2   4 3.55000 1.77000   1
 -13  -2   4 2.96000 2.10000   1
  13   2  -4 0.30000 1.63000   1
  13  -2  -4 1.84000 2.01000   1
   1   5  -2 3.41000 1.85000   1
   1   5  -2 -0.5200 3.15000   1
   1  -5  -2 0.46000 1.68000   1
  -1   5   2 0.61000 2.17000   1
  -1   5   2 1.48000 2.15000   1
  -1  -5   2 -0.0800 1.35000   1
  -1  -5   2 1.23000 2.25000   1
  10   0   9 -0.4700 1.06000   1
 -10   0  -9 0.69000 1.07000   1
  -2   0 -18 0.77000 1.65000   1
  -2   0 -18 -0.1400 1.83000   1
   9   0 -19 0.50000 0.99000   1
  -9   0  19 1.03000 1.47000   1
   9   0 -19 0.24000 1.24000   1
  -1   4  12 0.67000 1.09000   1
  -1   4  12 0.63000 1.99000   1
   1   4 -12 1.54000 1.17000   1
   1   4 -12 2.04000 4.09000   1
  -7   1 -13 -0.3900 1.70000   1
  -7  -1 -13 -0.0300 2.13000   1
  -7   1 -13 1.53000 1.37000   1
   7  -1  13 0.63000 0.87000   1
   7   1  13 0.65000 0.88000   1
 -14   1   6 8.58000 2.18000   1
 -14  -1   6 5.30000 2.30000   1
 -14   1   6 4.89000 2.00000   1
  14   1  -6 2.02000 2.18000   1
  14  -1  -6 1.09000 2.14000   1
  14   1  -6 5.35000 2.19000   1
 -14  -1   7 9.17000 2.08000   1
  14  -1  -7 4.01000 1.98000   1
  14   1  -7 0.50000 1.85000   1
 -14   1   7 5.01000 1.93000   1
  14   1  -7 3.65000 1.89000   1
 -14   1   7 5.23000 2.03000   1
  13   1 -13 0.35000 1.23000   1
 -13   1  13 1.15000 1.20000   1
  13   1 -13 -0.8200 1.05000   1
 -13  -1  13 0.01000 0.92000   1
  13  -1 -13 0.09000 1.38000   1
  13  -1 -13 0.82000 1.35000   1
 -10   2  16 0.41000 1.43000   1
  10  -2 -16 -0.0600 0.97000   1
  10   2 -16 -0.0300 1.19000   1
  10   2 -16 0.92000 1.69000   1
  10  -2 -16 -0.9500 1.12000   1
  13   1   1 -1.5000 1.59000   1
  13  -1   1 6.18000 1.71000   1
 -13  -1  -1 -0.0900 1.41000   1
 -13   1  -1 1.40000 1.56000   1
 -13   1  -1 -0.1600 1.09000   1
  13   0 -14 17.3200 2.62000   1
  13   0 -14 11.1900 3.19000   1
  -1   2  18 0.21000 1.73000   1
  -1   2  18 0.67000 1.18000   1
   1   2 -18 0.62000 1.02000   1
   1   2 -18 -0.3000 2.80000   1
  -1  -2  18 -0.4900 0.84000   1
  13   0   2 6.03000 2.85000   1
 -13   0  -2 11.9200 2.53000   1
 -10  -3  -3 -0.6800 0.83000   1
 -10  -3  -3 1.13000 1.96000   1
  10   3   3 1.82000 1.47000   1
  10   3   3 -2.5000 1.64000   1
 -10   3  -3 0.68000 0.94000   1
 -10   3  -3 -0.1300 0.99000   1
  10  -3   3 2.41000 1.38000   1
  -7   3  -9 0.67000 0.77000   1
  -7   3  -9 -2.2600 4.74000   1
  -7   3  -9 3.52000 1.93000   1
   7   3   9 2.41000 1.60000   1
   7  -3   9 -0.7200 1.31000   1
   7   3   9 1.18000 1.23000   1
  -7   3  -9 1.12000 0.68000   1
  -7  -3  -9 -0.0700 1.88000   1
 -12   0  16 0.04000 1.48000   1
  12   0 -16 0.79000 1.24000   1
  12   0 -16 -0.1100 1.18000   1
   8   4   1 0.84000 1.59000   1
   8   4   1 1.26000 1.91000   1
  -8  -4  -1 0.34000 1.19000   1
  -8  -4  -1 2.17000 1.77000   1
   8   4   1 2.00000 1.21000   1
  -8   4  -1 0.55000 1.28000   1
  -8   4  -1 -0.6700 2.88000   1
   8  -4   1 0.43000 1.71000   1
   8  -4   1 2.92000 1.59000   1
  -2   5   1 3.13000 2.86000   1
   2   5  -1 2.30000 1.52000   1
  -2   5   1 0.25000 2.03000   1
  -2  -5   1 2.61000 1.43000   1
  -2  -5   1 1.85000 2.18000   1
   2   5  -1 1.20000 2.15000   1
   2  -5  -1 2.43000 2.29000   1
   9  -2 -17 0.22000 0.95000   1
   9  -2 -17 -0.5800 1.00000   1
  -9   2  17 -0.0600 1.34000   1
   9   2 -17 0.03000 1.02000   1
   9   2 -17 0.54000 1.69000   1
 -14   1   5 5.51000 2.04000   1
 -14  -1   5 10.1500 1.89000   1
 -14   1   5 12.8700 2.37000   1
  14  -1  -5 1.53000 2.48000   1
  14   1  -5 4.40000 2.37000   1
  14   1  -5 4.76000 2.59000   1
 -14   1   8 4.27000 1.80000   1
  14   1  -8 0.83000 1.63000   1
  14  -1  -8 2.02000 1.48000   1
 -14  -1   8 0.95000 1.73000   1
 -14   1   8 0.67000 1.09000   1
  14   1  -8 -0.0100 2.02000   1
   1   5   2 0.98000 1.61000   1
   1   5   2 1.20000 2.11000   1
  -1   5  -2 1.04000 1.36000   1
   1  -5   2 2.74000 2.29000   1
  -1   5  -2 -0.3100 3.34000   1
  -1  -5  -2 0.08000 1.97000   1
  -1  -5  -2 1.59000 2.10000   1
  -5   2 -14 0.81000 1.24000   1
  -5   2 -14 6.38000 4.54000   1
  -5  -2 -14 2.38000 1.52000   1
  -5  -2 -14 3.15000 3.09000   1
   5   2  14 4.05000 1.46000   1
   5   2  14 2.95000 1.05000   1
  -3  -1 -17 2.35000 2.33000   1
  -3   1 -17 2.54000 1.20000   1
  -3   1 -17 1.37000 3.00000   1
  -3  -1 -17 2.96000 1.59000   1
   3   1  17 -0.5300 0.69000   1
   2   5   0 -1.4200 1.90000   1
   2  -5   0 2.93000 2.30000   1
   2   5   0 1.18000 1.69000   1
  -2  -5   0 1.45000 1.99000   1
  -2   5   0 1.55000 1.80000   1
  -2   5   0 1.40000 2.82000   1
  -2  -5   0 0.14000 1.78000   1
  -1   5   3 1.97000 2.16000   1
   1   5  -3 1.21000 2.68000   1
   1   5  -3 2.14000 1.75000   1
   1  -5  -3 0.49000 2.34000   1
  -1   5   3 -0.5700 2.04000   1
  -1  -5   3 0.68000 2.27000   1
   7   0 -20 1.98000 1.47000   1
  -7   0  20 2.17000 1.41000   1
   7   0 -20 1.48000 0.88000   1
   2   5  -2 2.97000 1.83000   1
   2   5  -2 -1.5700 1.24000   1
   2  -5  -2 0.02000 1.95000   1
  -2  -5   2 0.30000 2.07000   1
  -2  -5   2 -1.1800 0.98000   1
  -2   5   2 3.33000 2.76000   1
  -2   5   2 1.33000 1.25000   1
  -6   3  16 1.53000 1.07000   1
  -6   3  16 2.05000 1.92000   1
  -6   3  16 2.95000 2.00000   1
   6   3 -16 1.78000 2.57000   1
   6   3 -16 1.28000 1.26000   1
  12   0   5 -0.6000 1.60000   1
 -12   0  -5 6.32000 1.72000   1
  -5   4  12 2.13000 1.25000   1
  -5   4  12 1.98000 1.88000   1
   5   4 -12 0.52000 1.45000   1
   5   4 -12 -0.4300 1.38000   1
   5   4 -12 2.12000 3.00000   1
   0   5  -3 0.59000 1.75000   1
   0   5   3 1.03000 1.46000   1
   0  -5   3 0.56000 2.19000   1
   0   5   3 1.22000 1.58000   1
   0   5  -3 2.59000 3.45000   1
   0  -5  -3 -0.3700 2.26000   1
  13  -2  -9 1.83000 1.68000   1
 -13   2   9 3.84000 1.68000   1
  13   2  -9 4.15000 1.74000   1
  13   2  -9 0.56000 1.92000   1
 -13  -2   9 -2.0700 1.46000   1
 -13  -2   3 2.67000 1.60000   1
 -13   2   3 -1.0600 1.26000   1
 -13   2   3 1.36000 1.03000   1
  13   2  -3 -0.0700 1.67000   1
  13   2  -3 -0.1000 1.78000   1
  13  -2  -3 0.13000 1.76000   1
   4   2  15 1.34000 1.17000   1
  -4   2 -15 -0.3900 0.80000   1
  -4  -2 -15 1.70000 2.26000   1
   4   2  15 0.27000 0.52000   1
   1   3  15 0.99000 0.87000   1
   1   3  15 -1.2100 1.51000   1
  -1  -3 -15 0.32000 2.11000   1
  -1   3 -15 0.62000 2.39000   1
  11   3 -10 2.19000 1.45000   1
  11   3 -10 0.67000 1.30000   1
  11  -3 -10 0.50000 1.09000   1
 -11   3  10 0.06000 1.36000   1
 -11  -3  10 -0.7200 1.22000   1
   7   4   4 1.05000 1.53000   1
  -7  -4  -4 1.65000 2.37000   1
  -7  -4  -4 -1.5800 1.37000   1
   7   4   4 -0.4900 1.85000   1
   7   4   4 1.69000 1.13000   1
  -7   4  -4 0.94000 2.10000   1
  -7   4  -4 1.27000 1.16000   1
   7  -4   4 1.04000 1.17000   1
  -7   4  -4 2.90000 4.49000   1
   6   2  13 2.99000 1.37000   1
   6   2  13 0.54000 1.07000   1
  -6  -2 -13 0.46000 1.86000   1
  -6   2 -13 4.01000 2.89000   1
  -6   2 -13 0.24000 0.99000   1
  -2   0  20 1.36000 1.67000   1
   2   0 -20 2.19000 1.48000   1
  14   0  -2 -0.2700 1.56000   1
 -14   0   2 0.12000 1.54000   1
 -12   2  13 0.78000 1.61000   1
  12   2 -13 -0.7700 1.49000   1
  12  -2 -13 2.07000 1.38000   1
  12   2 -13 -0.4900 1.90000   1
 -12  -2  13 0.17000 1.25000   1
   2  -5   1 1.13000 2.23000   1
   2   5   1 -1.4500 2.00000   1
  -2  -5  -1 -0.9900 1.43000   1
  -2   5  -1 -0.3400 1.65000   1
  -2   5  -1 -3.0100 2.69000   1
  -2  -5  -1 -0.9900 1.95000   1
   2   5   1 0.74000 1.43000   1
  -9   3  14 1.31000 2.04000   1
   9   3 -14 3.14000 1.34000   1
   9   3 -14 1.66000 1.91000   1
  14   0 -11 2.14000 1.45000   1
  14   0 -11 -0.2000 1.37000   1
 -14   0  11 0.19000 1.49000   1
 -14   1   4 2.10000 1.43000   1
 -14  -1   4 1.92000 1.82000   1
  14   1  -4 0.71000 1.32000   1
  14   1  -4 -1.1300 1.72000   1
  14  -1  -4 0.24000 1.69000   1
 -14   1   4 1.28000 1.30000   1
  10   2   7 -0.4700 1.54000   1
 -10  -2  -7 0.95000 0.67000   1
 -10   2  -7 1.19000 1.28000   1
 -10  -2  -7 1.73000 2.22000   1
 -10   2  -7 0.11000 0.99000   1
  10  -2   7 -0.0700 1.27000   1
  -2   5   3 0.13000 2.02000   1
  -2  -5   3 -0.6700 1.62000   1
  -2   5   3 2.77000 2.79000   1
   2   5  -3 -1.4900 2.31000   1
   2  -5  -3 -1.6500 1.50000   1
   2   5  -3 0.94000 1.78000   1
  -5   1  20 1.00000 1.02000   1
   5   1 -20 2.16000 1.90000   1
   5  -1 -20 0.79000 1.13000   1
  -5   1  20 3.24000 1.93000   1
  -5  -1  20 1.14000 0.63000   1
  -5  -1  20 1.21000 1.35000   1
  14   1  -9 0.93000 1.68000   1
 -14  -1   9 -0.0700 1.42000   1
 -14   1   9 0.41000 1.72000   1
  14   1  -9 -0.4500 1.38000   1
 -14   1   9 2.81000 1.53000   1
  14  -1  -9 -0.7300 1.33000   1
   6   4   6 1.01000 1.98000   1
  -6  -4  -6 0.52000 2.40000   1
   6   4   6 0.06000 1.57000   1
  -6   4  -6 0.21000 1.07000   1
  -6   4  -6 0.08000 4.04000   1
  -8   3  15 -0.3500 1.52000   1
   8  -3 -15 0.43000 1.23000   1
   8   3 -15 0.21000 1.02000   1
   8   3 -15 1.28000 2.46000   1
   4  -1 -20 0.71000 1.00000   1
   4   1 -20 0.53000 1.72000   1
  -4  -1  20 -0.7900 1.43000   1
  -4   1  20 1.78000 1.71000   1
  -4   1  20 0.46000 1.19000   1
 -11  -3   0 3.47000 2.06000   1
  11   3   0 1.93000 1.72000   1
  11   3   0 0.61000 1.59000   1
  11   3   0 1.27000 1.15000   1
 -11   3   0 -0.0400 1.33000   1
 -11   3   0 2.02000 1.32000   1
  11  -3   0 -0.3000 1.83000   1
  10   1 -18 1.14000 1.52000   1
  10   1 -18 0.31000 0.96000   1
  10  -1 -18 0.63000 1.01000   1
 -10   1  18 -1.2700 1.32000   1
  10  -1 -18 1.15000 1.00000   1
  12   2   2 0.82000 1.52000   1
 -12  -2  -2 4.47000 2.24000   1
  12  -2   2 3.07000 1.97000   1
 -12   2  -2 1.15000 1.32000   1
 -12   2  -2 4.10000 1.64000   1
  11   2 -15 1.53000 1.17000   1
 -11   2  15 2.09000 1.69000   1
  11  -2 -15 -0.1300 0.84000   1
  11   2 -15 -0.2300 1.33000   1
  11  -2 -15 -0.4600 1.23000   1
  -1   3  16 -0.6100 1.63000   1
  -1   3  16 1.13000 1.15000   1
   1   3 -16 0.99000 0.73000   1
   1   3 -16 -1.9800 3.23000   1
  -1  -3  16 0.53000 0.58000   1
  11  -1 -17 5.89000 1.73000   1
  11   1 -17 2.05000 1.84000   1
  11  -1 -17 4.72000 1.66000   1
 -11   1  17 4.18000 1.88000   1
  11   1 -17 5.08000 2.13000   1
  -8   4   9 0.44000 0.95000   1
  -8   4   9 0.52000 1.64000   1
   8  -4  -9 1.08000 1.27000   1
  -8  -4   9 0.76000 0.92000   1
   8   4  -9 -2.1300 2.35000   1
   8   4  -9 2.52000 1.82000   1
   8   4  -9 0.65000 1.39000   1
   1   5   3 0.78000 1.06000   1
   1   5   3 1.80000 1.99000   1
   1  -5   3 1.76000 2.05000   1
  -1   5  -3 -0.2100 3.31000   1
  -1  -5  -3 -1.8400 1.84000   1
  -1  -5  -3 -2.3600 1.86000   1
  -1   5  -3 -0.0500 1.55000   1
   0   4  12 2.17000 2.34000   1
   0   4 -12 8.58000 5.04000   1
   1   5  -4 0.52000 1.88000   1
  -1   5   4 -0.5300 2.00000   1
   1   5  -4 -0.6000 2.82000   1
  -1   5   4 3.13000 1.57000   1
  -9   0 -11 0.14000 1.65000   1
   9   0  11 -1.3500 0.99000   1
   0  -1 -19 2.31000 2.67000   1
   0   1 -19 0.82000 3.03000   1
   0  -1 -19 0.84000 1.41000   1
   0   1 -19 7.26000 1.66000   1
   0   1  19 1.50000 0.89000   1
   0   1  19 2.74000 1.81000   1
   0  -1  19 1.25000 1.25000   1
   8  -1  12 -0.0400 0.99000   1
  -8  -1 -12 0.73000 1.38000   1
   8   1  12 0.69000 0.85000   1
  -8   1 -12 0.41000 1.30000   1
   6   1 -20 14.4500 2.91000   1
   6  -1 -20 9.67000 1.52000   1
   6  -1 -20 9.96000 1.99000   1
  -6  -1  20 10.8000 1.63000   1
  -6   1  20 17.6000 2.28000   1
  -6   1  20 18.2700 3.10000   1
  -9   4   4 -0.5800 1.26000   1
   9   4  -4 2.70000 1.86000   1
   9   4  -4 1.36000 1.48000   1
   9  -4  -4 -0.7100 1.83000   1
   9   4  -4 -0.2000 1.35000   1
  -9  -4   4 0.38000 1.35000   1
  -9  -2  -9 1.19000 2.26000   1
  -9   2  -9 0.43000 0.72000   1
  -9   2  -9 -0.8600 1.04000   1
   9  -2   9 0.69000 1.14000   1
   9   2   9 0.45000 1.08000   1
   9   2   9 -0.2200 0.79000   1
   3   2  16 -0.8600 1.34000   1
  -3  -2 -16 0.77000 1.89000   1
  -3   2 -16 0.02000 3.48000   1
   2  -5   2 0.09000 2.35000   1
   2   5   2 1.37000 1.60000   1
  -2  -5  -2 0.99000 2.02000   1
   2   5   2 0.15000 1.32000   1
  -2  -5  -2 -1.2700 2.37000   1
  -2   5  -2 2.30000 3.07000   1
  -2   5  -2 2.81000 1.78000   1
 -11   2  -5 0.25000 1.32000   1
  11   2   5 2.87000 1.43000   1
  11  -2   5 0.56000 1.51000   1
 -11  -2  -5 1.94000 1.61000   1
 -11   2  -5 0.13000 0.91000   1
 -11  -2  -5 0.89000 0.55000   1
   3   4  10 -2.9300 2.01000   1
  -3  -4 -10 0.14000 2.76000   1
  -3   4 -10 1.22000 1.07000   1
  -3   4 -10 1.01000 4.03000   1
   0   5  -4 -3.1000 2.93000   1
   0   5  -4 1.52000 1.57000   1
   0   5   4 -0.5800 2.00000   1
   0   5   4 0.39000 1.37000   1
  13   2 -10 -0.0600 2.21000   1
  13  -2 -10 7.12000 1.72000   1
 -13   2  10 3.85000 2.13000   1
  13   2 -10 5.30000 2.23000   1
 -13  -2  10 3.83000 1.85000   1
   9   4  -5 -2.0600 1.73000   1
   9  -4  -5 1.00000 1.71000   1
   9   4  -5 -0.4800 1.25000   1
   9   4  -5 0.66000 1.83000   1
  -9  -4   5 -0.6600 1.16000   1
  -9   4   5 -0.5800 1.39000   1
 -13  -2   2 1.74000 1.71000   1
 -13   2   2 0.98000 1.38000   1
  13   2  -2 -1.7400 1.82000   1
  13  -2  -2 0.51000 1.75000   1
 -13   2   2 1.10000 1.29000   1
  13   2  -2 0.99000 1.77000   1
  -3   5   1 0.85000 1.84000   1
   3  -5  -1 -2.2800 1.74000   1
   3   5  -1 1.73000 1.86000   1
   3   5  -1 1.05000 2.15000   1
  -3  -5   1 1.88000 2.17000   1
  -3   5   1 2.17000 2.94000   1
  -3  -5   1 2.13000 1.72000   1
  -8   2  18 1.60000 1.66000   1
   8  -2 -18 2.08000 1.10000   1
   8  -2 -18 0.28000 0.86000   1
   8   2 -18 0.79000 1.33000   1
   8   2 -18 5.31000 2.12000   1
  -3  -1  20 2.83000 1.46000   1
  -3   1  20 0.99000 1.95000   1
   3  -1 -20 1.00000 0.80000   1
   3   1 -20 1.48000 2.17000   1
  -3   1  20 2.51000 1.17000   1
   3  -5  -2 -0.6600 1.90000   1
   3   5  -2 4.69000 2.24000   1
   3   5  -2 2.38000 2.16000   1
  -3   5   2 0.69000 2.19000   1
  -3  -5   2 0.44000 1.60000   1
  -3   5   2 3.40000 2.96000   1
  -3  -5   2 3.29000 2.22000   1
  -4  -4  -9 1.41000 2.71000   1
   4   4   9 -0.2900 1.51000   1
   4   4   9 1.07000 1.92000   1
  -4   4  -9 0.72000 1.25000   1
  -4   4  -9 0.73000 3.23000   1
   2   5  -4 3.54000 3.34000   1
   2   5  -4 1.97000 1.87000   1
  -2   5   4 0.41000 2.23000   1
  -2   5   4 1.18000 1.90000   1
  -9  -4   3 0.84000 1.42000   1
   9   4  -3 -0.4100 1.40000   1
   9  -4  -3 -0.1000 1.75000   1
  -9   4   3 -0.3200 1.32000   1
   9   4  -3 2.45000 1.47000   1
   9  -4  -3 0.83000 1.39000   1
   9   4  -3 0.43000 1.95000   1
 -11  -1  -7 1.56000 1.46000   1
 -11   1  -7 -0.6400 1.02000   1
  11  -1   7 1.34000 1.46000   1
 -11   1  -7 2.30000 1.49000   1
  11   1   7 0.76000 1.31000   1
   7   2  12 -0.4700 1.57000   1
  -7  -2 -12 -0.2300 1.68000   1
  -7   2 -12 0.57000 2.32000   1
  -7   2 -12 1.19000 4.40000   1
  -7   2 -12 1.45000 1.00000   1
   7   2  12 0.93000 0.87000   1
   7  -2  12 0.64000 0.98000   1
 -14   1   3 0.02000 1.62000   1
 -14  -1   3 1.15000 1.36000   1
 -14   1   3 1.74000 1.34000   1
  14   1  -3 -0.5500 1.62000   1
  14  -1  -3 1.17000 1.31000   1
  -8  -4  -2 -2.2800 1.26000   1
   8   4   2 0.84000 1.97000   1
   8   4   2 0.29000 1.66000   1
   8   4   2 1.93000 1.24000   1
  -8  -4  -2 -0.3700 2.04000   1
  -8   4  -2 2.93000 2.11000   1
   8  -4   2 1.90000 1.63000   1
  -8   4  -2 1.66000 1.18000   1
  -9  -3  -6 0.52000 1.09000   1
   9   3   6 1.59000 1.78000   1
   9   3   6 2.83000 1.57000   1
  -9  -3  -6 5.46000 2.49000   1
   9  -3   6 0.98000 1.66000   1
  -9   3  -6 1.33000 0.95000   1
  -9   3  -6 0.60000 1.05000   1
 -14   1  10 2.78000 1.45000   1
 -14   1  10 0.80000 1.32000   1
  14   1 -10 -0.0400 1.15000   1
  14   1 -10 0.37000 1.86000   1
  14  -1 -10 -0.2100 1.16000   1
 -14  -1  10 0.82000 1.43000   1
  -3   5   0 -1.0600 1.20000   1
   3   5   0 -1.9800 1.54000   1
   3  -5   0 1.12000 1.58000   1
   3   5   0 0.83000 1.52000   1
  -3  -5   0 2.12000 1.73000   1
  -3  -5   0 -1.9000 1.81000   1
  -3   5   0 -0.3700 2.76000   1
   7  -4 -11 2.04000 1.60000   1
   7   4 -11 -1.4100 2.84000   1
   7   4 -11 2.44000 1.55000   1
  -7   4  11 1.08000 1.29000   1
  -7   4  11 1.07000 1.28000   1
  -7   4  11 4.48000 2.02000   1
   7   4 -11 0.79000 1.45000   1
   4   3  13 1.17000 0.99000   1
   4   3  13 -0.2500 1.54000   1
  -4   3 -13 -0.0300 2.88000   1
  -4   3 -13 0.72000 0.48000   1
  -4  -3 -13 -0.4600 2.33000   1
  10  -1   9 1.97000 1.37000   1
  10   1   9 -0.1100 1.26000   1
 -10   1  -9 3.38000 1.63000   1
 -10  -1  -9 2.32000 2.17000   1
 -10   1  -9 0.21000 0.74000   1
  10   3 -13 2.39000 1.35000   1
  10   3 -13 1.44000 2.11000   1
  10  -3 -13 1.68000 1.54000   1
 -10   3  13 -0.0900 1.79000   1
   3   5  -3 2.38000 1.97000   1
  -3  -5   3 2.43000 1.41000   1
   3  -5  -3 3.22000 2.29000   1
  -3   5   3 0.72000 2.32000   1
  -3  -5   3 -0.5200 0.88000   1
  -3   5   3 0.54000 1.50000   1
   3   5  -3 2.12000 2.27000   1
   9   4  -6 0.05000 1.73000   1
   9   4  -6 0.21000 0.94000   1
  -9  -4   6 0.45000 1.09000   1
   9   4  -6 2.58000 1.87000   1
   9  -4  -6 2.64000 1.78000   1
   5   3  12 0.48000 0.83000   1
  -5   3 -12 -0.5800 0.56000   1
  -5   3 -12 2.73000 3.02000   1
  -5  -3 -12 3.24000 2.65000   1
   5   3  12 1.35000 1.48000   1
  -2  -1 -18 0.05000 2.04000   1
  -2   1 -18 4.65000 3.05000   1
  -2  -1 -18 2.73000 2.53000   1
  -2   1 -18 0.92000 1.76000   1
   9   1 -19 -0.4000 1.08000   1
   9   1 -19 0.96000 1.65000   1
   9  -1 -19 2.65000 1.10000   1
   9  -1 -19 1.39000 0.85000   1
  -9  -1  19 0.06000 1.19000   1
  -9   1  19 0.63000 1.37000   1
  -5   0 -16 1.28000 2.42000   1
  -5   0 -16 -0.0400 1.76000   1
  -2   4 -11 -0.2200 4.07000   1
  -2  -4 -11 2.32000 2.94000   1
  -2   4 -11 0.16000 0.84000   1
   2   4  11 0.48000 1.75000   1
  -6   0 -15 0.43000 2.34000   1
  -6   0 -15 -0.8800 1.58000   1
  -6   0 -15 0.13000 0.90000   1
   6   4 -12 -0.1800 2.38000   1
  -6   4  12 -0.0400 1.13000   1
  -6   4  12 0.60000 1.83000   1
   6   4 -12 0.12000 1.22000   1
   6   4 -12 -0.6600 1.25000   1
   8   0 -20 1.36000 1.42000   1
  -8   0  20 2.40000 1.18000   1
   8   0 -20 1.75000 0.92000   1
  -4   2  19 -0.2100 1.33000   1
  -4   2  19 -0.9600 1.19000   1
   4   2 -19 -0.0200 2.32000   1
  -4  -2  19 0.33000 0.94000   1
  -1   0 -19 3.31000 2.46000   1
  -1   0 -19 0.72000 1.61000   1
   1   0  19 1.49000 1.40000   1
   7   3 -16 3.33000 1.86000   1
   7   3 -16 1.66000 1.24000   1
  -7   3  16 5.76000 1.44000   1
  -7   3  16 -0.7600 1.92000   1
   7  -3 -16 0.60000 1.45000   1
  -9   4   2 2.26000 1.34000   1
   9   4  -2 1.05000 1.51000   1
   9   4  -2 1.38000 2.13000   1
   9   4  -2 -0.1300 1.60000   1
  -9  -4   2 1.49000 1.94000   1
   9  -4  -2 1.14000 1.43000   1
   9  -4  -2 0.01000 1.30000   1
  -5  -2  19 -0.2900 0.64000   1
   5   2 -19 0.08000 2.07000   1
   5  -2 -19 1.22000 0.59000   1
   5   2 -19 0.52000 0.77000   1
  -5   2  19 1.68000 1.24000   1
  -5   2  19 -0.3600 1.69000   1
  13  -1 -14 0.29000 1.39000   1
  13   1 -14 0.52000 1.34000   1
  13  -1 -14 1.09000 1.29000   1
  13   1 -14 -0.6000 1.21000   1
 -13   1  14 1.06000 1.65000   1
 -14   0   1 0.09000 1.34000   1
  14   0  -1 -0.0500 1.14000   1
   8   3   8 -1.4000 1.26000   1
  -8  -3  -8 3.38000 2.52000   1
   8   3   8 2.10000 1.73000   1
  -8   3  -8 1.06000 0.87000   1
  -8   3  -8 1.00000 2.57000   1
  -8   3  -8 0.49000 0.73000   1
   8  -3   8 0.28000 1.47000   1
 -13   1  -2 -0.0700 1.11000   1
  13  -1   2 3.82000 1.62000   1
  13   1   2 2.32000 1.59000   1
 -13   1  -2 0.03000 1.40000   1
 -13  -1  -2 0.79000 1.93000   1
   0   2 -18 3.06000 3.79000   1
   0   2 -18 -1.5400 1.21000   1
   0   2  18 2.36000 1.80000   1
   0  -2  18 1.28000 0.86000   1
   0   2  18 0.54000 1.49000   1
 -11  -3  11 1.33000 1.19000   1
  11   3 -11 1.36000 1.16000   1
  11  -3 -11 1.43000 1.46000   1
  11   3 -11 2.65000 2.11000   1
 -11   3  11 0.87000 1.67000   1
  -3   4  13 0.75000 2.08000   1
   3   4 -13 0.97000 1.15000   1
   3   4 -13 3.21000 1.51000   1
   3   4 -13 -2.8900 3.94000   1
  -3   4  13 2.29000 1.46000   1
  12   1 -16 -0.0200 1.57000   1
 -12   1  16 1.66000 1.49000   1
  12   1 -16 0.21000 1.25000   1
  12  -1 -16 1.18000 1.34000   1
  12  -1 -16 -0.1500 1.29000   1
   5   4   8 -1.1400 1.92000   1
  -5  -4  -8 2.35000 2.64000   1
  -5   4  -8 0.24000 1.05000   1
  -5   4  -8 5.16000 4.49000   1
   5   4   8 1.82000 1.40000   1
 -14   0  12 0.90000 1.22000   1
  14   0 -12 1.68000 1.45000   1
  14   0 -12 1.21000 1.56000   1
  -1  -5  -4 1.56000 2.13000   1
  -1  -5  -4 -0.2000 1.50000   1
   1   5   4 1.03000 1.82000   1
  -1   5  -4 -1.4700 1.53000   1
  -1   5  -4 7.43000 3.63000   1
   1   5   4 -0.0600 1.12000   1
  -3   5  -1 0.11000 3.19000   1
  -3  -5  -1 -0.7500 1.30000   1
  -3   5  -1 1.43000 1.63000   1
   3  -5   1 1.63000 2.05000   1
   3   5   1 -0.0900 1.58000   1
   3   5   1 2.52000 2.11000   1
  -3  -5  -1 -0.6700 1.60000   1
   3   3  14 -0.0700 0.89000   1
   3   3  14 2.23000 1.66000   1
  -3  -3 -14 3.07000 2.39000   1
  -3   3 -14 0.51000 4.10000   1
  -1   5   5 -1.6400 1.51000   1
   1   5  -5 0.26000 2.88000   1
   1   5  -5 -0.3200 1.73000   1
  -1   5   5 -1.1500 2.02000   1
  -2  -5  -3 0.29000 1.85000   1
   2   5   3 -0.2300 1.90000   1
   2   5   3 0.03000 0.99000   1
   2  -5   3 0.66000 1.59000   1
  -2  -5  -3 -0.9900 1.95000   1
  -2   5  -3 1.25000 1.58000   1
  -2   5  -3 5.79000 2.96000   1
   7   1 -20 1.72000 2.03000   1
  -7  -1  20 3.70000 1.34000   1
   7   1 -20 1.24000 1.05000   1
  -7   1  20 3.51000 1.81000   1
   7  -1 -20 2.61000 1.05000   1
   7  -1 -20 2.64000 1.45000   1
 -10  -3  -4 -0.0600 1.07000   1
 -10   3  -4 0.31000 0.99000   1
 -10   3  -4 0.05000 0.95000   1
  10   3   4 0.14000 1.63000   1
  10   3   4 -0.2400 1.45000   1
  10  -3   4 -0.3500 1.52000   1
 -10  -3  -4 3.50000 2.17000   1
  -1   0  20 11.3400 2.46000   1
   1   0 -20 12.9100 2.74000   1
   1   0 -20 13.6000 2.39000   1
   3   5  -4 2.50000 2.65000   1
  -3   5   4 7.39000 2.42000   1
  -3   5   4 1.86000 2.88000   1
   3   5  -4 2.96000 1.78000   1
   2   4 -13 0.24000 1.22000   1
   2   4 -13 -2.6900 3.59000   1
  -2   4  13 -0.9600 1.47000   1
 -11   3  -1 0.30000 1.14000   1
 -11  -3  -1 0.03000 1.94000   1
  11   3   1 1.55000 1.53000   1
 -11   3  -1 -0.0600 1.31000   1
  11  -3   1 0.54000 1.63000   1
  11   3   1 2.01000 1.27000   1
  11   3   1 1.58000 1.59000   1
  11   0 -18 4.26000 1.40000   1
  11   0 -18 1.53000 1.69000   1
 -11   0  18 4.87000 1.88000   1
   4   4 -13 2.23000 3.29000   1
  -4   4  13 1.23000 1.87000   1
  -4   4  13 0.09000 1.39000   1
   4   4 -13 0.77000 1.20000   1
   4   4 -13 0.58000 1.19000   1
  12   1   5 -1.0900 1.29000   1
  12  -1   5 1.44000 1.45000   1
 -12   1  -5 0.19000 0.91000   1
 -12   1  -5 1.97000 1.33000   1
 -12  -1  -5 -0.3900 1.79000   1
  13   0 -15 -0.2000 1.41000   1
  13   0 -15 1.70000 1.13000   1
 -13   0  15 -0.9700 1.04000   1
  -4   0 -17 0.26000 1.71000   1
  -4   0 -17 2.27000 2.49000   1
   6   3  11 -1.0300 1.55000   1
   6   3  11 2.12000 1.19000   1
  -6   3 -11 3.97000 2.99000   1
  -6  -3 -11 1.84000 2.68000   1
  -6   3 -11 -0.0300 0.68000   1
   3   2 -19 1.40000 2.48000   1
  -3   2  19 0.93000 1.26000   1
  -3  -2  19 -0.0600 0.92000   1
  -3   2  19 0.89000 1.17000   1
   3   2 -19 -0.8600 0.98000   1
  -9   4   7 -2.5200 1.46000   1
  -9  -4   7 -0.3300 1.27000   1
   9   4  -7 0.14000 1.40000   1
   9   4  -7 1.49000 1.77000   1
   9  -4  -7 -1.3900 1.54000   1
   9   4  -7 -0.1400 1.27000   1
 -13   0  -3 -2.3300 1.59000   1
  13   0   3 1.25000 1.58000   1
  -2   5   5 1.72000 1.57000   1
   2   5  -5 0.76000 2.61000   1
   2   5  -5 -0.2100 1.87000   1
  -2   5   5 0.78000 1.93000   1
  -7   0 -14 0.55000 1.70000   1
  -8   4  10 0.46000 1.56000   1
   8  -4 -10 1.63000 1.65000   1
  -8   4  10 -0.2600 1.20000   1
   8   4 -10 1.97000 1.69000   1
   8   4 -10 2.57000 1.32000   1
   8   4 -10 -0.8600 2.57000   1
  -2   1  20 1.44000 1.49000   1
  -2   1  20 0.03000 0.85000   1
  -2  -1  20 1.06000 1.10000   1
   2  -1 -20 -0.1800 0.78000   1
   2   1 -20 -1.8200 1.26000   1
   2   1 -20 -0.5300 2.02000   1
  -6   2  19 2.55000 1.59000   1
   6   2 -19 1.71000 2.07000   1
  -6   2  19 -0.1000 1.19000   1
   6  -2 -19 0.07000 0.68000   1
   6  -2 -19 0.35000 0.69000   1
   6   2 -19 -0.1600 0.71000   1
   0   5  -5 0.86000 2.88000   1
   0   5  -5 -0.7800 1.54000   1
   0   5   5 1.12000 2.11000   1
 -13   2  11 -1.2700 1.42000   1
 -13  -2  11 -0.6900 1.28000   1
  13   2 -11 -0.1000 1.78000   1
  13  -2 -11 0.40000 1.51000   1
  13   2 -11 -0.3700 1.49000   1
 -13   2   1 -0.6800 1.26000   1
  13   2  -1 0.12000 1.20000   1
 -13  -2   1 -0.8400 1.63000   1
  13   2  -1 -1.0000 1.69000   1
 -13   2   1 0.25000 0.82000   1
  13  -2  -1 0.52000 1.68000   1
   0   3 -16 -0.0500 0.86000   1
   0   3 -16 -0.2600 3.80000   1
   0   3  16 0.01000 1.55000   1
   0   3  16 1.54000 1.49000   1
 -14   1   2 1.35000 1.65000   1
  14  -1  -2 0.65000 1.69000   1
 -14   1   2 -0.0600 1.21000   1
 -14  -1   2 1.71000 1.40000   1
  14   1  -2 0.10000 1.69000   1
   9   4  -1 -1.5900 1.45000   1
   9  -4  -1 -0.2400 1.37000   1
   9   4  -1 0.03000 1.41000   1
   9   4  -1 0.79000 1.22000   1
  -9  -4   1 -2.1200 2.01000   1
  -9   4   1 0.88000 1.14000   1
   9  -4  -1 -0.5700 1.70000   1
  10   0 -19 -0.0900 0.85000   1
  10   0 -19 0.74000 1.17000   1
 -10   0  19 -0.7700 1.20000   1
  -2   2 -17 1.70000 0.93000   1
   2   2  17 -0.0700 1.15000   1
  -2  -2 -17 0.23000 2.93000   1
  -2   2 -17 -1.8900 3.68000   1
 -14   1  11 1.64000 1.85000   1
  14   1 -11 1.29000 1.28000   1
  14  -1 -11 1.78000 1.56000   1
  14   1 -11 0.55000 1.52000   1
 -14  -1  11 1.30000 1.56000   1
   7   4   5 -0.8500 0.75000   1
   7   4   5 1.75000 1.81000   1
  -7  -4  -5 2.44000 2.25000   1
  -7  -4  -5 -0.4700 1.21000   1
  -7  -4  -5 3.56000 2.20000   1
   7   4   5 1.19000 1.42000   1
  -7   4  -5 4.03000 1.72000   1
  -7   4  -5 -0.3700 1.01000   1
  -7   4  -5 -6.6100 4.67000   1
  12   2 -14 -1.1600 1.52000   1
 -12   2  14 0.17000 1.53000   1
  12  -2 -14 0.13000 1.15000   1
  12   2 -14 0.31000 0.92000   1
  -1   4 -12 6.62000 3.99000   1
  -1   4 -12 0.47000 1.06000   1
   1   4  12 0.39000 2.00000   1
   4   3 -17 -0.3000 0.78000   1
   4   3 -17 0.25000 2.81000   1
  -4   3  17 -2.2400 1.57000   1
  -4   3  17 1.36000 1.56000   1
 -11   0  -8 0.10000 1.31000   1
  11   0   8 0.73000 1.28000   1
   3  -5   2 1.09000 1.99000   1
   3   5   2 3.23000 2.10000   1
  -3   5  -2 2.10000 1.54000   1
  -3  -5  -2 -2.5200 1.91000   1
  -3   5  -2 3.15000 3.51000   1
   3   5   2 0.78000 1.15000   1
  -3  -5  -2 -0.2600 1.70000   1
 -12   3   6 -0.5600 1.31000   1
 -12  -3   6 3.28000 1.38000   1
  12  -3  -6 -1.7700 1.47000   1
  12   3  -6 -0.2200 1.04000   1
  12   3  -6 0.09000 1.40000   1
  12  -3  -5 -0.1900 1.68000   1
  12   3  -5 1.01000 1.18000   1
  12   3  -5 -0.0800 1.53000   1
 -12  -3   5 2.45000 1.39000   1
 -12   3   5 0.53000 1.31000   1
  -8   2 -11 3.74000 2.20000   1
  -8  -2 -11 -1.4700 2.24000   1
   8   2  11 0.90000 1.08000   1
   8  -2  11 0.76000 1.11000   1
   8   2  11 -0.9000 1.17000   1
  12   2   3 1.90000 1.26000   1
 -12  -2  -3 -1.2900 2.06000   1
 -12   2  -3 1.39000 1.07000   1
 -12   2  -3 0.50000 1.43000   1
  12  -2   3 0.47000 1.72000   1
  -4   5   2 2.38000 1.86000   1
  -4  -5   2 -0.3400 2.10000   1
  -4   5   2 4.42000 3.03000   1
   4  -5  -2 2.99000 2.43000   1
   4   5  -2 3.74000 2.57000   1
   4   5  -2 0.90000 2.14000   1
  -4  -5   2 -0.4400 1.28000   1
  12   0 -17 -1.6000 0.97000   1
  12   0 -17 -0.3400 1.20000   1
 -12   0  17 -0.5800 1.56000   1
   9  -1  11 2.01000 1.05000   1
  -9  -1 -11 1.49000 1.34000   1
  -9   1 -11 1.07000 1.52000   1
   9   1  11 -0.3000 0.95000   1
  -3  -3  17 -0.0700 0.62000   1
   3   3 -17 1.14000 2.99000   1
  -3   3  17 -1.9100 1.52000   1
   3   3 -17 -0.1700 0.62000   1
  -3   3  17 -0.3100 1.27000   1
  -1   4  13 -0.2000 1.04000   1
  -1   4  13 0.06000 1.95000   1
   1   4 -13 1.36000 0.89000   1
   1   4 -13 5.69000 4.00000   1
   3   5  -5 4.13000 2.56000   1
  -3   5   5 1.48000 2.00000   1
  -3   5   5 2.00000 2.25000   1
   3   5  -5 4.65000 2.00000   1
   5   4 -13 0.59000 1.14000   1
   5   4 -13 4.29000 2.71000   1
  -5   4  13 -1.2000 1.28000   1
  -5   4  13 0.07000 1.17000   1
   5   4 -13 0.60000 1.21000   1
  -4   5   1 -2.2800 1.04000   1
  -4   5   1 5.80000 2.77000   1
  -4  -5   1 1.98000 1.29000   1
   4   5  -1 -1.2300 1.66000   1
   4   5  -1 0.40000 1.62000   1
  -4  -5   1 0.98000 1.22000   1
   4  -5  -1 -0.7300 1.78000   1
 -12   3   7 0.95000 1.32000   1
  12  -3  -7 0.54000 1.48000   1
  12   3  -7 0.59000 1.73000   1
  12   3  -7 0.30000 1.34000   1
 -12  -3   7 0.40000 1.29000   1
  10   2 -17 0.00000 1.16000   1
  10   2 -17 0.04000 1.21000   1
  10  -2 -17 1.98000 1.22000   1
  10  -2 -17 2.30000 1.13000   1
 -10   2  17 -0.7500 1.54000   1
  -8  -4  -3 -1.9300 2.08000   1
  -8  -4  -3 2.19000 1.27000   1
   8   4   3 1.79000 1.79000   1
   8   4   3 -1.6600 1.52000   1
   8   4   3 -0.1000 1.32000   1
  -8   4  -3 -0.4900 2.24000   1
  -8   4  -3 0.90000 1.17000   1
   8  -4   3 2.32000 1.61000   1
  12  -3  -4 2.35000 1.29000   1
  12   3  -4 2.33000 1.31000   1
 -12   3   4 1.30000 1.39000   1
 -12  -3   4 0.06000 1.61000   1
  12   3  -4 -0.8200 1.72000   1
   5   3 -17 0.76000 0.88000   1
   5   3 -17 1.25000 2.63000   1
  -5   3  17 1.08000 1.67000   1
  -5   3  17 -0.5400 1.60000   1
   2   3  15 0.08000 0.94000   1
  -2   3 -15 -1.2100 3.92000   1
  -2  -3 -15 1.26000 3.12000   1
   2   3  15 2.27000 1.77000   1
  -4  -5   3 1.39000 1.20000   1
  -4   5   3 2.50000 2.93000   1
   4   5  -3 1.10000 2.05000   1
   4  -5  -3 3.76000 2.25000   1
  -4   5   3 -0.9400 1.72000   1
   4   5  -3 1.55000 1.97000   1
   9  -4  -8 1.72000 1.23000   1
   9   4  -8 -1.9800 1.37000   1
   9   4  -8 1.84000 1.68000   1
  -9   4   8 2.39000 1.51000   1
  -9  -4   8 1.41000 1.14000   1
   9   4  -8 0.76000 1.92000   1
  -6   4  -7 1.00000 4.15000   1
  -6   4  -7 2.07000 1.09000   1
   6   4   7 -1.3500 1.32000   1
   6   4   7 -0.3200 1.40000   1
  -6  -4  -7 -5.0400 2.37000   1
 -12   0  -6 1.43000 1.12000   1
  12   0   6 -1.0300 1.41000   1
  -2   2  19 2.19000 1.25000   1
  -2   2  19 -1.2000 1.37000   1
   2   2 -19 -1.7300 2.74000   1
   2   2 -19 0.99000 1.09000   1
  -2  -2  19 0.38000 0.91000   1
  -3   0 -18 0.41000 1.82000   1
  -3   0 -18 2.61000 2.28000   1
   2   5   4 1.40000 1.87000   1
  -2   5  -4 -0.4300 1.47000   1
  -2  -5  -4 -2.0100 1.88000   1
  -2   5  -4 1.23000 3.43000   1
   1   5   5 1.95000 2.06000   1
  -1   5  -5 -5.0200 3.79000   1
  -1  -5  -5 0.88000 2.26000   1
  -9   3  15 0.17000 1.78000   1
   9   3 -15 1.76000 2.46000   1
   9  -3 -15 0.73000 1.28000   1
   4   5   0 0.75000 1.59000   1
  -4  -5   0 0.68000 1.95000   1
  -4  -5   0 3.91000 2.02000   1
   4  -5   0 -0.8400 2.15000   1
   4   5   0 3.35000 1.99000   1
  -4   5   0 2.33000 3.49000   1
  -4   5   0 3.34000 1.53000   1
  -7   3 -10 0.14000 2.66000   1
  -7   3 -10 2.01000 4.60000   1
  -7  -3 -10 4.85000 2.77000   1
   7   3  10 0.06000 1.32000   1
   7  -3  10 1.12000 0.96000   1
  -7   3 -10 1.52000 0.87000   1
   7   3  10 1.14000 1.69000   1
   1   5  -6 -0.1100 3.24000   1
   1   5  -6 -0.9900 1.72000   1
  -1   5   6 -0.8500 1.96000   1
  10   0  10 3.88000 1.72000   1
 -10   0 -10 1.08000 1.88000   1
  14   0   0 0.25000 1.94000   1
 -14   0   0 2.25000 1.95000   1
  -9  -4   0 -0.1100 0.93000   1
  -9  -4   0 0.07000 1.84000   1
  -9   4   0 1.76000 1.28000   1
   9   4   0 0.61000 1.57000   1
   9  -4   0 0.41000 1.80000   1
   9  -4   0 1.27000 1.41000   1
   9   4   0 0.62000 2.10000   1
   9   4   0 1.01000 1.30000   1
  -2   5   6 0.12000 1.47000   1
   2   5  -6 1.14000 1.62000   1
   2   5  -6 0.71000 3.05000   1
  -8   0 -13 -0.6600 1.64000   1
   8   0  13 1.01000 0.92000   1
  11   2 -16 0.79000 1.31000   1
  11  -2 -16 0.36000 1.26000   1
  11   2 -16 0.49000 1.32000   1
  11  -2 -16 0.90000 1.10000   1
 -11   2  16 0.66000 1.66000   1
  -4   5   4 -0.9900 2.69000   1
   4   5  -4 3.41000 2.62000   1
   4   5  -4 3.86000 2.51000   1
  -4   5   4 3.92000 2.27000   1
  12  -3  -8 0.61000 1.20000   1
  12   3  -8 -0.0700 1.44000   1
  12   3  -8 0.11000 1.72000   1
 -12  -3   8 1.89000 1.38000   1
 -12   3   8 0.11000 1.16000   1
  14   0 -13 -0.3000 1.00000   1
  14   0 -13 1.61000 1.10000   1
  -7   2  19 1.24000 1.14000   1
  -7   2  19 1.41000 1.31000   1
   7   2 -19 0.89000 0.81000   1
   7   2 -19 1.55000 2.02000   1
   7  -2 -19 -0.0700 0.74000   1
   7  -2 -19 -0.2800 0.87000   1
  -5   0  21 1.37000 1.50000   1
  -5   0  21 -0.3200 0.78000   1
   5   0 -21 -0.8300 1.34000   1
   9   2 -18 1.39000 1.66000   1
   9  -2 -18 0.32000 0.91000   1
   9   2 -18 0.28000 0.99000   1
   9  -2 -18 -0.8500 0.74000   1
  -9   2  18 -0.3100 1.49000   1
 -12  -3   3 0.02000 1.63000   1
  12  -3  -3 -0.3200 1.70000   1
 -12   3   3 0.67000 1.23000   1
  12   3  -3 1.47000 1.59000   1
  12   3  -3 1.56000 1.60000   1
  12  -3  -3 1.50000 0.97000   1
  -5   1 -16 5.75000 1.68000   1
  -5  -1 -16 5.62000 2.80000   1
  -5   1 -16 1.70000 4.18000   1
  -5  -1 -16 8.30000 3.50000   1
 -11   3  12 1.09000 1.62000   1
  11   3 -12 3.50000 1.26000   1
  11  -3 -12 0.24000 1.56000   1
  11   3 -12 0.32000 1.89000   1
 -11  -3  12 0.40000 1.59000   1
  -6  -1 -15 -1.3800 2.18000   1
  -6   1 -15 1.02000 1.32000   1
  -6   1 -15 0.22000 3.66000   1
  -6  -1 -15 1.05000 2.20000   1
   8  -1 -20 0.42000 0.74000   1
   8   1 -20 -0.3900 0.83000   1
   8   1 -20 2.23000 1.66000   1
   8  -1 -20 0.80000 1.19000   1
  -8   1  20 0.11000 1.21000   1
  -8  -1  20 1.15000 1.23000   1
   1   1  19 2.12000 1.77000   1
  -1  -1 -19 0.46000 1.63000   1
  -1   1 -19 -2.1500 3.24000   1
  -1   1 -19 0.37000 1.49000   1
   1  -1  19 2.74000 0.94000   1
  -1  -1 -19 -1.8600 477.830   1
   2   3 -17 -0.3500 2.79000   1
   2   3 -17 -0.0500 0.73000   1
  -2   3  17 0.48000 1.45000   1
  -2  -3  17 0.08000 0.67000   1
   4   0 -21 0.22000 1.31000   1
  -4   0  21 -2.5600 1.61000   1
   7   4 -12 5.84000 2.59000   1
   7   4 -12 2.00000 1.32000   1
  -7   4  12 1.19000 1.73000   1
  -7   4  12 -1.0700 1.89000   1
   7  -4 -12 -1.2600 1.09000   1
  -7   4  12 2.14000 1.24000   1
  14   1  -1 0.60000 1.75000   1
  14  -1  -1 0.29000 1.26000   1
 -14   1   1 0.81000 1.66000   1
 -14   1   1 1.05000 1.28000   1
 -14  -1   1 2.72000 1.73000   1
  -8   3  16 0.93000 1.43000   1
   8   3 -16 -0.6800 2.34000   1
  -8   3  16 2.51000 1.62000   1
   8   3 -16 1.15000 1.14000   1
   8  -3 -16 0.36000 1.34000   1
   3   5   3 1.74000 0.86000   1
  -3   5  -3 4.06000 3.58000   1
  -3  -5  -3 1.42000 1.80000   1
  -3  -5  -3 -1.8200 1.94000   1
   3  -5   3 -0.9100 1.48000   1
  -3   5  -3 -0.2600 1.53000   1
   3   5   3 0.23000 2.18000   1
   9   0 -20 -0.0100 1.30000   1
   9   0 -20 0.04000 0.97000   1
  -9   0  20 2.58000 1.49000   1
 -10  -2  -8 4.71000 2.48000   1
 -10   2  -8 -0.5000 0.76000   1
  10   2   8 1.80000 1.55000   1
  10  -2   8 -0.2700 1.38000   1
 -10   2  -8 2.93000 1.34000   1
  14   1 -12 2.68000 2.20000   1
 -14   1  12 5.72000 2.15000   1
  14  -1 -12 1.18000 2.14000   1
  14   1 -12 5.09000 1.99000   1
  14  -1 -12 5.04000 1.55000   1
 -14  -1  12 7.84000 1.90000   1
   0   5  -6 1.84000 3.22000   1
   0   5   6 2.42000 2.37000   1
   0   5  -6 -0.4400 1.69000   1
  13   2 -12 -1.0000 1.46000   1
 -13  -2  12 0.24000 1.44000   1
  13   2 -12 0.43000 1.27000   1
  13  -2 -12 -0.2800 1.05000   1
 -13   2  12 1.20000 1.49000   1
  -6   0  21 0.78000 0.95000   1
  -6   0  21 0.82000 1.54000   1
   6   0 -21 1.60000 1.33000   1
   6   3 -17 1.42000 2.23000   1
   6   3 -17 0.20000 0.84000   1
  -6   3  17 0.36000 1.69000   1
  -6   3  17 0.37000 1.47000   1
  13  -2   0 0.22000 1.77000   1
 -13  -2   0 3.27000 1.78000   1
 -13   2   0 0.40000 1.47000   1
  13   2   0 -0.1400 1.76000   1
 -13   2   0 0.39000 1.18000   1
  11   3   2 2.25000 1.57000   1
 -11  -3  -2 -1.1700 2.19000   1
  11   3   2 -0.0200 1.04000   1
  11   3   2 0.56000 1.12000   1
 -11   3  -2 1.24000 1.07000   1
  11  -3   2 -0.7600 1.51000   1
 -11   3  -2 0.88000 1.17000   1
  10  -3 -14 1.06000 1.45000   1
 -10   3  14 -0.0600 1.74000   1
  10   3 -14 2.31000 1.36000   1
  10   3 -14 2.05000 2.37000   1
   4  -5   1 3.42000 1.90000   1
  -4   5  -1 2.16000 3.32000   1
  -4   5  -1 0.55000 1.52000   1
   4   5   1 0.21000 1.80000   1
  -4  -5  -1 -2.0200 1.73000   1
  -4  -5  -1 -0.6000 1.68000   1
   4   5   1 0.62000 1.22000   1
 -11   2  -6 1.94000 1.30000   1
  11  -2   6 2.11000 1.50000   1
  11   2   6 0.08000 1.64000   1
 -11   2  -6 0.08000 1.13000   1
 -11  -2  -6 0.87000 2.41000   1
   1  -1 -20 1.78000 1.01000   1
  -1   1  20 1.63000 1.93000   1
   1   1 -20 3.01000 2.69000   1
   1   1 -20 1.97000 1.97000   1
  -1  -1  20 1.62000 1.49000   1
  -3   5   6 1.19000 2.23000   1
  -3   5   6 1.33000 1.93000   1
   3   5  -6 1.32000 1.87000   1
   3   5  -6 2.69000 2.88000   1
  11  -1 -18 5.68000 1.65000   1
  11  -1 -18 3.15000 1.58000   1
  11   1 -18 3.38000 1.48000   1
  11   1 -18 2.81000 1.94000   1
 -11   1  18 4.49000 1.91000   1
  13  -1 -15 2.01000 1.39000   1
  13   1 -15 0.27000 1.28000   1
 -13   1  15 1.52000 1.77000   1
  13  -1 -15 0.33000 1.34000   1
  13   1 -15 -0.5500 1.61000   1
  -4   1 -17 0.24000 3.06000   1
  -4   1 -17 0.99000 1.12000   1
  -4  -1 -17 0.07000 1.86000   1
  -4  -1 -17 -0.9500 2.43000   1
  13  -1   3 -2.7700 1.50000   1
  13   1   3 1.21000 1.40000   1
 -13  -1  -3 -0.5400 1.80000   1
 -13   1  -3 -0.3100 1.52000   1
 -13   1  -3 0.08000 1.02000   1
  -8   4  11 -0.0700 1.45000   1
   8  -4 -11 -0.7900 1.46000   1
  -8   4  11 0.49000 1.76000   1
   8   4 -11 2.22000 2.27000   1
   8   4 -11 -2.1400 1.13000   1
   8   4 -11 2.15000 1.27000   1
  -4   5   5 2.92000 1.89000   1
  -4   5   5 -0.1900 2.22000   1
   4   5  -5 1.45000 1.90000   1
   4   5  -5 0.84000 2.22000   1
  -7   1 -14 -2.0100 3.49000   1
  -7   1 -14 0.95000 1.58000   1
  -7  -1 -14 -0.3200 1.90000   1
  -7   1 -14 0.04000 1.19000   1
   9   4  -9 0.03000 1.13000   1
   9   4  -9 0.57000 1.27000   1
  -9  -4   9 -0.8600 0.98000   1
  -9   4   9 -0.1200 1.42000   1
   9   4  -9 -0.5700 1.95000   1
  -9  -3  -7 3.34000 2.42000   1
   9  -3   7 0.61000 1.47000   1
  -9   3  -7 1.32000 1.01000   1
  -9   3  -7 1.31000 0.97000   1
   9   3   7 -2.6600 1.57000   1
   9   3   7 1.58000 1.50000   1
   0   4 -13 4.41000 3.47000   1
   0   4 -13 1.31000 0.97000   1
   0   4  13 0.18000 1.57000   1
  -4  -4 -10 4.64000 2.92000   1
  -4   4 -10 2.19000 1.10000   1
  -4   4 -10 -0.7300 4.41000   1
   4   4  10 -0.8700 1.42000   1
   4   4  10 -1.4100 1.87000   1
  -6   4  13 1.91000 1.98000   1
  -6   4  13 0.44000 1.20000   1
   6   4 -13 -1.3000 2.73000   1
   6   4 -13 0.96000 1.49000   1
   6   4 -13 1.37000 1.34000   1
  12   3  -9 0.00000 0.89000   1
 -12   3   9 0.00000 1.36000   1
  12  -3  -9 0.95000 1.36000   1
 -12  -3   9 0.48000 1.21000   1
   0   0 -20 27.8600 3.48000   1
   0   0  20 24.0900 3.41000   1
   0   0 -20 27.0400 3.37000   1
  -1  -2 -18 -0.7400 1.73000   1
  -1   2 -18 0.69000 0.89000   1
  -1   2 -18 5.76000 2.96000   1
   1   2  18 -1.5800 1.17000   1
   1   2  18 -0.0700 1.01000   1
  -3   4 -11 -2.6700 3.70000   1
  -3   4 -11 0.10000 0.82000   1
   3   4  11 0.33000 1.30000   1
   3   4  11 -2.3800 1.84000   1
  -3  -4 -11 2.34000 1.95000   1
  10   1 -19 0.35000 0.89000   1
  10  -1 -19 0.58000 1.07000   1
  10   1 -19 0.44000 1.11000   1
 -10   1  19 -0.1200 1.48000   1
  10  -1 -19 1.34000 0.94000   1
 -10  -1  19 1.55000 1.50000   1
 -12   3   2 0.28000 1.21000   1
 -12   3   2 -0.7600 1.21000   1
  12   3  -2 -0.5400 1.50000   1
  12  -3  -2 -0.5300 1.65000   1
  12   3  -2 -0.9800 1.58000   1
 -12  -3   2 -0.7400 1.58000   1
   3   0 -21 0.24000 1.14000   1
  -3   0  21 0.22000 1.54000   1
  10   3   5 -0.2300 1.36000   1
  10   3   5 -0.1000 1.53000   1
 -10  -3  -5 -0.2800 1.66000   1
 -10  -3  -5 1.53000 0.83000   1
  10  -3   5 -0.7400 1.42000   1
 -10   3  -5 -0.0300 0.95000   1
 -10   3  -5 -0.5900 0.96000   1
  -5  -2 -15 3.59000 2.42000   1
  -5   2 -15 0.08000 0.82000   1
  -5   2 -15 2.46000 3.90000   1
   5   2  15 -0.2700 1.30000   1
 -11  -1  -8 -1.1700 1.36000   1
 -11   1  -8 4.02000 1.35000   1
 -11   1  -8 -0.1700 0.79000   1
  11  -1   8 2.10000 1.37000   1
  11   1   8 1.02000 1.18000   1
   1   3  16 1.82000 1.10000   1
   1   3  16 1.83000 1.62000   1
  -1   3 -16 0.35000 2.78000   1
  -1  -3 -16 4.30000 3.44000   1
  -9   4  -1 2.25000 2.85000   1
   9   4   1 1.47000 1.51000   1
   9  -4   1 -0.0500 1.81000   1
   9   4   1 -2.5200 1.44000   1
  -9  -4  -1 1.87000 1.22000   1
  -9  -4  -1 2.16000 2.00000   1
  -9   4  -1 1.35000 1.14000   1
   9   4   1 0.81000 1.54000   1
  13   0 -16 1.47000 1.50000   1
  13   0 -16 1.43000 1.43000   1
 -13   0  16 -0.4000 1.77000   1
  -2   5  -5 5.05000 1.68000   1
  -2  -5  -5 3.15000 2.33000   1
   2   5   5 0.64000 1.64000   1
  -2   5  -5 -1.9900 3.88000   1
   1   2 -19 0.00000 0.94000   1
  -1   2  19 -1.3500 1.81000   1
  -1   2  19 -0.9900 1.38000   1
   1   2 -19 0.50000 2.96000   1
  -1  -2  19 0.05000 0.85000   1
  13   0   4 2.17000 1.61000   1
 -13   0  -4 0.13000 1.12000   1
  -9  -2 -10 -0.5800 2.06000   1
   9   2  10 -1.0600 1.48000   1
   9  -2  10 -0.2000 1.15000   1
  -9   2 -10 1.46000 0.98000   1
 -15   0   7 -0.2400 1.17000   1
  15   0  -7 -0.8200 1.58000   1
   7   0 -21 0.51000 1.17000   1
  -7   0  21 0.51000 0.87000   1
  -5   4  -9 -1.2800 4.93000   1
   5   4   9 -0.1900 1.57000   1
  -5  -4  -9 -1.2600 2.70000   1
  -5   4  -9 0.84000 1.19000   1
   5   4   9 3.48000 1.47000   1
  -6  -2 -14 3.72000 2.17000   1
  -6   2 -14 8.04000 4.47000   1
   6   2  14 4.10000 1.76000   1
  -6   2 -14 1.32000 1.15000   1
   6   2  14 1.64000 1.00000   1
  12   1 -17 2.89000 1.69000   1
  12  -1 -17 0.29000 1.39000   1
  12   1 -17 2.25000 1.31000   1
  12  -1 -17 1.41000 1.33000   1
 -12   1  17 0.65000 1.36000   1
   7   4   6 -0.1400 1.39000   1
  -7  -4  -6 2.91000 2.36000   1
   7   4   6 0.37000 1.90000   1
  -7  -4  -6 -0.2000 1.35000   1
  -7   4  -6 1.59000 1.07000   1
  -7   4  -6 2.30000 4.67000   1
  -4  -5  -2 0.98000 2.05000   1
   4   5   2 1.00000 1.17000   1
   4  -5   2 -0.1200 2.09000   1
  -4   5  -2 1.75000 3.97000   1
  -4   5  -2 2.51000 1.79000   1
  -4  -5  -2 1.85000 1.78000   1
   4   5   2 3.07000 2.12000   1
  -2   0 -19 0.64000 1.65000   1
  -2   0 -19 0.93000 2.04000   1
  -1  -5  -6 -1.3800 2.24000   1
  -1   5  -6 -1.4400 4.27000   1
   1   5   6 2.85000 1.67000   1
  -1   5  -6 0.39000 1.59000   1
 -15   0   6 2.13000 1.65000   1
  15   0  -6 -0.8400 1.68000   1
 -15   0   8 0.33000 1.88000   1
  15   0  -8 2.69000 1.38000   1
  15   0  -8 1.98000 1.45000   1
   2   5  -7 2.54000 1.77000   1
   2   5  -7 1.45000 2.56000   1
  -2   5   7 0.09000 1.67000   1
  -8  -4  -4 2.27000 2.06000   1
   8   4   4 2.62000 1.25000   1
   8   4   4 0.28000 1.40000   1
   8   4   4 0.33000 1.92000   1
  -8  -4  -4 1.07000 1.26000   1
  -8   4  -4 -2.1200 2.06000   1
   8  -4   4 1.67000 1.57000   1
  -8   4  -4 0.70000 1.22000   1
  -4   2 -16 -0.6000 3.39000   1
  -4   2 -16 -0.0900 0.94000   1
   4   2  16 -0.3700 1.34000   1
  -4  -2 -16 -0.2900 2.44000   1
  -2   4 -12 2.28000 4.01000   1
  -2   4 -12 0.20000 0.73000   1
  -2  -4 -12 -1.1500 2.10000   1
   2   4  12 -0.3900 1.77000   1
  -1   3  17 0.51000 1.46000   1
  -1   3  17 -0.6500 1.55000   1
   1   3 -17 0.36000 0.81000   1
   1   3 -17 3.18000 2.37000   1
   1   5  -7 0.73000 3.42000   1
   1   5  -7 0.67000 1.61000   1
  -1   5   7 -0.5400 2.11000   1
 -12   2  15 1.82000 1.57000   1
  12   2 -15 1.08000 1.27000   1
  12  -2 -15 -0.7200 1.21000   1
  12   2 -15 -0.7800 1.04000   1
  -5  -5   2 2.42000 1.73000   1
  -5   5   2 -1.8000 1.62000   1
   5  -5  -2 1.39000 1.50000   1
   5   5  -2 1.82000 1.70000   1
   5   5  -2 2.54000 1.81000   1
   5   5  -2 1.71000 1.52000   1
  -5  -5   2 1.03000 1.51000   1
  -5   5   2 -1.9200 3.03000   1
  -3  -5  -4 0.41000 1.42000   1
  -3   5  -4 4.36000 1.78000   1
   3   5   4 5.28000 2.75000   1
  -3   5  -4 -2.5700 4.39000   1
  -3  -5  -4 2.53000 2.33000   1
   8   3   9 1.78000 1.20000   1
   8   3   9 -1.4100 1.71000   1
  -8  -3  -9 2.97000 2.56000   1
   8  -3   9 0.59000 1.38000   1
  -8   3  -9 1.04000 0.91000   1
  -8   3  -9 -0.9100 2.01000   1
  -8   3  -9 0.94000 0.87000   1
   5   5  -3 0.47000 1.75000   1
   5   5  -3 1.90000 1.49000   1
  -5   5   3 2.00000 1.65000   1
   5   5  -3 0.86000 1.81000   1
  -5  -5   3 -0.5700 1.25000   1
  -5   5   3 3.81000 3.63000   1
   5  -5  -3 0.21000 1.44000   1
  12   1   6 0.05000 1.27000   1
 -12   1  -6 -0.1900 0.93000   1
 -12  -1  -6 0.76000 1.35000   1
 -12   1  -6 -0.1400 1.37000   1
  12  -1   6 1.07000 1.47000   1
   3   4 -14 0.05000 1.29000   1
   3   4 -14 1.98000 1.45000   1
   3   4 -14 -2.0500 3.66000   1
  -3   4  14 0.58000 1.41000   1
  -3   4  14 1.06000 1.87000   1
   9   0  12 1.23000 1.26000   1
  -9   0 -12 1.74000 1.79000   1
  -3   1 -18 0.92000 1.25000   1
  -3  -1 -18 3.45000 1.65000   1
  -3  -1 -18 1.51000 2.43000   1
  -3   1 -18 -2.6400 2.85000   1
   4   5  -6 4.16000 1.99000   1
  -4   5   6 4.15000 1.97000   1
  -4   5   6 2.64000 2.16000   1
   4   5  -6 -2.1800 2.47000   1
  -8   2  19 0.06000 1.25000   1
   8  -2 -19 0.53000 0.84000   1
   8   2 -19 -0.1400 1.23000   1
   8   2 -19 -1.2600 0.97000   1
   8  -2 -19 0.26000 0.63000   1
 -12  -2  -4 -0.3700 1.98000   1
  12   2   4 -1.2600 1.64000   1
 -12   2  -4 -1.0200 0.97000   1
 -12   2  -4 0.62000 1.40000   1
  12  -2   4 0.23000 1.48000   1
   4   4 -14 2.22000 1.24000   1
   4   4 -14 4.87000 3.31000   1
  -4   4  14 -0.7800 1.48000   1
  -4   4  14 1.19000 1.98000   1
   4   4 -14 1.08000 1.20000   1
   5   5  -1 -0.2300 2.09000   1
  -5   5   1 1.88000 3.42000   1
   5   5  -1 0.71000 1.54000   1
   5  -5  -1 1.01000 2.03000   1
  -5   5   1 1.62000 1.54000   1
  -5  -5   1 1.91000 1.69000   1
  -5  -5   1 3.43000 1.76000   1
   5   5  -1 -0.7200 2.01000   1
  -7   3  17 1.81000 1.50000   1
  -7   3  17 -1.0400 1.56000   1
   7   3 -17 1.07000 0.88000   1
   7   3 -17 -0.0400 2.25000   1
   7  -3 -17 -0.7000 1.15000   1
 -15   0   5 1.01000 1.73000   1
  14   0   1 -0.2400 1.56000   1
 -14   0  -1 0.09000 1.52000   1
  10   1  10 1.37000 1.55000   1
  10  -1  10 1.48000 1.59000   1
 -10  -1 -10 10.5500 2.44000   1
 -10   1 -10 3.05000 1.84000   1
  15   0  -9 0.52000 1.11000   1
  15   0  -9 -0.7600 1.40000   1
 -15   0   9 -0.9800 1.60000   1
  14  -1   0 0.85000 1.83000   1
 -14  -1   0 0.16000 1.41000   1
 -14   1   0 1.00000 1.04000   1
  14   1   0 1.80000 1.72000   1
 -14   1   0 0.45000 1.80000   1
 -12   3  10 -0.0500 0.95000   1
 -12  -3  10 0.58000 1.12000   1
  12   3 -10 -0.6200 1.04000   1
  12   3 -10 1.53000 1.66000   1
  12  -3 -10 -0.6100 1.26000   1
   8   1  13 1.39000 0.75000   1
  -8   1 -13 0.92000 1.36000   1
  -8  -1 -13 -0.6900 1.91000   1
  14   0 -14 0.84000 1.64000   1
  14   0 -14 1.79000 1.74000   1
   3   5  -7 -4.1100 3.25000   1
   3   5  -7 -1.2300 1.76000   1
  -3   5   7 -1.0700 1.89000   1
   5   5  -4 0.37000 1.67000   1
   5   5  -4 -1.4200 1.96000   1
  -5   5   4 0.02000 2.39000   1
  -5   5   4 1.65000 1.83000   1
   5   5  -4 0.87000 1.50000   1
  14   1 -13 2.01000 1.16000   1
  14   1 -13 1.37000 1.63000   1
  14  -1 -13 1.10000 1.22000   1
 -14  -1  13 1.72000 1.54000   1
 -14   1  13 3.05000 1.85000   1
  14  -1 -13 -0.4700 1.33000   1
  -5  -1  21 -0.1200 1.20000   1
  -5   1  21 -0.3500 1.05000   1
   5  -1 -21 0.23000 0.97000   1
   5   1 -21 0.23000 1.57000   1
  -5   1  21 -0.3600 1.25000   1
 -12   3   1 2.24000 1.19000   1
 -12  -3   1 1.76000 1.76000   1
 -12   3   1 0.10000 1.20000   1
  12   3  -1 -1.5800 1.19000   1
  12  -3  -1 1.30000 1.63000   1
  12   3  -1 0.07000 1.48000   1
   2   4 -14 1.34000 1.14000   1
   2   4 -14 0.45000 0.86000   1
   2   4 -14 -1.0200 3.88000   1
  -2   4  14 1.82000 1.45000   1
  -2   4  14 -2.7000 1.99000   1
  -5   3 -13 -3.2300 4.51000   1
   5   3  13 1.85000 1.00000   1
   5   3  13 1.44000 1.65000   1
  -5  -3 -13 -4.4000 3.07000   1
   7   2  13 0.54000 1.25000   1
  -7   2 -13 3.17000 3.37000   1
  -7   2 -13 1.25000 2.24000   1
  -7  -2 -13 -0.2300 1.71000   1
   7   2  13 1.78000 1.22000   1
  -7   2 -13 1.32000 1.05000   1
   7  -2  13 1.48000 0.81000   1
 -14   2   6 0.92000 1.36000   1
 -14  -2   6 -1.5900 1.46000   1
  14  -2  -6 -0.7100 1.25000   1
  14   2  -6 0.36000 1.21000   1
  14   2  -6 0.94000 1.55000   1
 -14   2   6 0.33000 0.88000   1
 -14  -2   7 0.77000 1.59000   1
 -14   2   7 0.21000 1.51000   1
  14   2  -7 0.87000 1.20000   1
  14   2  -7 1.00000 1.62000   1
  14  -2  -7 1.53000 1.23000   1
 -14   2   7 -0.3100 1.42000   1
 -11   3  13 -0.1600 1.81000   1
  11  -3 -13 -0.0800 1.49000   1
  11   3 -13 3.53000 1.45000   1
  11   3 -13 2.54000 2.37000   1
   0   5   7 1.91000 2.43000   1
   0   5  -7 0.60000 1.65000   1
   0   5  -7 1.59000 4.00000   1
 -13   2  13 0.07000 1.67000   1
  13   2 -13 0.96000 459.910   1
  13  -2 -13 1.30000 1.57000   1
  13   2 -13 1.72000 1.88000   1
 -13  -2  13 0.38000 1.59000   1
  -4   3 -14 -2.4300 3.48000   1
   4   3  14 1.48000 1.69000   1
   4   3  14 0.29000 0.78000   1
  -4  -3 -14 -0.6900 3.03000   1
  13  -2   1 -0.3000 1.68000   1
 -13   2  -1 1.01000 1.34000   1
 -13  -2  -1 -1.7400 1.97000   1
  13   2   1 2.73000 1.71000   1
 -13   2  -1 0.72000 1.15000   1
   4   1 -21 1.99000 2.26000   1
  -4   1  21 2.87000 1.55000   1
  -4  -1  21 6.39000 1.71000   1
   4  -1 -21 1.70000 1.02000   1
  -4   1  21 2.15000 1.18000   1
   9   4 -10 2.69000 2.20000   1
   9  -4 -10 1.35000 1.19000   1
   9   4 -10 2.41000 1.10000   1
   9   4 -10 -1.2600 1.63000   1
  -9   4  10 1.10000 1.16000   1
   2   0 -21 0.29000 1.58000   1
  -2   0  21 0.76000 1.38000   1
 -10   4   5 1.16000 1.03000   1
  10   4  -5 1.48000 1.81000   1
  10   4  -5 1.84000 1.47000   1
  10  -4  -5 1.10000 1.79000   1
  10   4  -5 -0.8100 1.61000   1
 -10  -4   5 -0.6400 1.61000   1
  10  -4  -4 -1.1800 1.98000   1
  10   4  -4 -2.2800 1.53000   1
 -10   4   4 -1.2600 1.43000   1
  10   4  -4 1.30000 1.63000   1
  10   4  -4 1.47000 1.77000   1
 -10  -4   4 -2.0400 1.41000   1
   9   1 -20 3.44000 1.23000   1
   9  -1 -20 1.54000 1.29000   1
   9  -1 -20 1.91000 1.29000   1
  -9  -1  20 3.03000 1.66000   1
  -9   1  20 2.71000 1.62000   1
   9   1 -20 1.88000 1.76000   1
  11   0 -19 0.69000 1.22000   1
  11   0 -19 2.14000 1.37000   1
 -11   0  19 0.31000 1.44000   1
   5   5   0 2.56000 2.10000   1
   5   5   0 0.36000 1.27000   1
   5  -5   0 1.70000 1.98000   1
  -5   5   0 1.93000 1.58000   1
  -5  -5   0 0.32000 1.75000   1
  -5  -5   0 0.09000 1.61000   1
   5   5   0 3.64000 1.96000   1
  -5   5   0 -1.6400 3.63000   1
  -6   1  21 6.69000 2.45000   1
   6  -1 -21 5.10000 1.33000   1
   6   1 -21 3.72000 2.23000   1
  -6   1  21 4.64000 1.46000   1
 -14   2   5 1.63000 1.25000   1
 -14  -2   5 -0.8400 1.67000   1
  14   2  -5 -1.6300 1.31000   1
  14  -2  -5 -0.7100 1.70000   1
  14   2  -5 0.84000 1.62000   1
 -14   2   5 1.44000 1.49000   1
  -6  -4  -8 2.64000 2.72000   1
   6   4   8 1.29000 2.14000   1
   6   4   8 1.25000 1.50000   1
  -6   4  -8 0.27000 1.14000   1
  -6   4  -8 -1.8600 4.59000   1
 -14  -2   8 0.16000 1.46000   1
 -14   2   8 0.25000 1.38000   1
  14  -2  -8 0.47000 1.12000   1
  14   2  -8 -1.6300 1.69000   1
  14   2  -8 0.53000 1.05000   1
  -3   2 -17 1.52000 0.86000   1
  -3   2 -17 4.31000 3.96000   1
   3   2  17 0.78000 1.45000   1
  -3  -2 -17 -0.6000 2.84000   1
  10  -4  -6 -0.2100 1.53000   1
 -10  -4   6 -0.5300 1.06000   1
 -10   4   6 1.63000 1.00000   1
  10   4  -6 1.10000 1.29000   1
  10   4  -6 -2.2900 1.55000   1
  10   4  -6 -2.0700 1.21000   1
 -15   0   4 0.20000 1.49000   1
  15   0  -4 0.38000 1.73000   1
  11  -3   3 -0.1400 1.55000   1
  11   3   3 -1.0100 1.43000   1
 -11   3  -3 1.04000 0.90000   1
 -11  -3  -3 -0.9800 0.57000   1
 -11   3  -3 0.31000 0.98000   1
 -11  -3  -3 1.22000 1.38000   1
  11   3   3 2.10000 1.33000   1
   5   4 -14 2.59000 1.31000   1
  -5   4  14 1.27000 1.48000   1
  -5   4  14 3.39000 2.07000   1
   5   4 -14 1.73000 1.23000   1
   5   4 -14 2.06000 2.31000   1
  -6   3 -12 3.63000 4.07000   1
  -6  -3 -12 0.45000 2.70000   1
  -6   3 -12 -0.1300 0.64000   1
   6   3  12 -0.2600 1.44000   1
   6   3  12 0.87000 0.97000   1
  -5   5   5 2.78000 1.75000   1
  -5   5   5 -0.3600 0.68000   1
   5   5  -5 -0.2500 2.04000   1
   5   5  -5 -0.7200 1.69000   1
   5   5  -5 -0.7500 1.11000   1
  10  -4  -3 -0.3200 1.68000   1
  10   4  -3 0.07000 1.40000   1
 -10   4   3 -0.5300 1.28000   1
 -10  -4   3 0.41000 1.56000   1
  10   4  -3 1.92000 1.54000   1
  10   4  -3 3.41000 1.60000   1
  10  -4  -3 2.06000 1.86000   1
  -4   5  -3 7.29000 4.06000   1
  -4  -5  -3 4.21000 1.81000   1
  -4  -5  -3 0.78000 2.04000   1
   4   5   3 -1.4700 1.96000   1
  -4   5  -3 -1.3800 1.49000   1
 -15   0  10 3.43000 1.47000   1
  15   0 -10 -0.7000 1.68000   1
  15   0 -10 1.53000 1.36000   1
 -12   0  18 1.44000 1.51000   1
  12   0 -18 -0.7400 0.88000   1
  12   0 -18 -0.4100 0.98000   1
   1   4  13 -2.1100 2.10000   1
  -1  -4 -13 -3.4100 3.04000   1
  -1   4 -13 8.50000 4.17000   1
  -9  -4  -2 1.92000 1.18000   1
  -9   4  -2 2.62000 2.89000   1
   9   4   2 2.14000 1.93000   1
  -9   4  -2 -0.2600 1.12000   1
  -9  -4  -2 -0.9100 1.85000   1
   9  -4   2 -2.3700 1.74000   1
   9   4   2 1.48000 1.42000   1
   9   4   2 -0.7100 1.42000   1
  -7   4  13 0.88000 1.83000   1
  -7   4  13 -0.1100 1.10000   1
   7   4 -13 1.44000 1.68000   1
   7   4 -13 -1.0300 1.13000   1
  -7   4  13 0.47000 1.72000   1
  -8   0  21 1.04000 1.05000   1
   8   0 -21 -0.5500 1.22000   1
   0  -1  20 -0.2100 1.07000   1
   0  -1 -20 -0.0500 1.07000   1
   0   1 -20 0.43000 1.32000   1
   0  -1 -20 -0.9700 2.05000   1
   0   1 -20 -0.3700 2.24000   1
   0   1  20 1.08000 1.14000   1
  -3  -3 -15 1.40000 2.98000   1
  -3   3 -15 -0.2800 3.83000   1
   3   3  15 0.40000 0.98000   1
   3   3  15 -0.1000 1.42000   1
   8   4 -12 1.62000 2.26000   1
   8  -4 -12 0.38000 1.39000   1
  -8   4  12 0.81000 2.03000   1
  -8   4  12 -1.5100 1.15000   1
  -8   4  12 1.63000 1.79000   1
   8   4 -12 -0.7400 1.22000   1
  14  -2  -4 0.30000 1.92000   1
  14   2  -4 -0.3300 1.81000   1
  14   2  -4 0.97000 1.53000   1
 -14   2   4 3.47000 1.29000   1
 -14  -2   4 2.86000 1.97000   1
 -14   2   4 1.80000 1.38000   1
   3   1 -21 1.53000 2.12000   1
   3  -1 -21 0.74000 0.91000   1
  -3   1  21 2.21000 1.92000   1
  -3  -1  21 3.74000 1.46000   1
  -3   1  21 0.61000 0.91000   1
   9   3 -16 2.52000 2.27000   1
  -9   3  16 -0.9700 1.77000   1
   9   3 -16 1.47000 1.11000   1
   9  -3 -16 0.57000 1.29000   1
  11   0   9 0.85000 1.24000   1
 -11   0  -9 1.81000 1.27000   1
   5   2 -20 3.19000 2.53000   1
  -5   2  20 -0.6300 1.73000   1
  -5   2  20 1.35000 1.88000   1
  14  -2  -9 -0.2200 1.27000   1
 -14  -2   9 -1.4400 1.34000   1
  14   2  -9 0.21000 1.40000   1
 -14   2   9 0.33000 1.33000   1
  14   2  -9 0.12000 1.26000   1
 -12   0  -7 -1.3000 1.78000   1
  12   0   7 -1.1100 1.30000   1
  -2   5  -6 -4.0400 3.83000   1
   2   5   6 0.49000 1.77000   1
  -2  -5  -6 -0.0700 2.44000   1
  -2   5  -6 2.79000 1.47000   1
 -10  -4   7 0.94000 1.23000   1
 -10   4   7 -0.6100 0.99000   1
  10   4  -7 -0.6900 1.20000   1
  10   4  -7 -2.6100 1.77000   1
  10   4  -7 0.06000 0.90000   1
  10  -4  -7 2.10000 1.43000   1
  10   0 -20 -0.8800 1.17000   1
  10   0 -20 0.48000 0.87000   1
 -10   0  20 0.52000 1.22000   1
   4   5  -7 1.04000 1.68000   1
  -4   5   7 0.47000 0.89000   1
  -4   5   7 4.98000 1.84000   1
   4   5  -7 3.42000 2.61000   1
  -1   4  14 1.83000 2.17000   1
  -1   4  14 1.49000 1.14000   1
   1   4 -14 -2.8900 4.10000   1
  -4   2  20 1.40000 1.80000   1
  -4  -2  20 -0.8800 1.12000   1
   4   2 -20 0.24000 2.43000   1
  -4   2  20 -0.2800 1.19000   1
  10   2 -18 1.09000 1.18000   1
  10  -2 -18 0.83000 1.17000   1
  10   2 -18 0.83000 1.91000   1
  10  -2 -18 1.48000 1.19000   1
 -10   2  18 0.98000 1.66000   1
  -5  -5  -1 2.51000 1.84000   1
  -5   5  -1 1.88000 1.63000   1
  -5  -5  -1 2.97000 2.31000   1
   5  -5   1 2.20000 2.22000   1
   5   5   1 0.30000 2.11000   1
   5   5   1 -0.3700 2.35000   1
   5   5   1 2.16000 1.24000   1
  -5  -5  -1 2.84000 1.71000   1
  -5   5  -1 0.53000 3.93000   1
 -11   2  17 0.37000 1.55000   1
  11  -2 -17 1.89000 1.18000   1
  11   2 -17 0.01000 1.59000   1
  11  -2 -17 -0.0800 1.09000   1
  11   2 -17 0.56000 1.18000   1
  10   3 -15 -2.0100 2.25000   1
  10  -3 -15 -0.9800 1.16000   1
  10   3 -15 0.73000 1.13000   1
 -10   3  15 -0.6700 1.28000   1
 -10  -4   2 -1.3600 1.50000   1
  10   4  -2 -0.6900 1.36000   1
  10  -4  -2 -1.3900 1.31000   1
  10   4  -2 -0.7000 1.66000   1
  10  -4  -2 1.55000 1.26000   1
 -10   4   2 0.44000 1.34000   1
  10   4  -2 -1.1000 1.99000   1
  -6   0 -16 0.20000 1.72000   1
  -6   0 -16 -0.7400 2.24000   1
  13  -1 -16 -0.5300 1.15000   1
  13   1 -16 -0.8400 1.42000   1
  13  -1 -16 2.07000 1.21000   1
  13   1 -16 -0.6100 1.17000   1
 -13   1  16 0.35000 1.67000   1
   3   5   5 -0.2900 1.59000   1
  -3  -5  -5 2.48000 1.33000   1
  -3   5  -5 -0.8600 1.30000   1
  -3   5  -5 0.08000 3.69000   1
  -3  -5  -5 -2.9500 2.11000   1
 -13   1  -4 0.63000 1.53000   1
  13   1   4 1.66000 1.26000   1
 -13   1  -4 -0.3200 1.03000   1
  13  -1   4 -1.9800 1.40000   1
 -13  -1  -4 0.93000 1.69000   1
  -5   0 -17 -0.1500 1.88000   1
  -5   0 -17 3.55000 2.50000   1
  12  -3 -11 0.13000 1.11000   1
 -12  -3  11 0.94000 1.21000   1
 -12   3  11 0.73000 1.51000   1
  12   3 -11 0.35000 1.33000   1
  12   3 -11 1.99000 1.90000   1
  -2   5   8 1.66000 1.74000   1
   2   5  -8 0.41000 1.57000   1
   2   5  -8 0.09000 3.43000   1
  15   1  -7 0.00000 1.54000   1
  15  -1  -7 0.88000 1.19000   1
 -15  -1   7 2.78000 1.23000   1
 -15   1   7 1.95000 1.48000   1
 -15   1   7 -0.7000 1.09000   1
  15   1  -7 -0.1400 1.26000   1
  -7  -1  21 3.17000 0.99000   1
   7  -1 -21 2.83000 1.14000   1
   7   1 -21 1.52000 1.87000   1
  -7   1  21 1.89000 1.52000   1
  -7   1  21 5.34000 1.90000   1
  -1   5  -7 2.58000 1.59000   1
  -1  -5  -7 -0.7400 2.72000   1
   1   5   7 2.26000 2.38000   1
  -1   5  -7 2.61000 4.37000   1
  -2   1 -19 2.18000 1.23000   1
  -2  -1 -19 1.02000 1.44000   1
  -2   1 -19 -1.3800 2.64000   1
  -2  -1 -19 -1.1800 2.33000   1
   0   2 -19 -0.1200 2.44000   1
   0   2 -19 0.56000 0.90000   1
   0   2  19 2.22000 1.66000   1
   0  -2  19 -0.0800 1.04000   1
   0   2  19 -0.0800 1.05000   1
 -15   1   6 -1.3600 1.03000   1
 -15  -1   6 0.98000 1.56000   1
 -15   1   6 -1.3700 1.20000   1
  15   1  -6 0.51000 1.53000   1
  15  -1  -6 1.61000 1.16000   1
  15   1  -6 1.04000 1.55000   1
 -12   3   0 0.38000 0.98000   1
 -12  -3   0 2.15000 1.71000   1
 -12   3   0 -0.0600 1.21000   1
  12   3   0 -1.8800 1.52000   1
  12  -3   0 0.37000 1.56000   1
  12   3   0 0.07000 1.44000   1
   0   3  17 1.49000 1.61000   1
   0   3  17 0.32000 1.74000   1
   0   3 -17 1.84000 3.95000   1
   8   2  12 0.52000 1.13000   1
   8  -2  12 0.78000 1.01000   1
   8   2  12 0.86000 1.11000   1
  -8   2 -12 -0.6600 1.29000   1
  -8  -2 -12 -0.6300 2.14000   1
  -8   2 -12 1.54000 2.23000   1
  15   0  -3 -0.0600 1.98000   1
 -15   0   3 1.47000 1.33000   1
  15   1  -8 -0.1500 1.24000   1
  15  -1  -8 -0.3300 1.05000   1
 -15   1   8 1.29000 1.49000   1
 -15   1   8 -1.0500 1.60000   1
 -15  -1   8 0.20000 1.49000   1
  15   1  -8 1.59000 1.36000   1
  -6   2  20 1.70000 1.96000   1
   6   2 -20 0.53000 2.30000   1
  -6   2  20 1.84000 1.36000   1
  -5   5   6 1.80000 2.02000   1
  -5   5   6 0.39000 1.34000   1
  -5   5   6 0.08000 0.91000   1
   5   5  -6 -0.0800 1.80000   1
   5   5  -6 0.03000 2.16000   1
   5   5  -6 4.04000 1.54000   1
  -1   5   8 4.60000 2.54000   1
   1   5  -8 4.90000 2.64000   1
   1   5  -8 1.02000 1.54000   1
  -4   3  18 -0.1100 1.59000   1
   4   3 -18 1.17000 2.52000   1
   4   3 -18 -0.0500 0.71000   1
  -4  -3  18 -0.4800 0.70000   1
  -4   3  18 0.33000 1.59000   1
 -15   0  11 0.76000 1.46000   1
  15   0 -11 -1.1200 1.42000   1
  15   0 -11 1.11000 1.41000   1
   3   2 -20 1.21000 2.41000   1
  -3  -2  20 8.33000 1.57000   1
  -3   2  20 6.65000 1.84000   1
  -3   2  20 12.3400 2.85000   1
  -7   3 -11 3.28000 3.42000   1
   7   3  11 -0.8500 1.58000   1
  -7  -3 -11 1.39000 2.62000   1
  -7   3 -11 1.58000 0.75000   1
   7   3  11 -0.8300 1.09000   1
  -7   0 -15 -0.1800 1.12000   1
  -7   0 -15 1.87000 2.71000   1
  -7   0 -15 0.17000 1.44000   1
   3   5  -8 1.75000 1.89000   1
   3   5  -8 3.34000 3.38000   1
  -3   5   8 2.55000 2.27000   1
  -1   0 -20 16.1000 3.55000   1
   1   0  20 12.8500 2.28000   1
  -1   0 -20 16.3400 3.08000   1
 -11   2  -7 2.66000 1.35000   1
  11   2   7 3.06000 1.62000   1
 -11  -2  -7 1.39000 2.23000   1
 -11   2  -7 0.81000 1.08000   1
  11  -2   7 -0.9000 1.70000   1
  -9  -1 -12 4.10000 2.30000   1
   9  -1  12 2.37000 1.38000   1
   9   1  12 1.94000 1.49000   1
  -9   1 -12 2.37000 1.94000   1
   5   3 -18 -1.1300 2.42000   1
   5   3 -18 -0.1300 0.72000   1
  -5   3  18 2.00000 1.51000   1
  -5   3  18 0.61000 1.54000   1
  14   2  -3 0.11000 1.80000   1
 -14  -2   3 0.72000 1.24000   1
 -14   2   3 -0.3100 1.11000   1
 -14   2   3 1.12000 1.20000   1
  14   2  -3 -0.0800 1.80000   1
  14  -2  -3 1.65000 1.80000   1
   8   4   5 -0.8200 1.41000   1
  -8  -4  -5 0.70000 1.60000   1
  -8  -4  -5 1.64000 1.13000   1
   8   4   5 -0.3600 1.80000   1
   8  -4   5 -2.0800 1.45000   1
  -8   4  -5 1.28000 1.08000   1
  -8   4  -5 -2.1100 1.74000   1
   6   4 -14 1.06000 2.72000   1
  -6   4  14 0.69000 1.92000   1
  -6   4  14 0.04000 1.42000   1
   6   4 -14 1.63000 1.23000   1
 -10  -4   8 -0.4000 0.95000   1
  10   4  -8 -0.8300 1.55000   1
  10  -4  -8 -0.7300 1.11000   1
  10   4  -8 1.89000 1.76000   1
 -10   4   8 0.32000 1.26000   1
  10   4  -8 1.70000 1.30000   1
  -8   3  17 1.21000 1.54000   1
   8   3 -17 1.68000 1.00000   1
   8  -3 -17 1.54000 1.60000   1
   8   3 -17 0.40000 1.57000   1
  -8   3  17 0.22000 1.77000   1
 -15  -1   5 1.71000 1.34000   1
  15  -1  -5 0.11000 1.41000   1
  15   1  -5 -0.7600 1.74000   1
  15   1  -5 -0.0100 1.35000   1
 -15   1   5 3.03000 1.51000   1
 -15   1   5 1.20000 1.07000   1
  14  -2 -10 1.51000 1.52000   1
  14   2 -10 0.24000 1.56000   1
 -14   2  10 -1.0400 1.00000   1
 -14  -2  10 1.27000 1.30000   1
  14   2 -10 -0.2200 1.72000   1
  14  -1   1 -0.2700 1.82000   1
  14   1   1 1.36000 1.69000   1
 -14   1  -1 0.23000 1.22000   1
 -14  -1  -1 3.37000 1.85000   1
 -14   1  -1 -0.3300 1.23000   1
 -10  -3  -6 1.40000 1.09000   1
 -10   3  -6 -0.2200 0.89000   1
 -10  -3  -6 3.01000 2.14000   1
  10   3   6 -0.3100 1.31000   1
  10  -3   6 0.89000 1.38000   1
  10   3   6 -0.2000 1.63000   1
 -10   3  -6 -0.7100 0.95000   1
   3   3 -18 -3.9400 2.11000   1
  -3  -3  18 0.01000 0.65000   1
  -3   3  18 0.03000 1.48000   1
  -3   3  18 0.46000 1.22000   1
   3   3 -18 -0.0800 0.66000   1
  15   1  -9 1.16000 1.25000   1
  15   1  -9 -0.6200 1.37000   1
  15  -1  -9 0.53000 1.33000   1
 -15   1   9 -0.0500 1.06000   1
 -15   1   9 0.67000 1.21000   1
 -15  -1   9 0.71000 1.43000   1
 -10   2  -9 1.28000 1.15000   1
 -10  -2  -9 3.40000 2.22000   1
  10  -2   9 0.34000 1.35000   1
  10   2   9 -0.6900 1.36000   1
  14   1 -14 -0.0700 1.32000   1
  14  -1 -14 -0.0300 1.26000   1
  14   1 -14 -0.7900 1.43000   1
 -14   1  14 -0.0700 1.19000   1
  14  -1 -14 0.47000 1.37000   1
  -4   0 -18 -0.2500 2.32000   1
  -4   0 -18 -0.4800 1.67000   1
  -9   4  11 2.24000 0.98000   1
  -9   4  11 -1.8900 1.86000   1
   9   4 -11 1.31000 1.43000   1
   9   4 -11 0.46000 2.23000   1
   9  -4 -11 -0.9400 1.62000   1
  -9  -3  -8 0.05000 2.25000   1
   9   3   8 1.37000 1.10000   1
   9   3   8 0.05000 1.28000   1
  -9   3  -8 1.46000 2.28000   1
   9  -3   8 2.16000 1.35000   1
  -9   3  -8 -1.1900 0.65000   1
  -9   3  -8 0.05000 0.81000   1
  -2  -2 -18 2.50000 2.62000   1
  -2   2 -18 1.15000 3.16000   1
   2   2  18 -0.4100 1.06000   1
  -2   2 -18 0.38000 0.92000   1
  -9   2  19 1.36000 1.57000   1
   9   2 -19 1.11000 1.46000   1
   9   2 -19 0.62000 0.91000   1
   9  -2 -19 1.46000 0.84000   1
   9  -2 -19 0.22000 1.25000   1
 -14   0  -2 10.0100 2.73000   1
  14   0   2 6.35000 2.85000   1
  10   4  -1 -0.9700 2.04000   1
 -10  -4   1 -0.2800 1.68000   1
  10  -4  -1 0.77000 1.84000   1
  10  -4  -1 0.73000 1.25000   1
  10   4  -1 0.05000 1.48000   1
 -10   4   1 1.25000 1.26000   1
  10   4  -1 0.71000 1.20000   1
 -10   0 -11 -0.1700 1.85000   1
  10   0  11 1.15000 1.27000   1
   7   4   7 2.89000 1.35000   1
   7   4   7 0.90000 1.76000   1
  -7  -4  -7 -0.6800 2.27000   1
  -7   4  -7 5.34000 4.37000   1
  -7   4  -7 -1.4900 0.88000   1
  -2   3 -16 -1.2400 2.67000   1
   2   3  16 0.63000 0.96000   1
  -2  -3 -16 2.04000 3.17000   1
   2   3  16 2.02000 1.58000   1
  -4   5  -4 0.94000 1.48000   1
  -4  -5  -4 0.16000 2.25000   1
  -4   5  -4 2.37000 3.95000   1
  -4  -5  -4 -0.4800 1.89000   1
   4   5   4 1.85000 1.71000   1
   1   0 -21 0.80000 1.19000   1
  -1   0  21 -0.1800 1.44000   1
   1   0 -21 -0.5700 1.37000   1
 -13   0  17 -0.9300 1.40000   1
  13   0 -17 0.88000 1.25000   1
  13   0 -17 -0.3200 1.16000   1
   5  -5   2 2.72000 2.12000   1
   5   5   2 -0.9200 2.31000   1
  -5   5  -2 0.08000 4.02000   1
  -5  -5  -2 1.58000 1.96000   1
   5   5   2 1.05000 1.60000   1
  -5  -5  -2 1.00000 1.86000   1
  -5   5  -2 4.34000 1.55000   1
   5   5   2 2.27000 1.14000   1
  14   0 -15 -0.0700 1.06000   1
  14   0 -15 -1.4200 1.33000   1
 -14   0  15 -0.9100 1.15000   1
 -13   0  -5 0.83000 1.59000   1
  13   0   5 0.49000 1.56000   1
   4   4  11 -1.7700 1.95000   1
  -4  -4 -11 4.88000 2.94000   1
  -4   4 -11 -3.4600 4.51000   1
   4   4  11 -1.2600 1.27000   1
 -13   2  14 -1.2200 1.64000   1
  13   2 -14 0.22000 1.34000   1
  13  -2 -14 0.60000 1.36000   1
  13   2 -14 1.26000 1.64000   1
   0   5  -8 0.14000 1.48000   1
   0   5  -8 3.36000 4.60000   1
   0   5   8 0.98000 2.30000   1
   2   1 -21 -0.6000 1.74000   1
   2   1 -21 -0.3700 2.00000   1
   2  -1 -21 0.23000 0.84000   1
  -2   1  21 0.56000 1.72000   1
  -2  -1  21 1.33000 1.30000   1
 -13   2  -2 2.46000 1.13000   1
 -13   2  -2 -0.2700 1.10000   1
 -13  -2  -2 0.31000 1.73000   1
  13   2   2 1.15000 1.94000   1
  13  -2   2 1.75000 1.71000   1
  11   1 -19 -1.0700 1.12000   1
  11   1 -19 0.95000 1.14000   1
  11  -1 -19 2.04000 1.15000   1
  11  -1 -19 1.19000 1.30000   1
 -11   1  19 -0.6100 1.35000   1
  12   2 -16 0.46000 1.33000   1
  12  -2 -16 2.67000 1.26000   1
  12   2 -16 -0.9400 1.38000   1
 -12   2  16 -0.0700 1.19000   1
   6  -5  -3 0.17000 2.03000   1
   6   5  -3 1.02000 1.96000   1
   6   5  -3 0.95000 1.78000   1
   6   5  -3 1.67000 1.58000   1
  -6  -5   3 0.49000 1.20000   1
  -6   5   3 2.16000 1.60000   1
  -6   5   3 -1.0000 3.11000   1
   6   5  -2 -0.4800 1.83000   1
  -6   5   2 -0.2000 3.38000   1
  -6  -5   2 -0.0200 1.27000   1
   6   5  -2 2.71000 1.99000   1
   6  -5  -2 3.77000 1.89000   1
   6   5  -2 -0.6900 1.53000   1
  -6   5   2 1.73000 1.68000   1
   3   4  12 -2.0000 2.10000   1
  -3   4 -12 -0.3400 4.68000   1
  -3  -4 -12 1.68000 3.03000   1
   3   4  12 -0.9200 1.41000   1
  -6   3  18 1.82000 1.66000   1
   6   3 -18 0.35000 0.94000   1
   6   3 -18 1.72000 2.39000   1
  -6   3  18 1.23000 1.85000   1
  11  -3 -14 -0.1300 1.47000   1
  11   3 -14 -1.0800 2.10000   1
  11   3 -14 1.25000 0.86000   1
 -11   3  14 -0.0600 1.82000   1
  15  -1  -4 0.89000 1.65000   1
  15   1  -4 -0.3200 1.52000   1
 -15   1   4 0.11000 1.44000   1
 -15   1   4 0.46000 1.23000   1
 -15  -1   4 -0.2300 1.73000   1
  -7   2  20 0.89000 1.73000   1
  -7   2  20 3.01000 1.43000   1
   7   2 -20 1.69000 1.98000   1
   7   2 -20 0.54000 0.74000   1
   7  -2 -20 0.49000 1.06000   1
   6   5  -4 1.81000 1.76000   1
   6   5  -4 2.53000 1.66000   1
  -6   5   4 -2.2200 2.63000   1
   6   5  -4 -2.5400 1.56000   1
  -6   5   4 0.89000 1.62000   1
   0   4  14 0.24000 1.94000   1
   0   4 -14 7.12000 4.81000   1
 -12   2  -5 2.94000 1.41000   1
  12   2   5 2.37000 1.70000   1
  12  -2   5 0.63000 1.51000   1
 -12  -2  -5 0.00000 1.55000   1
 -12   2  -5 1.26000 1.17000   1
  -4   5   8 0.54000 2.00000   1
  -4   5   8 0.38000 1.05000   1
   4   5  -8 1.37000 1.30000   1
   4   5  -8 3.96000 1.82000   1
   4   5  -8 -0.9300 2.98000   1
   5   4  10 1.41000 1.54000   1
   5   4  10 1.47000 2.20000   1
  -5  -4 -10 -1.2100 3.03000   1
  -5   4 -10 1.23000 4.99000   1
 -15   1  10 0.71000 1.41000   1
 -15   1  10 0.29000 1.72000   1
  15   1 -10 0.82000 0.99000   1
  15  -1 -10 1.19000 1.39000   1
  15   1 -10 -0.4200 1.39000   1
 -15  -1  10 0.58000 1.49000   1
   9  -4   3 -0.1700 1.80000   1
   9   4   3 1.91000 2.09000   1
   9   4   3 1.81000 1.53000   1
  -9   4  -3 -0.0900 1.06000   1
  -9  -4  -3 0.83000 1.10000   1
  -9  -4  -3 0.14000 2.01000   1
  -9   4  -3 0.28000 2.57000   1
   9   4   3 1.41000 1.09000   1
   5   5  -7 0.54000 2.26000   1
  -5   5   7 -0.6800 0.82000   1
  -5   5   7 -1.2200 1.31000   1
   5   5  -7 -0.3200 1.70000   1
   5   5  -7 0.76000 1.13000   1
  12   1 -18 -0.0800 1.73000   1
 -12   1  18 3.56000 1.79000   1
  12   1 -18 2.18000 1.29000   1
  12  -1 -18 1.95000 1.41000   1
  12  -1 -18 2.29000 1.50000   1
  15   0  -2 1.19000 3.01000   1
 -15   0   2 10.0400 2.27000   1
  -8   0 -14 0.44000 1.77000   1
   6   5  -1 1.04000 1.90000   1
  -6   5   1 0.32000 1.10000   1
  -6  -5   1 2.11000 1.78000   1
  -6  -5   1 1.66000 1.67000   1
  -6   5   1 1.15000 3.33000   1
   6   5  -1 0.70000 1.84000   1
   6   5  -1 -0.0900 1.42000   1
   6  -5  -1 -0.7700 1.87000   1
  -8  -1  21 0.44000 1.17000   1
  -8   1  21 -1.1700 1.25000   1
   8  -1 -21 0.86000 0.90000   1
   8   1 -21 -0.0100 1.50000   1
  -2   3  18 1.17000 1.55000   1
  -2   3  18 0.44000 1.65000   1
   2   3 -18 2.74000 3.31000   1
  -2   2  20 0.86000 2.14000   1
  -2   2  20 2.12000 1.68000   1
  -2  -2  20 1.45000 1.35000   1
   2   2 -20 2.96000 3.21000   1
  -9   0  21 1.29000 1.28000   1
   9   0 -21 -0.1800 0.67000   1
   9   0 -21 -0.1500 1.16000   1
  14  -2  -2 1.85000 1.80000   1
 -14   2   2 0.38000 1.02000   1
 -14   2   2 0.20000 1.30000   1
 -14  -2   2 0.24000 1.62000   1
  14   2  -2 0.65000 1.29000   1
  14   2  -2 -0.0600 1.77000   1
 -15   0  12 3.58000 1.82000   1
  15   0 -12 2.02000 1.74000   1
  15   0 -12 2.84000 1.90000   1
  10   4  -9 0.57000 1.08000   1
  10  -4  -9 1.10000 1.58000   1
 -10  -4   9 -1.7900 1.22000   1
  10   4  -9 2.51000 1.94000   1
  10   4  -9 1.58000 1.19000   1
 -10   4   9 1.96000 1.34000   1
  11  -3   4 0.77000 1.65000   1
  11   3   4 0.84000 1.48000   1
  11   3   4 1.03000 1.47000   1
 -11   3  -4 -0.6700 1.08000   1
 -11   3  -4 -0.3200 1.22000   1
 -11  -3  -4 1.93000 0.77000   1
 -11  -3  -4 -1.6600 2.12000   1
  14   2 -11 -0.6000 1.37000   1
 -14  -2  11 0.74000 1.21000   1
 -14   2  11 -0.9000 1.26000   1
  14   2 -11 -0.8200 1.62000   1
  14  -2 -11 0.31000 0.99000   1
 -12  -3  12 1.28000 1.31000   1
 -12   3  12 0.31000 1.78000   1
  12   3 -12 0.42000 1.01000   1
  12  -3 -12 1.14000 1.33000   1
  12   3 -12 -2.7500 1.88000   1
 -11   1  -9 0.33000 0.67000   1
 -11  -1  -9 1.63000 1.79000   1
 -11   1  -9 -1.5100 1.24000   1
  11   1   9 1.11000 1.02000   1
  11  -1   9 -2.2200 1.17000   1
  12  -1   7 0.73000 1.63000   1
 -12   1  -7 -0.0600 0.86000   1
  12   1   7 1.62000 1.66000   1
 -12  -1  -7 0.19000 1.35000   1
 -12   1  -7 2.31000 1.35000   1
   6   5  -5 1.43000 1.73000   1
  -6   5   5 0.38000 1.85000   1
  -6   5   5 0.99000 0.81000   1
   6   5  -5 -0.5300 1.27000   1
   6   5  -5 0.79000 2.01000   1
  -6   5   5 -0.1200 2.66000   1
  10  -1 -20 -0.2100 0.82000   1
  10   1 -20 1.93000 1.50000   1
  10  -1 -20 0.57000 0.95000   1
  10   1 -20 -0.2900 0.83000   1
 -10   1  20 -0.7000 1.38000   1
 -10  -1  20 1.98000 1.47000   1
   2   5   7 1.61000 1.82000   1
  -2   5  -7 -0.1700 4.60000   1
  -2   5  -7 2.11000 1.53000   1
  -2  -5  -7 6.81000 2.81000   1
 -12  -3  -1 1.34000 1.99000   1
  12   3   1 0.60000 1.07000   1
  12  -3   1 3.53000 1.66000   1
  12   3   1 -1.0900 1.57000   1
 -12   3  -1 -0.3300 1.12000   1
 -12   3  -1 -0.0400 1.18000   1
   3   5   6 0.46000 1.98000   1
  -3  -5  -6 -1.3200 2.57000   1
  -3   5  -6 3.81000 4.24000   1
  -3   5  -6 3.40000 1.44000   1
  -6  -1 -16 1.84000 2.24000   1
  -6   1 -16 -0.5900 3.22000   1
  -6  -1 -16 1.06000 1.58000   1
  -6   1 -16 0.16000 1.25000   1
  10   4   0 1.17000 1.58000   1
  10   4   0 2.63000 2.05000   1
  10  -4   0 1.98000 1.13000   1
  10  -4   0 -0.6200 1.24000   1
  10   4   0 1.16000 1.32000   1
 -10   4   0 -0.5200 1.20000   1
 -10  -4   0 -0.5300 1.79000   1
  -3   0 -19 0.82000 1.84000   1
  -3   0 -19 0.58000 2.08000   1
  -2  -4 -13 -2.3900 3.40000   1
   2   4  13 2.39000 2.05000   1
  -2   4 -13 5.53000 4.60000   1
  -8   4  13 1.65000 1.72000   1
   8  -4 -13 -0.5100 1.47000   1
   8   4 -13 -0.3300 2.60000   1
  -8   4  13 0.66000 2.00000   1
  -8   4  13 2.99000 1.40000   1
   8   4 -13 -0.4900 1.26000   1
  -5   1 -17 1.62000 1.18000   1
  -5  -1 -17 -2.5900 1.95000   1
  -5   1 -17 3.77000 3.34000   1
  -5  -1 -17 0.89000 2.25000   1
  -8  -3 -10 0.56000 2.55000   1
  -8   3 -10 0.22000 0.77000   1
   8  -3  10 1.83000 1.48000   1
   8   3  10 0.51000 1.62000   1
  -8   3 -10 -0.7800 2.60000   1
   8   3  10 0.88000 1.07000   1
  -8   3 -10 -1.3100 4.41000   1
   3   4 -15 -0.4800 0.56000   1
   3   4 -15 0.85000 0.97000   1
  -3   4  15 0.95000 1.63000   1
   3   4 -15 0.67000 2.55000   1
  -3   4  15 0.19000 0.98000   1
   4   4 -15 -0.9300 1.06000   1
  -4   4  15 1.67000 1.76000   1
   4   4 -15 -0.1600 3.09000   1
  -4   4  15 1.15000 1.34000   1
  -5   0  22 -0.5900 1.74000   1
   5   0 -22 2.96000 1.36000   1
   9   2  11 0.62000 1.24000   1
  -9   2 -11 0.97000 1.09000   1
   9  -2  11 1.50000 1.48000   1
  -9  -2 -11 -0.0500 2.15000   1
  -6  -5   0 0.24000 1.63000   1
   6   5   0 0.69000 1.40000   1
  -6   5   0 -2.6500 4.41000   1
   6  -5   0 5.18000 1.99000   1
  -6   5   0 2.75000 1.55000   1
   6   5   0 -1.1400 1.98000   1
   6   5   0 -0.5800 1.50000   1
  -6  -5   0 -0.0700 2.04000   1
 -13  -3   6 -0.9100 1.46000   1
  13   3  -6 -1.0000 1.60000   1
 -13   3   6 0.33000 1.23000   1
  13  -3  -6 -1.1800 1.51000   1
  13   3  -6 3.01000 1.34000   1
   2   5  -9 -0.4300 2.66000   1
   2   5  -9 2.67000 1.75000   1
  -2   5   9 1.84000 2.26000   1
 -15   1   3 0.67000 1.55000   1
  15  -1  -3 1.02000 1.72000   1
  15   1  -3 0.33000 1.61000   1
 -15   1   3 0.15000 1.26000   1
 -15  -1   3 1.57000 1.73000   1
   5   5   3 2.52000 1.79000   1
   5   5   3 -0.7600 1.84000   1
  -5  -5  -3 -0.1800 1.08000   1
  -5   5  -3 -0.0200 1.36000   1
  -5  -5  -3 -0.5000 2.29000   1
  -5   5  -3 6.42000 3.65000   1
  13  -3  -7 -0.4700 1.34000   1
  13   3  -7 0.25000 1.20000   1
 -13  -3   7 0.14000 1.36000   1
 -13   3   7 0.09000 1.24000   1
  13   3  -7 0.89000 1.48000   1
  13   3  -5 -0.0600 1.62000   1
  13   3  -5 0.13000 1.47000   1
  13  -3  -5 -1.3100 1.19000   1
 -13  -3   5 1.38000 1.55000   1
 -13   3   5 1.15000 1.19000   1
  -6   4  -9 -4.5800 3.13000   1
  -6   4  -9 0.57000 1.01000   1
   6   4   9 -0.7900 1.76000   1
  -6  -4  -9 0.03000 1.74000   1
   6   4   9 0.26000 1.24000   1
  -1  -5  -8 2.06000 2.60000   1
  -1   5  -8 -1.4700 4.40000   1
   1   5   8 1.55000 2.34000   1
  -1   5  -8 -0.5800 1.46000   1
  -6   0  22 -1.2800 1.47000   1
   6   0 -22 0.45000 1.23000   1
 -15  -1  11 0.80000 1.52000   1
  15   1 -11 1.10000 1.50000   1
  15  -1 -11 0.52000 1.56000   1
  15   1 -11 1.06000 1.73000   1
 -15   1  11 0.41000 1.63000   1
  -7   4  14 1.18000 1.06000   1
  -7   4  14 1.07000 1.30000   1
  -7   4  14 1.50000 2.01000   1
   7   4 -14 -0.3400 1.21000   1
   7   4 -14 0.85000 2.80000   1
  -3   5   9 2.53000 2.18000   1
   3   5  -9 1.23000 3.26000   1
   3   5  -9 1.06000 1.56000   1
  -4   0  22 2.75000 1.96000   1
   4   0 -22 3.38000 1.93000   1
  -7   1 -15 0.38000 1.54000   1
  -7   1 -15 0.10000 1.57000   1
  -7  -1 -15 -0.5200 1.83000   1
  -7   1 -15 -2.1800 3.28000   1
  -7  -1 -15 2.49000 2.08000   1
  -1   1 -20 2.68000 1.63000   1
  -1   1 -20 1.26000 3.14000   1
   1   1  20 2.45000 1.32000   1
  -1  -1 -20 1.69000 1.60000   1
  -1  -1 -20 -1.1900 2.52000   1
   1   5  -9 -2.8700 3.29000   1
   1   5  -9 1.28000 1.41000   1
  -1   5   9 -0.6500 1.56000   1
  -6   5   6 0.97000 0.75000   1
  -6   5   6 -0.9200 1.74000   1
   6   5  -6 3.85000 1.98000   1
  -6   5   6 0.09000 2.53000   1
   6   5  -6 -0.6300 1.63000   1
   6   5  -6 0.57000 1.74000   1
   7   3 -18 1.34000 1.20000   1
   7   3 -18 1.44000 2.67000   1
  -7   3  18 1.78000 1.93000   1
   7  -3 -18 2.08000 0.86000   1
  -7   3  18 -0.7200 2.05000   1
  -2   4  15 0.39000 1.86000   1
  -2   4  15 0.16000 1.38000   1
   2   4 -15 0.47000 1.00000   1
   2   4 -15 1.04000 4.02000   1
   4   5   5 -0.8100 1.79000   1
  -4  -5  -5 1.55000 2.38000   1
  -4  -5  -5 -1.0300 1.62000   1
  -4   5  -5 7.61000 4.14000   1
  -4   5  -5 1.12000 1.35000   1
   1   3  17 0.43000 1.38000   1
  -1   3 -17 -1.3300 3.08000   1
  -1  -3 -17 -0.3400 2.60000   1
  -5   4  15 3.33000 1.95000   1
   5   4 -15 -0.4000 1.08000   1
   5   4 -15 3.09000 2.99000   1
  13   3  -8 -0.9800 1.71000   1
  13   3  -8 0.56000 1.31000   1
 -13   3   8 0.47000 1.08000   1
 -13  -3   8 1.51000 1.42000   1
  13  -3  -8 2.13000 1.17000   1
 -13   3   4 0.24000 1.32000   1
  13   3  -4 1.58000 1.63000   1
 -13  -3   4 1.82000 1.61000   1
  13  -3  -4 0.56000 1.23000   1
  -4  -1 -18 -1.7800 1.65000   1
  -4   1 -18 4.21000 2.52000   1
  -4  -1 -18 0.77000 1.84000   1
  -4   1 -18 -0.2600 0.98000   1
   9  -4 -12 0.47000 1.61000   1
   9   4 -12 0.68000 1.43000   1
  -9   4  12 -0.3400 1.80000   1
   9   4 -12 -0.4200 2.35000   1
  -9   4  12 1.40000 1.04000   1
 -14   1  -2 0.72000 1.12000   1
 -14   1  -2 0.36000 1.55000   1
  14   1   2 1.23000 1.53000   1
  14  -1   2 2.04000 1.70000   1
 -14  -1  -2 -0.4400 1.96000   1
 -10   1 -11 0.50000 1.36000   1
  10   1  11 0.23000 0.98000   1
  10  -1  11 -0.0400 0.98000   1
 -10  -1 -11 0.38000 1.73000   1
   5   5  -8 0.88000 1.50000   1
  -5   5   8 1.62000 1.00000   1
   5   5  -8 0.18000 1.69000   1
   5   5  -8 -1.1400 2.43000   1
  -5   5   8 0.73000 1.31000   1
  -5   2 -16 0.14000 0.76000   1
   5   2  16 2.76000 1.32000   1
  -5  -2 -16 -0.3200 2.45000   1
  -5   2 -16 -0.4200 3.95000   1
   1  -1 -21 0.52000 0.89000   1
  -1   1  21 2.36000 1.73000   1
   1   1 -21 -0.0900 2.45000   1
  -1  -1  21 0.45000 1.23000   1
   1   1 -21 1.38000 1.51000   1
  -6  -2 -15 0.70000 2.31000   1
  -6   2 -15 1.04000 0.80000   1
   6   2  15 -0.8300 1.14000   1
  -6   2 -15 -2.3800 3.77000   1
  -8   2  20 1.60000 1.69000   1
  -8   2  20 0.45000 1.56000   1
   8   2 -20 0.29000 2.16000   1
   8   2 -20 1.35000 0.99000   1
   8  -2 -20 0.30000 1.18000   1
   8  -2 -20 1.15000 0.78000   1
  -1   2 -19 -2.5000 3.59000   1
   1   2  19 0.97000 1.29000   1
  -1  -2 -19 0.53000 1.98000   1
  13   1 -17 0.82000 1.13000   1
  13  -1 -17 -0.6500 1.33000   1
  13  -1 -17 2.29000 1.32000   1
  13   1 -17 3.42000 1.20000   1
 -13   1  17 0.16000 1.65000   1
 -10   3  16 -0.7100 1.36000   1
  10   3 -16 1.82000 1.13000   1
  10   3 -16 0.44000 2.41000   1
  10  -3 -16 0.70000 1.36000   1
 -14   1  15 0.95000 1.69000   1
  14  -1 -15 0.50000 1.39000   1
  14  -1 -15 1.36000 1.37000   1
  14   1 -15 0.56000 1.32000   1
 -13  -1  -5 0.68000 1.46000   1
 -13   1  -5 1.17000 1.54000   1
  13   1   5 2.17000 1.50000   1
  13  -1   5 1.93000 1.65000   1
 -13   1  -5 0.97000 1.02000   1
  15   0  -1 0.42000 1.71000   1
 -15   0   1 0.10000 1.16000   1
  10  -4 -10 -0.1500 1.47000   1
  10   4 -10 0.74000 1.43000   1
 -10   4  10 -0.8300 1.00000   1
  10   4 -10 4.63000 1.90000   1
  14  -2  -1 0.77000 1.74000   1
 -14   2   1 1.12000 1.15000   1
 -14  -2   1 0.28000 1.68000   1
 -14   2   1 0.00000 1.03000   1
  14   2  -1 1.18000 1.93000   1
  -1   3  18 0.85000 1.73000   1
  -1   3  18 1.83000 1.74000   1
   1   3 -18 -0.2400 2.63000   1
  12   0 -19 0.75000 1.09000   1
 -12   0  19 0.88000 1.55000   1
  12   0 -19 2.28000 1.40000   1
   6   5   1 -1.1300 1.35000   1
   6   5   1 -1.6600 1.82000   1
  -6   5  -1 -3.7400 3.34000   1
  -6  -5  -1 -0.1100 1.48000   1
  -6  -5  -1 0.67000 1.69000   1
   6  -5   1 1.79000 1.94000   1
  -6   5  -1 2.54000 1.27000   1
   6   5   1 -0.7600 1.92000   1
 -11   0  20 1.00000 1.43000   1
  11   0 -20 0.36000 1.40000   1
  11   0 -20 1.09000 1.01000   1
  -8  -4  -6 0.87000 1.70000   1
   8   4   6 1.16000 1.81000   1
  -8   4  -6 -0.7700 1.07000   1
   8  -4   6 -0.7300 1.12000   1
   8   4   6 0.39000 1.38000   1
  -8  -4  -6 2.73000 1.15000   1
  -8   4  -6 5.01000 3.63000   1
  -8   4  -6 1.22000 2.48000   1
  -9   0 -13 -0.5400 1.68000   1
  14   2 -12 1.96000 1.70000   1
  14   2 -12 -1.3400 1.73000   1
  14  -2 -12 1.36000 1.51000   1
 -14   2  12 2.24000 1.53000   1
 -14  -2  12 0.21000 1.35000   1
   9   3 -17 -0.4300 1.66000   1
  -9   3  17 0.87000 1.19000   1
   9  -3 -17 0.38000 1.15000   1
   9   3 -17 -0.8900 0.93000   1
  -7   0  22 1.71000 0.97000   1
   7   0 -22 2.51000 1.45000   1
  15   0 -13 0.32000 1.08000   1
  15   0 -13 1.01000 1.08000   1
  -4   5   9 0.53000 2.06000   1
  -4   5   9 0.97000 1.27000   1
   4   5  -9 -1.5700 1.54000   1
   4   5  -9 7.42000 2.67000   1
   4   5  -9 1.12000 1.62000   1
  -5  -3 -14 3.63000 3.11000   1
   5   3  14 1.17000 1.84000   1
   5   3  14 0.20000 1.11000   1
  -5   3 -14 1.27000 4.09000   1
   0   0 -21 -1.1500 1.40000   1
   0   0  21 -0.7100 1.44000   1
   0   0 -21 0.55000 1.70000   1
   3   0 -22 0.86000 1.39000   1
  -3   0  22 2.97000 1.69000   1
 -14   0  -3 0.47000 1.55000   1
  14   0   3 1.77000 1.59000   1
   1   2 -20 3.38000 2.92000   1
  -1   2  20 1.06000 1.82000   1
  -1   2  20 -1.0500 1.15000   1
  -1  -2  20 -0.5500 0.90000   1
  11  -2 -18 3.18000 1.18000   1
  11   2 -18 -2.0100 1.67000   1
 -11   2  18 0.73000 1.62000   1
  11  -2 -18 0.66000 1.27000   1
  11   2 -18 1.29000 1.37000   1
 -13   2  15 0.46000 1.82000   1
  13   2 -15 -0.2400 1.33000   1
  13  -2 -15 0.73000 1.31000   1
  13   2 -15 1.12000 1.16000   1
   0   5  -9 -2.4400 4.00000   1
   0   5  -9 1.18000 1.22000   1
   0   5   9 -2.5600 2.16000   1
   4   2  17 0.17000 1.11000   1
  -4   2 -17 7.31000 3.30000   1
  -4  -2 -17 -1.5700 1.65000   1
  -4   2 -17 -0.0800 0.77000   1
  12   0   8 0.70000 1.27000   1
 -12   0  -8 -0.1200 1.60000   1
  10   4   1 0.53000 1.38000   1
  10   4   1 0.56000 1.97000   1
  10  -4   1 0.12000 1.71000   1
 -10   4  -1 1.98000 1.13000   1
 -10  -4  -1 -0.2500 1.89000   1
  10   4   1 -0.9800 1.66000   1
  -1   4 -14 1.18000 4.60000   1
   1   4  14 5.12000 2.21000   1
  -1  -4 -14 -2.6600 3.26000   1
  13   3  -9 -0.8600 1.81000   1
  13   3  -9 0.14000 1.32000   1
 -13   3   9 -0.3500 1.40000   1
  13  -3  -9 0.72000 1.45000   1
 -13  -3   9 0.94000 1.35000   1
 -13   2  -3 -0.5800 1.00000   1
 -13  -2  -3 -2.5100 1.98000   1
  13  -2   3 0.38000 1.66000   1
  13   2   3 1.90000 1.69000   1
 -13   2  -3 2.16000 1.33000   1
  13   3  -3 2.02000 1.56000   1
  13   3  -3 1.38000 1.69000   1
 -13  -3   3 0.40000 1.49000   1
 -13   3   3 1.70000 1.24000   1
 -13   3   3 -0.0700 0.92000   1
  15  -1  -2 0.17000 1.59000   1
  15   1  -2 0.29000 1.55000   1
 -15   1   2 0.27000 1.19000   1
 -15   1   2 -1.4200 1.43000   1
 -15  -1   2 1.15000 1.69000   1
  14   0 -16 2.14000 1.61000   1
 -14   0  16 -0.4100 1.80000   1
  14   0 -16 1.76000 1.49000   1
  -8   1 -14 -0.3300 1.54000   1
  -8   1 -14 0.16000 1.25000   1
  -8  -1 -14 0.26000 1.68000   1
   4   3  15 0.25000 1.53000   1
   4   3  15 0.32000 0.99000   1
  -4  -3 -15 2.01000 2.22000   1
  -4   3 -15 0.25000 2.74000   1
  -9   4  -4 0.45000 1.28000   1
   9   4   4 1.16000 1.62000   1
  -9   4  -4 -1.1400 2.56000   1
   9  -4   4 -0.1700 1.58000   1
  -9  -4  -4 -0.9400 2.19000   1
  -9  -4  -4 0.41000 1.14000   1
   9   4   4 2.93000 2.05000   1
   7   2  14 -0.1000 1.06000   1
  -7   2 -14 1.49000 3.88000   1
  -7   2 -14 0.10000 0.87000   1
  -7  -2 -14 0.65000 1.61000   1
  -6   5   7 2.66000 2.72000   1
  -6   5   7 1.21000 0.81000   1
  -6   5   7 1.42000 1.45000   1
   6   5  -7 -1.2600 1.58000   1
   6   5  -7 3.12000 2.31000   1
   6   5  -7 -0.0900 1.67000   1
   6   3  13 1.93000 1.52000   1
   6   3  13 0.79000 1.08000   1
  -6  -3 -13 0.60000 3.10000   1
  -6   3 -13 4.41000 4.32000   1
   9  -1 -21 -1.9200 1.01000   1
  -9   1  21 1.19000 1.18000   1
  -9  -1  21 0.09000 1.01000   1
   9   1 -21 0.30000 1.54000   1
   9  -1 -21 -0.4200 0.74000   1
   9   1 -21 0.24000 0.76000   1
  15  -1 -12 0.99000 1.56000   1
 -15   1  12 1.38000 1.83000   1
 -15  -1  12 0.82000 1.56000   1
  15   1 -12 -0.0500 1.63000   1
  15   1 -12 0.64000 1.19000   1
  12   3 -13 -1.6100 1.14000   1
 -12   3  13 0.36000 1.59000   1
  12  -3 -13 2.09000 1.27000   1
  12   3 -13 -0.0800 1.87000   1
 -12  -3  13 -1.0800 1.37000   1
  10   2 -19 -0.7400 1.20000   1
  10   2 -19 0.27000 0.80000   1
  10  -2 -19 0.19000 0.86000   1
  10  -2 -19 0.21000 0.93000   1
 -10   2  19 -1.0100 1.52000   1
   1   4 -15 -2.4800 3.66000   1
  -1   4  15 -0.5000 0.99000   1
  -1   4  15 2.75000 1.92000   1
 -10  -3  -7 1.33000 1.80000   1
  10   3   7 3.53000 1.47000   1
  10   3   7 0.64000 1.46000   1
 -10   3  -7 0.83000 1.20000   1
 -10  -3  -7 0.87000 0.87000   1
 -10   3  -7 1.37000 0.83000   1
  10  -3   7 0.35000 1.66000   1
  11   0  10 1.51000 1.63000   1
 -11   0 -10 2.02000 2.03000   1
  -6   4  15 0.97000 1.43000   1
  -6   4  15 -1.0700 2.06000   1
   6   4 -15 1.96000 1.16000   1
   6   4 -15 2.31000 3.08000   1
  -7  -4  -8 3.33000 2.61000   1
   7   4   8 2.00000 1.90000   1
  -7   4  -8 0.15000 0.99000   1
  -7   4  -8 7.68000 5.06000   1
   7   4   8 -0.1300 1.28000   1
  12   3   2 -1.1800 1.39000   1
  12  -3   2 -0.0700 1.63000   1
 -12  -3  -2 0.94000 1.89000   1
 -12   3  -2 -0.1400 1.00000   1
 -12   3  -2 0.17000 1.09000   1
  -2   0 -20 0.43000 1.67000   1
  -2   0 -20 -2.5800 2.59000   1
  11  -3 -15 -1.1600 1.35000   1
 -11   3  15 -0.3000 1.71000   1
  11   3 -15 2.98000 2.07000   1
  11   3 -15 1.82000 1.16000   1
  -5   5  -4 6.28000 4.01000   1
   5   5   4 0.01000 1.52000   1
  -5   5  -4 1.49000 1.48000   1
  -5  -5  -4 0.41000 2.15000   1
   5   5   4 1.30000 1.66000   1
  -5  -5  -4 -0.1500 1.37000   1
 -11   2  -8 2.36000 1.50000   1
 -11   2  -8 0.74000 1.07000   1
  11   2   8 3.18000 1.74000   1
 -11  -2  -8 2.95000 1.93000   1
  11  -2   8 -0.1500 1.97000   1
  -3  -1 -19 2.40000 1.88000   1
  -3   1 -19 4.13000 2.95000   1
  -3   1 -19 1.53000 1.22000   1
  -3  -1 -19 0.56000 1.81000   1
  13   0 -18 4.21000 1.49000   1
 -13   0  18 4.94000 1.91000   1
  13   0 -18 3.09000 1.59000   1
   5   1 -22 -0.5400 1.75000   1
   5  -1 -22 0.23000 0.87000   1
  -5   1  22 -1.2700 1.05000   1
  -5   1  22 -2.0600 1.76000   1
  -5  -1  22 -0.5400 1.45000   1
  -3   5  -7 0.45000 1.32000   1
  -3  -5  -7 1.23000 2.57000   1
   3   5   7 1.48000 1.84000   1
  -3   5  -7 8.06000 4.31000   1
  12   2 -17 0.99000 1.18000   1
 -12   2  17 0.75000 1.56000   1
  12  -2 -17 0.12000 0.84000   1
  12   2 -17 -0.0200 1.10000   1
  12  -2 -17 0.25000 1.23000   1
  13   0   6 0.62000 1.69000   1
 -13   0  -6 7.01000 1.95000   1
  -2   5  -8 -1.4800 3.03000   1
   2   5   8 0.54000 2.16000   1
  -2  -5  -8 -0.9400 2.41000   1
  -2   5  -8 -0.8300 1.31000   1
 -10   0  21 2.58000 1.51000   1
  10   0 -21 0.54000 0.77000   1
  10   0 -21 0.43000 1.27000   1
 -11  -4   5 0.71000 1.20000   1
 -11   4   5 -2.3100 1.41000   1
  11   4  -5 -1.7100 1.31000   1
  11  -4  -5 2.27000 1.80000   1
  11   4  -5 2.16000 1.54000   1
  11   4  -5 -0.5900 1.19000   1
  -6  -5  -2 2.37000 1.74000   1
   6   5   2 0.59000 1.87000   1
   6  -5   2 1.72000 1.40000   1
   6   5   2 3.50000 2.57000   1
  -6   5  -2 1.79000 1.43000   1
  -6  -5  -2 -0.6200 1.99000   1
  -6   5  -2 -1.0500 4.06000   1
   9   3   9 1.52000 1.30000   1
  -9   3  -9 0.82000 0.91000   1
   9  -3   9 0.75000 1.47000   1
   9   3   9 2.79000 1.56000   1
  -9  -3  -9 2.86000 1.94000   1
  -9   3  -9 4.10000 2.52000   1
   3   3  16 2.38000 1.66000   1
  -3   3 -16 -1.0200 4.59000   1
  -3  -3 -16 2.78000 3.22000   1
 -11   3  -5 0.04000 1.03000   1
 -11   3  -5 1.99000 0.93000   1
 -11  -3  -5 -0.6100 2.21000   1
 -11  -3  -5 1.90000 0.80000   1
  11   3   5 0.41000 1.55000   1
  11  -3   5 2.71000 1.64000   1
  11   3   5 0.50000 1.38000   1
   7   5  -3 0.97000 1.69000   1
  -7  -5   3 0.74000 1.28000   1
  -7   5   3 -0.3300 1.60000   1
   7   5  -3 -1.2300 1.55000   1
  -7   5   3 4.66000 3.16000   1
   7   5  -3 2.17000 1.94000   1
   7  -5  -3 1.62000 1.83000   1
  11   4  -6 0.82000 1.28000   1
  11   4  -6 -2.3700 1.34000   1
  11  -4  -6 0.67000 1.67000   1
  11   4  -6 -0.2200 1.55000   1
 -11  -4   6 -0.7300 1.27000   1
 -11   4   6 0.22000 1.35000   1
  -6   1  22 2.23000 1.30000   1
  -6  -1  22 7.23000 1.77000   1
  -6   1  22 5.16000 2.33000   1
   6   1 -22 6.37000 2.06000   1
   6  -1 -22 1.64000 1.15000   1
 -13  -3  10 0.38000 1.18000   1
 -13   3  10 0.78000 1.46000   1
  13   3 -10 0.28000 1.24000   1
  13   3 -10 0.56000 1.86000   1
  13  -3 -10 0.82000 1.46000   1
 -13   3   2 2.59000 1.19000   1
 -13   3   2 0.02000 1.37000   1
  13   3  -2 -0.4300 1.06000   1
  13  -3  -2 -0.8300 1.70000   1
 -13  -3   2 0.27000 1.71000   1
  13   3  -2 -0.1700 1.57000   1
 -11  -4   4 1.19000 1.47000   1
  11   4  -4 -1.0800 1.48000   1
 -11   4   4 0.79000 1.35000   1
  11   4  -4 -0.1300 1.60000   1
  11   4  -4 0.70000 1.74000   1
  11  -4  -4 0.75000 1.37000   1
  11  -4  -4 0.13000 1.24000   1
  -7   5   4 -1.6700 1.75000   1
   7  -5  -4 1.35000 1.89000   1
  -7   5   4 1.73000 3.21000   1
   7   5  -4 3.25000 1.67000   1
   7   5  -4 0.92000 1.76000   1
   7   5  -4 1.50000 2.01000   1
  -8   3  18 0.66000 1.77000   1
   8   3 -18 0.23000 2.42000   1
   8   3 -18 1.43000 1.00000   1
  -8   3  18 1.17000 1.69000   1
   8  -3 -18 0.99000 1.47000   1
   4  -1 -22 5.10000 1.19000   1
   4   1 -22 1.77000 2.69000   1
  -4   1  22 9.20000 2.45000   1
  -4  -1  22 8.41000 1.97000   1
 -12   2  -6 0.51000 0.82000   1
  12   2   6 0.52000 1.50000   1
  12  -2   6 0.18000 1.44000   1
 -12   2  -6 0.82000 1.18000   1
 -12  -2  -6 -0.2100 1.48000   1
  -3   2 -18 2.06000 1.00000   1
  -3  -2 -18 0.15000 3.00000   1
  -3   2 -18 3.99000 3.17000   1
   3   2  18 1.66000 1.45000   1
   8   0 -22 1.73000 1.27000   1
  -8   0  22 2.37000 1.31000   1
   7   3  12 1.17000 1.44000   1
   7   3  12 1.00000 1.29000   1
  -7   3 -12 0.55000 0.83000   1
  -7  -3 -12 3.57000 2.58000   1
  -7   3 -12 -0.2700 4.25000   1
   7   5  -2 1.79000 1.96000   1
  -7   5   2 3.31000 3.58000   1
  -7  -5   2 0.29000 1.72000   1
   7   5  -2 1.02000 2.00000   1
   7   5  -2 0.94000 1.51000   1
   7  -5  -2 0.49000 1.97000   1
  -7   5   2 1.35000 1.60000   1
  -2   5  10 -0.2400 2.31000   1
   2   5 -10 2.65000 3.71000   1
   2   5 -10 2.28000 1.47000   1
   5   5  -9 0.14000 1.71000   1
  -5   5   9 1.81000 1.11000   1
  -5   5   9 -0.1400 1.85000   1
   5   5  -9 1.04000 1.54000   1
   5   5  -9 2.46000 2.56000   1
  10   4 -11 -2.0800 1.99000   1
 -10   4  11 -0.4200 1.47000   1
  10  -4 -11 0.57000 1.45000   1
  10   4 -11 -0.0300 1.37000   1
 -10  -2 -10 -1.1900 1.64000   1
  10  -2  10 -0.0200 1.07000   1
  10   2  10 -0.1600 1.42000   1
 -10   2 -10 0.50000 1.00000   1
  -4   5  -6 0.39000 1.26000   1
  -4   5  -6 -3.5400 3.86000   1
  -4  -5  -6 0.51000 2.31000   1
   4   5   6 0.83000 1.27000   1
   4   5   6 -2.1000 2.00000   1
  -3   5  10 2.81000 1.52000   1
   3   5 -10 -1.7300 2.25000   1
   3   5 -10 -0.4300 1.42000   1
  14  -2   0 1.32000 1.88000   1
  14   2   0 1.63000 1.97000   1
 -14   2   0 0.38000 1.19000   1
 -14   2   0 1.28000 1.38000   1
 -14  -2   0 2.54000 1.92000   1
   8   2  13 1.01000 1.03000   1
  -8   2 -13 3.24000 2.10000   1
   8   2  13 -0.1200 0.82000   1
  -8   2 -13 7.99000 4.28000   1
  -8   2 -13 0.06000 1.24000   1
  -8  -2 -13 2.26000 1.68000   1
  -4  -4 -12 3.34000 2.94000   1
  -4   4 -12 -0.8800 5.08000   1
   4   4  12 0.23000 1.73000   1
   4   4  12 1.93000 1.99000   1
   2   0 -22 3.68000 1.67000   1
   2   0 -22 0.69000 1.61000   1
  -2   0  22 2.83000 1.82000   1
  11   4  -7 0.06000 0.73000   1
 -11  -4   7 0.02000 1.09000   1
 -11   4   7 -0.7800 1.41000   1
  11   4  -7 1.23000 1.30000   1
  11   4  -7 -0.9000 1.58000   1
  11  -4  -7 -0.1800 1.07000   1
 -15   0   0 -2.6600 1.59000   1
  15   0   0 1.64000 1.80000   1
   7   5  -5 0.72000 1.49000   1
  -7   5   5 -1.0500 1.57000   1
  -7   5   5 2.53000 2.57000   1
   7   5  -5 -0.8600 1.24000   1
   7   5  -5 0.51000 1.68000   1
  -8   4  14 -1.2500 1.38000   1
  -8   4  14 0.85000 1.64000   1
  -8   4  14 1.56000 1.85000   1
   8   4 -14 2.90000 2.76000   1
   8  -4 -14 0.20000 1.42000   1
   8   4 -14 1.19000 1.27000   1
 -14   2  13 2.25000 1.67000   1
  14   2 -13 0.39000 1.36000   1
  14  -2 -13 0.61000 1.47000   1
  14   2 -13 0.49000 1.72000   1
 -14  -2  13 0.20000 1.32000   1
  -5   2  21 4.23000 2.05000   1
  -5   2  21 2.36000 1.39000   1
  -5  -2  21 1.98000 1.16000   1
   5   2 -21 0.98000 2.63000   1
  -1  -5  -9 -3.1400 2.85000   1
  -1   5  -9 -0.4500 3.77000   1
  -1   5  -9 3.22000 1.78000   1
   1   5   9 2.76000 2.51000   1
  11   4  -3 -0.9500 1.75000   1
  11   4  -3 2.10000 1.73000   1
  11  -4  -3 -0.7900 1.79000   1
  11  -4  -3 1.37000 1.46000   1
 -11   4   3 1.41000 1.45000   1
 -11  -4   3 2.45000 1.53000   1
  11   4  -3 -0.4600 1.44000   1
   6   5  -8 1.38000 1.79000   1
   6   5  -8 2.22000 2.49000   1
   6   5  -8 0.99000 2.08000   1
  -6   5   8 1.52000 1.21000   1
   4   3 -19 2.28000 3.04000   1
  -4  -3  19 0.28000 1.02000   1
  -4   3  19 1.57000 1.63000   1
  -4   3  19 1.64000 1.57000   1
   5   4  11 1.52000 1.98000   1
   5   4  11 -1.2200 1.28000   1
  -5  -4 -11 -3.1000 2.91000   1
  -5   4 -11 3.93000 3.50000   1
 -15  -1   1 1.94000 1.85000   1
 -15   1   1 -1.4400 1.54000   1
 -15   1   1 0.56000 1.15000   1
  15  -1  -1 -0.6800 1.63000   1
  15   1  -1 1.78000 1.58000   1
  -4   2  21 2.83000 1.44000   1
  -4  -2  21 2.50000 1.48000   1
   4   2 -21 -0.0600 2.40000   1
  -4   2  21 1.20000 1.28000   1
   5   3 -19 2.94000 1.68000   1
  -5   3  19 -0.6000 1.16000   1
  -5   3  19 2.85000 1.58000   1
   5   3 -19 -0.0900 0.83000   1
   1   5 -10 0.82000 1.45000   1
   1   5 -10 4.35000 3.81000   1
  -1   5  10 -0.9000 2.30000   1
  15   0 -14 2.50000 1.61000   1
  15   0 -14 1.93000 1.68000   1
   7   5  -1 -1.2100 1.41000   1
   7   5  -1 3.10000 1.95000   1
  -7  -5   1 0.55000 1.38000   1
   7   5  -1 2.29000 1.78000   1
   7  -5  -1 1.24000 1.75000   1
  -7   5   1 4.77000 3.22000   1
  -7  -5   1 0.46000 1.16000   1
  -7   5   1 -1.7000 1.57000   1
  12  -1 -19 -0.4300 1.12000   1
  12   1 -19 1.89000 1.34000   1
  12   1 -19 -0.2900 1.05000   1
  12  -1 -19 0.98000 1.20000   1
 -12   1  19 0.69000 1.48000   1
   0   3  18 -0.1300 1.13000   1
   0   3 -18 1.67000 3.57000   1
   0   3  18 0.20000 1.44000   1
  -9   2  20 -0.1500 1.64000   1
   9   2 -20 -0.1800 1.88000   1
   9  -2 -20 0.92000 0.98000   1
   9  -2 -20 0.98000 0.95000   1
   9   2 -20 2.16000 1.02000   1
  11   1 -20 0.52000 1.01000   1
 -11  -1  20 1.00000 1.40000   1
 -11   1  20 1.12000 1.56000   1
  11  -1 -20 1.67000 1.11000   1
  11  -1 -20 1.03000 1.20000   1
  11   1 -20 0.61000 1.59000   1
   3   4  13 1.16000 1.31000   1
  -3  -4 -13 5.58000 3.42000   1
  -3   4 -13 7.51000 5.08000   1
   3   4  13 4.73000 2.18000   1
 -10  -4  -2 -1.9100 1.02000   1
 -10  -4  -2 1.30000 1.75000   1
  10   4   2 1.19000 1.42000   1
  10   4   2 0.63000 1.75000   1
  10   4   2 0.95000 1.26000   1
 -10   4  -2 0.22000 1.04000   1
  10  -4   2 -1.2700 1.64000   1
  -9   1 -13 1.25000 1.48000   1
  -9  -1 -13 1.98000 2.13000   1
   9  -4 -13 1.72000 1.49000   1
   9   4 -13 0.02000 1.28000   1
   9   4 -13 0.07000 2.27000   1
  -9   4  13 0.56000 1.10000   1
  -9   4  13 -0.2100 1.32000   1
   7   1 -22 2.06000 1.95000   1
   7  -1 -22 2.87000 1.16000   1
  -7   1  22 6.47000 2.15000   1
  -7   1  22 3.47000 1.44000   1
  -6   2  21 1.25000 1.45000   1
  -6   2  21 -0.0600 1.80000   1
   6   2 -21 1.23000 2.14000   1
  15   1 -13 0.07000 1.07000   1
  15  -1 -13 1.99000 1.35000   1
 -15   1  13 -0.4600 1.61000   1
  15   1 -13 0.33000 1.38000   1
 -15  -1  13 -0.7300 1.32000   1
  15  -1 -13 0.17000 0.94000   1
   0   1  21 -1.7600 1.66000   1
   0  -1 -21 2.59000 2.41000   1
   0  -1  21 1.64000 1.19000   1
   0   1 -21 0.44000 2.35000   1
   0   1 -21 0.67000 1.31000   1
   3   1 -22 -0.6200 1.39000   1
  -3   1  22 0.89000 1.73000   1
   3   1 -22 0.35000 1.94000   1
  -3  -1  22 0.47000 1.30000   1
  -6   0 -17 0.76000 2.41000   1
  -6   0 -17 -0.2700 1.63000   1
 -14   1  -3 1.59000 1.16000   1
  14  -1   3 3.16000 1.56000   1
  14   1   3 -0.8800 1.59000   1
 -14   1  -3 -0.6300 1.45000   1
 -14  -1  -3 1.59000 1.87000   1
 -10   0 -12 2.24000 2.15000   1
   4   5 -10 1.23000 1.57000   1
  -4   5  10 0.12000 1.02000   1
   4   5 -10 0.04000 1.42000   1
  -4   5  10 -0.2300 1.96000   1
   4   5 -10 0.33000 2.70000   1
   0   4  15 0.67000 1.95000   1
   0   4 -15 -1.8200 4.60000   1
   7   5  -6 -2.0100 1.13000   1
   7   5  -6 4.11000 1.78000   1
   7   5  -6 2.72000 1.83000   1
  -7   5   6 -0.3800 2.56000   1
  -7   5   6 0.73000 1.65000   1
 -12  -1  -8 0.98000 1.20000   1
 -12   1  -8 -0.3900 0.81000   1
  12  -1   8 2.67000 1.37000   1
  12   1   8 0.59000 1.51000   1
  -3   3  19 1.43000 1.27000   1
  -3   3  19 1.67000 1.67000   1
   3   3 -19 8.17000 3.24000   1
  11   4  -8 -0.0900 1.78000   1
  11  -4  -8 2.12000 1.23000   1
 -11   4   8 2.55000 1.66000   1
 -11  -4   8 1.45000 1.22000   1
  11   4  -8 2.28000 1.50000   1
  14  -1 -16 0.21000 1.54000   1
  14   1 -16 0.23000 1.61000   1
  14  -1 -16 1.39000 1.45000   1
 -14   1  16 1.77000 1.96000   1
  14   1 -16 1.16000 1.42000   1
  -7   4  15 3.17000 1.86000   1
   7   4 -15 1.09000 2.02000   1
   7   4 -15 0.41000 1.15000   1
  -7   4  15 -0.9300 1.40000   1
 -11  -4   2 -0.5300 1.38000   1
  11   4  -2 1.04000 1.49000   1
 -11   4   2 -0.1300 1.08000   1
  11   4  -2 -1.0300 1.33000   1
  11  -4  -2 0.72000 1.20000   1
  11   4  -2 -0.2900 1.63000   1
  11  -4  -2 0.46000 1.63000   1
  -5   0 -18 2.75000 2.56000   1
  -5   0 -18 1.01000 1.76000   1
  -6   3  19 1.20000 1.63000   1
  -6   3  19 1.16000 1.60000   1
   6   3 -19 0.43000 0.76000   1
   6   3 -19 -0.3700 2.42000   1
   0   2  20 2.13000 1.24000   1
   0   2 -20 -1.2100 3.23000   1
   0  -2 -20 1.06000 1.91000   1
   0   2  20 -0.0300 1.86000   1
   0  -2  20 1.11000 0.90000   1
 -13  -3  11 -0.2200 1.18000   1
  13  -3 -11 0.66000 1.13000   1
  13   3 -11 -0.0900 1.91000   1
 -13   3  11 0.29000 1.38000   1
  13   3 -11 0.26000 1.25000   1
  -7   0 -16 2.20000 2.33000   1
  -7   0 -16 6.27000 3.23000   1
 -13   3   1 0.05000 1.18000   1
  13   3  -1 1.52000 1.54000   1
  13  -3  -1 0.58000 1.52000   1
  13   3  -1 0.19000 1.49000   1
 -13   3   1 -0.4400 1.04000   1
  -2  -3 -17 1.11000 2.09000   1
   2   3  17 2.15000 2.04000   1
  -2   3 -17 -0.2900 3.76000   1
   6   5   3 1.01000 1.89000   1
  -6   5  -3 1.09000 1.33000   1
  -6   5  -3 -1.3200 4.09000   1
  -6  -5  -3 1.71000 1.64000   1
   6   5   3 4.60000 2.37000   1
  -6  -5  -3 -1.3600 2.04000   1
  -6  -4 -10 4.50000 3.04000   1
   6   4  10 -1.6000 1.95000   1
   6   4  10 1.90000 1.43000   1
  -6   4 -10 0.18000 5.00000   1
  -3   2  21 -2.0100 1.66000   1
  -3   2  21 0.24000 1.07000   1
   3   2 -21 -1.3500 2.33000   1
  -3  -2  21 1.20000 1.18000   1
   5   5   5 0.81000 2.31000   1
  -5  -5  -5 3.88000 2.28000   1
   5   5   5 -0.3000 2.00000   1
  -5   5  -5 -0.4800 1.44000   1
  -5  -5  -5 1.50000 1.31000   1
  -5   5  -5 10.4400 4.16000   1
  11  -1  10 0.50000 1.55000   1
  11   1  10 0.54000 1.36000   1
 -11   1 -10 0.51000 1.25000   1
 -11  -1 -10 1.32000 1.85000   1
  -7   5   0 0.02000 3.46000   1
  -7   5   0 1.01000 1.47000   1
  -7  -5   0 2.06000 1.56000   1
   7   5   0 1.46000 1.82000   1
   7   5   0 4.44000 2.07000   1
   7  -5   0 2.12000 2.00000   1
   7   5   0 -0.3800 1.31000   1
  -7  -5   0 0.54000 1.16000   1
 -16   0   7 1.32000 1.73000   1
  16   0  -7 4.27000 1.99000   1
  16   0  -8 -1.1900 1.56000   1
  -2   1 -20 4.69000 2.58000   1
  -2   1 -20 1.16000 1.34000   1
  -2  -1 -20 -0.7900 2.44000   1
  12   3 -14 0.91000 2.07000   1
  12  -3 -14 2.15000 1.49000   1
  12   3 -14 1.14000 1.16000   1
 -12   3  14 -1.1500 1.33000   1
  -4   4  16 -0.6000 1.99000   1
   4   4 -16 1.85000 1.31000   1
   4   4 -16 3.00000 2.73000   1
  -4   4  16 2.16000 1.15000   1
  -9  -4  -5 0.44000 2.32000   1
   9   4   5 -1.9600 2.07000   1
   9  -4   5 2.11000 1.63000   1
   9   4   5 0.66000 1.54000   1
  -9   4  -5 0.17000 1.17000   1
  -9  -4  -5 2.10000 1.20000   1
  -9   4  -5 6.22000 2.96000   1
  -8  -4  -7 0.89000 1.48000   1
   8   4   7 0.74000 1.89000   1
   8   4   7 -1.9000 1.31000   1
  -8   4  -7 -0.6800 0.97000   1
  -8  -4  -7 -0.4400 2.43000   1
  -8   4  -7 1.89000 2.19000   1
  -8   4  -7 -0.2800 5.38000   1
  -3   4  16 -1.7600 1.76000   1
  -3   4  16 1.67000 1.42000   1
   3   4 -16 1.58000 3.45000   1
   3   4 -16 0.19000 1.00000   1
  13  -2 -16 2.96000 1.64000   1
 -13   2  16 5.40000 2.17000   1
  13   2 -16 3.93000 1.84000   1
  13   2 -16 0.34000 1.50000   1
   8   3  11 0.58000 1.45000   1
   8  -3  11 0.51000 0.78000   1
   8   3  11 -0.3300 1.09000   1
  -8   3 -11 -0.9100 0.81000   1
  -8   3 -11 1.99000 2.27000   1
  -8   3 -11 -0.6300 4.23000   1
  -8  -3 -11 0.19000 2.38000   1
   0   5  10 -2.4000 1.76000   1
   0   5 -10 0.66000 3.58000   1
   0   5 -10 0.47000 1.56000   1
  -2  -4 -14 0.50000 2.29000   1
  -2   4 -14 -3.8200 3.84000   1
   2   4  14 1.50000 1.84000   1
   2   4  14 -0.7100 1.28000   1
  13  -2   4 3.26000 1.93000   1
 -13   2  -4 1.84000 1.62000   1
 -13   2  -4 1.71000 1.18000   1
 -13  -2  -4 2.62000 2.37000   1
  13   2   4 2.79000 1.69000   1
  16   0  -6 -0.0700 1.66000   1
 -16   0   6 0.44000 1.55000   1
  12  -3   3 1.21000 1.42000   1
  12   3   3 0.43000 1.35000   1
 -12   3  -3 0.08000 1.03000   1
 -12  -3  -3 -0.4200 1.90000   1
 -12   3  -3 -0.3900 0.96000   1
  14   0   4 1.86000 1.61000   1
 -14   0  -4 0.34000 1.46000   1
  15  -2  -7 0.55000 1.44000   1
 -15   2   7 5.01000 1.60000   1
 -15  -2   7 0.46000 1.71000   1
  15   2  -7 0.42000 1.86000   1
  15   2  -7 2.37000 1.72000   1
 -15   2   7 2.81000 1.46000   1
   7   2 -21 1.75000 1.60000   1
  -7   2  21 2.61000 1.90000   1
  -7   2  21 2.12000 1.46000   1
  13  -1 -18 0.80000 0.94000   1
  13   1 -18 -0.2000 1.46000   1
  13  -1 -18 0.91000 1.16000   1
  13   1 -18 0.65000 1.03000   1
 -13   1  18 0.90000 1.65000   1
 -16   0   9 -0.4100 1.71000   1
  16   0  -9 2.46000 1.62000   1
 -13   1  -6 0.40000 0.95000   1
  13  -1   6 1.70000 1.52000   1
 -13  -1  -6 5.79000 1.74000   1
 -13   1  -6 1.03000 1.45000   1
  13   1   6 0.80000 1.32000   1
  -2   2 -19 4.81000 3.68000   1
  -2  -2 -19 0.13000 2.90000   1
  10  -1 -21 -0.6300 0.99000   1
  10   1 -21 1.02000 0.91000   1
  10   1 -21 0.88000 1.45000   1
 -10  -1  21 0.05000 1.21000   1
 -10   1  21 3.14000 1.34000   1
  10  -1 -21 1.00000 0.86000   1
  15  -2  -6 -1.9300 1.80000   1
  15   2  -6 0.35000 1.27000   1
 -15   2   6 0.60000 1.03000   1
 -15   2   6 0.54000 1.51000   1
 -15  -2   6 -0.1500 1.63000   1
  15   2  -6 3.18000 1.74000   1
  15   2  -8 -1.2300 1.70000   1
  15   2  -8 2.65000 1.40000   1
 -15   2   8 -2.2100 1.42000   1
 -15  -2   8 0.18000 1.55000   1
  15  -2  -8 -0.4600 1.17000   1
 -14   0  17 -0.4900 1.63000   1
  14   0 -17 -1.6000 1.32000   1
  14   0 -17 0.50000 1.13000   1
  10  -3 -17 0.78000 1.23000   1
 -10   3  17 -0.2900 1.71000   1
  10   3 -17 -0.1200 1.35000   1
  10   3 -17 0.31000 0.98000   1
  -1   0 -21 -1.1200 1.62000   1
  -1   0 -21 0.62000 1.92000   1
  -7   5   7 -0.1100 2.56000   1
  -7   5   7 0.79000 0.80000   1
  -7   5   7 1.80000 1.92000   1
   7   5  -7 1.11000 1.59000   1
   7   5  -7 0.60000 1.90000   1
   7   5  -7 0.88000 1.98000   1
   5   4 -16 -0.6900 3.51000   1
  -5   4  16 2.07000 1.91000   1
   5   4 -16 0.53000 1.10000   1
  -5   4  16 3.28000 1.50000   1
 -11  -4   9 0.17000 1.16000   1
  11  -4  -9 1.82000 1.64000   1
  11   4  -9 1.43000 2.04000   1
 -11   4   9 1.89000 1.60000   1
  11   4  -9 2.13000 1.51000   1
  -4   0 -19 0.29000 2.16000   1
  -4   0 -19 0.78000 1.64000   1
  -9   0  22 0.87000 1.14000   1
   9   0 -22 0.89000 1.21000   1
  -2   3  19 2.63000 1.77000   1
  -2   3  19 3.47000 1.74000   1
   2   3 -19 4.26000 3.40000   1
   6   5  -9 2.27000 1.46000   1
   6   5  -9 1.28000 1.75000   1
  -6   5   9 -0.3100 0.94000   1
  -6   5   9 0.96000 1.76000   1
   6   5  -9 1.96000 2.45000   1
  -9   2 -12 2.20000 2.24000   1
  -9  -2 -12 4.63000 1.66000   1
   9   2  12 0.86000 1.07000   1
   9  -2  12 0.82000 1.36000   1
  -9   2 -12 1.45000 1.10000   1
   8  -1 -22 1.54000 0.91000   1
   8   1 -22 1.41000 1.57000   1
  -8   1  22 -2.0700 1.47000   1
  -8   0 -15 2.23000 2.82000   1
  -8   0 -15 0.10000 1.67000   1
 -11  -4   1 0.49000 1.50000   1
  11   4  -1 0.30000 1.36000   1
 -11   4   1 -1.4000 1.11000   1
  11  -4  -1 0.26000 1.03000   1
  11   4  -1 0.86000 1.49000   1
  11   4  -1 0.09000 1.60000   1
  11  -4  -1 -0.2500 1.25000   1
 -10   4  12 1.15000 1.25000   1
  10   4 -12 0.36000 1.31000   1
  10  -4 -12 -0.4500 1.11000   1
  10   4 -12 0.87000 1.57000   1
   5   5 -10 1.43000 1.26000   1
   5   5 -10 -0.7000 1.30000   1
  -5   5  10 -1.5300 0.90000   1
  -5   5  10 2.55000 1.79000   1
   5   5 -10 3.29000 2.35000   1
  16   0  -5 3.46000 1.77000   1
 -16   0   5 0.84000 1.35000   1
   3   5   8 1.49000 2.56000   1
  -3   5  -8 8.23000 4.33000   1
  -3   5  -8 0.68000 1.69000   1
  -3  -5  -8 -0.4400 2.75000   1
 -15  -2   5 0.88000 1.57000   1
  15   2  -5 -1.2600 1.44000   1
  15  -2  -5 -0.5300 1.49000   1
  15   2  -5 0.62000 1.58000   1
 -15   2   5 1.85000 1.07000   1
 -15   2   5 -1.7000 1.14000   1
  14   2   1 1.18000 1.53000   1
  14  -2   1 0.55000 1.77000   1
 -14   2  -1 -0.7500 1.34000   1
 -14   2  -1 0.49000 1.10000   1
 -14  -2  -1 0.95000 1.87000   1
   2   4 -16 1.90000 4.07000   1
  -2   4  16 2.00000 1.68000   1
  -2   4  16 4.48000 1.64000   1
   2   4 -16 -0.5700 1.29000   1
 -15  -2   9 -0.6400 1.44000   1
  15  -2  -9 0.67000 1.52000   1
  15   2  -9 0.44000 1.75000   1
  15   2  -9 1.95000 1.00000   1
 -15   2   9 -0.0800 1.09000   1
   1   0 -22 15.6200 2.52000   1
  -1   0  22 11.2200 2.47000   1
   1   0 -22 8.18000 2.21000   1
   2   1 -22 0.63000 1.99000   1
  -2   1  22 1.80000 1.77000   1
   2   1 -22 1.29000 1.46000   1
  -2  -1  22 -0.6700 1.73000   1
 -16   0  10 5.34000 2.25000   1
  16   0 -10 5.07000 2.13000   1
  16   0 -10 4.92000 2.26000   1
  14   2 -14 0.01000 1.37000   1
 -14  -2  14 1.00000 1.04000   1
 -14   2  14 -0.6500 1.65000   1
  14  -2 -14 0.49000 1.07000   1
  14   2 -14 0.06000 1.21000   1
 -15   1   0 1.33000 1.29000   1
 -15  -1   0 1.21000 1.41000   1
 -15   1   0 3.58000 1.76000   1
  15   1   0 0.28000 1.36000   1
  15  -1   0 2.40000 1.91000   1
 -11   3  16 1.56000 1.30000   1
  11   3 -16 1.32000 1.05000   1
  11   3 -16 1.67000 2.24000   1
  11  -3 -16 -0.0800 1.37000   1
   7   3 -19 1.90000 1.11000   1
   7   3 -19 3.82000 2.52000   1
  -7   3  19 2.89000 1.69000   1
  -7   3  19 2.47000 1.87000   1
  -2   5  -9 -0.5300 4.35000   1
  -2   5  -9 0.49000 1.33000   1
  -2  -5  -9 3.40000 2.79000   1
   2   5   9 3.62000 2.25000   1
  15   0   1 0.66000 1.56000   1
 -15   0  -1 -1.3000 1.63000   1
  -7  -5  -1 1.48000 1.81000   1
  -7  -5  -1 0.84000 1.66000   1
   7   5   1 2.58000 1.43000   1
   7  -5   1 1.05000 1.77000   1
   7   5   1 2.99000 1.87000   1
  -7   5  -1 2.47000 3.95000   1
  -7   5  -1 -1.0400 1.39000   1
   7   5   1 2.06000 1.44000   1
  -9   3  18 -1.4700 1.66000   1
  -9   3  18 1.15000 1.48000   1
   9   3 -18 3.80000 2.21000   1
   9   3 -18 0.29000 0.97000   1
   9  -3 -18 2.33000 1.23000   1
 -12   0  20 0.90000 1.65000   1
  12   0 -20 2.41000 1.40000   1
  12   0 -20 1.68000 1.16000   1
  -4  -5  -7 2.22000 2.76000   1
  -4   5  -7 1.50000 1.38000   1
   4   5   7 0.84000 1.90000   1
  -4   5  -7 -2.0800 4.58000   1
   4   5   7 2.88000 1.70000   1
  15   1 -14 2.66000 1.38000   1
  15  -1 -14 0.19000 1.25000   1
  15   1 -14 2.42000 1.60000   1
 -15   1  14 2.65000 1.75000   1
  15  -1 -14 0.75000 1.44000   1
  -2   2  21 -0.0700 1.68000   1
   2   2 -21 2.68000 2.87000   1
  -2   2  21 -0.1200 1.09000   1
  -2  -2  21 0.84000 1.20000   1
  10   4   3 0.54000 1.84000   1
  10  -4   3 -2.2600 1.71000   1
 -10   4  -3 2.62000 2.48000   1
 -10  -4  -3 -0.5500 1.09000   1
 -10   4  -3 0.42000 1.01000   1
 -10  -4  -3 1.95000 1.82000   1
  10   4   3 1.66000 1.41000   1
  10   4   3 -0.0700 1.46000   1
 -11   2  19 -0.4600 1.69000   1
  11   2 -19 1.01000 1.28000   1
  11   2 -19 2.42000 1.25000   1
  11  -2 -19 0.54000 1.07000   1
  11  -2 -19 -0.0300 1.02000   1
  -7   4  -9 4.51000 3.41000   1
   7   4   9 0.19000 1.24000   1
   7   4   9 -0.9200 1.25000   1
  -7  -4  -9 1.62000 1.88000   1
  10   3   8 -1.3800 1.27000   1
  10  -3   8 0.60000 1.50000   1
 -10  -3  -8 0.82000 0.87000   1
 -10   3  -8 0.67000 0.94000   1
 -10  -3  -8 1.82000 2.40000   1
  10   3   8 1.06000 1.33000   1
  15   0 -15 1.78000 1.47000   1
  15   0 -15 0.97000 1.47000   1
 -15   0  15 1.84000 1.79000   1
  13   3 -12 1.71000 1.31000   1
 -13   3  12 0.45000 1.18000   1
 -13  -3  12 1.04000 1.29000   1
  13   3 -12 0.24000 1.95000   1
  13  -3 -12 0.72000 1.34000   1
  13   3   0 1.96000 1.19000   1
 -13   3   0 0.71000 1.12000   1
 -13  -3   0 -0.3800 2.10000   1
  13  -3   0 2.62000 1.67000   1
  13   3   0 2.53000 1.67000   1
   3   5 -11 4.54000 3.33000   1
  -3   5  11 1.42000 0.81000   1
  -3   5  11 -0.6400 2.23000   1
   3   5 -11 -1.7000 1.32000   1
  -2   5  11 0.46000 1.68000   1
   2   5 -11 0.46000 3.43000   1
   2   5 -11 -0.9800 1.30000   1
  11  -3   6 1.66000 1.56000   1
  11   3   6 -0.0300 1.52000   1
  11   3   6 0.79000 1.37000   1
 -11  -3  -6 2.27000 2.35000   1
 -11  -3  -6 0.71000 0.97000   1
 -11   3  -6 1.14000 0.96000   1
 -11   3  -6 0.74000 1.03000   1
 -15  -2   4 2.09000 1.68000   1
  15   2  -4 0.23000 1.10000   1
  15  -2  -4 0.11000 1.66000   1
  15   2  -4 0.21000 1.65000   1
 -15   2   4 -0.9500 1.14000   1
 -15   2   4 0.02000 0.91000   1
  12   0   9 0.54000 1.25000   1
 -12   0  -9 1.16000 1.61000   1
  -6  -1 -17 0.83000 2.26000   1
  -6   1 -17 -0.3700 3.42000   1
  -6  -1 -17 4.90000 2.57000   1
  -6   1 -17 1.50000 1.34000   1
 -10   1 -12 0.93000 1.41000   1
 -10  -1 -12 1.58000 1.90000   1
  11   0 -21 1.61000 0.86000   1
  11   0 -21 0.30000 1.28000   1
 -11   0  21 -0.5300 1.31000   1
   6   4 -16 0.84000 2.77000   1
   6   4 -16 1.01000 0.96000   1
  -6   4  16 1.75000 1.95000   1
  -6   4  16 -0.2400 1.40000   1
  16   0  -4 5.66000 2.69000   1
 -16   0   4 7.94000 2.04000   1
 -15   2  10 0.84000 1.49000   1
 -15  -2  10 0.04000 1.48000   1
  15   2 -10 3.35000 1.52000   1
  15  -2 -10 1.61000 1.62000   1
  15   2 -10 -3.0300 1.93000   1
  12  -2 -18 2.00000 1.32000   1
 -12   2  18 1.56000 1.34000   1
  12  -2 -18 1.53000 1.37000   1
  12   2 -18 1.28000 1.19000   1
  12   2 -18 3.69000 1.87000   1
  -6  -5  -4 0.94000 2.18000   1
  -6   5  -4 4.59000 4.34000   1
  -6  -5  -4 2.83000 1.58000   1
   6   5   4 3.08000 1.93000   1
   6   5   4 0.69000 2.29000   1
  -6   5  -4 0.24000 1.34000   1
   7   5  -8 4.43000 1.90000   1
  -7   5   8 0.55000 0.86000   1
  -7   5   8 1.07000 1.67000   1
   7   5  -8 -2.5600 2.10000   1
   7   5  -8 0.34000 1.32000   1
  -1   4 -15 5.36000 5.15000   1
   1   4  15 1.25000 1.88000   1
  -1  -4 -15 2.11000 3.23000   1
  -5  -1 -18 -1.5700 2.15000   1
  -5   1 -18 1.23000 1.05000   1
  -5   1 -18 2.20000 3.01000   1
  13   0 -19 0.47000 1.39000   1
 -13   0  19 0.70000 1.45000   1
  13   0 -19 -0.0700 1.13000   1
  -8   2  21 -1.0300 1.54000   1
   8   2 -21 3.06000 1.83000   1
  -8   2  21 0.74000 1.35000   1
   1   5  10 4.15000 2.59000   1
  -1  -5 -10 0.56000 2.97000   1
  -1   5 -10 4.13000 5.05000   1
  -1   5 -10 1.41000 1.54000   1
  11   4 -10 1.06000 1.36000   1
 -11   4  10 0.02000 1.04000   1
  11  -4 -10 -1.5600 1.53000   1
  11   4 -10 1.55000 1.52000   1
  16   0 -11 1.34000 1.01000   1
  16   0 -11 0.36000 1.17000   1
 -16   0  11 -0.7100 1.49000   1
  13   0   7 -0.3800 1.37000   1
 -13   0  -7 2.19000 1.53000   1
  -7   1 -16 3.88000 1.59000   1
  -7  -1 -16 3.20000 2.37000   1
  -7  -1 -16 1.50000 1.65000   1
  -7   1 -16 -0.3200 3.59000   1
  -1  -3 -18 1.16000 3.11000   1
   1   3  18 3.10000 1.70000   1
  -1   3 -18 5.90000 4.40000   1
   9   4 -14 2.12000 1.33000   1
  -9   4  14 1.37000 1.74000   1
   9  -4 -14 -1.2200 1.38000   1
   9   4 -14 1.59000 2.50000   1
  -9   4  14 -0.0600 1.23000   1
  -5   0  23 1.90000 1.17000   1
   5   0 -23 -0.1900 1.29000   1
 -11   2  -9 -0.2900 1.18000   1
  11   2   9 2.16000 1.28000   1
  11  -2   9 0.00000 1.35000   1
 -11  -2  -9 -1.9800 2.29000   1
   4   5 -11 2.04000 1.20000   1
   4   5 -11 1.66000 1.46000   1
  -4   5  11 2.94000 2.25000   1
  -4   5  11 0.47000 1.24000   1
   4   5 -11 7.12000 3.05000   1
 -12   2  -7 -0.2300 0.76000   1
  12   2   7 1.30000 1.26000   1
  12  -2   7 -0.9200 1.29000   1
 -12   2  -7 0.09000 1.01000   1
 -12  -2  -7 0.93000 1.55000   1
   8   4 -15 2.52000 1.33000   1
   8   4 -15 -2.9300 2.03000   1
  -8   4  15 0.46000 1.41000   1
  -8   4  15 3.54000 2.14000   1
   8  -4 -15 2.85000 1.06000   1
   1   5 -11 1.22000 4.10000   1
   1   5 -11 1.42000 1.21000   1
  -1   5  11 1.12000 2.32000   1
 -10   2  20 0.74000 1.72000   1
  10   2 -20 0.21000 2.03000   1
  10   2 -20 1.22000 1.30000   1
  10  -2 -20 4.02000 1.24000   1
  10  -2 -20 0.35000 0.95000   1
  -3   0 -20 1.47000 2.20000   1
  -3   0 -20 0.56000 1.92000   1
  11   4   0 2.36000 1.72000   1
  11   4   0 0.55000 1.86000   1
  11   4   0 2.31000 1.42000   1
 -11  -4   0 1.59000 1.62000   1
 -11   4   0 -1.4100 1.21000   1
  11  -4   0 -1.8600 1.79000   1
  16   1  -7 1.02000 1.57000   1
  16   1  -7 -0.9000 1.35000   1
 -16   1   7 2.80000 1.63000   1
 -16   1   7 -1.5600 1.40000   1
 -16  -1   7 -0.3000 1.55000   1
  16  -1  -7 2.58000 1.71000   1
  -6   0  23 3.21000 1.47000   1
  16  -1  -8 1.51000 1.41000   1
 -16  -1   8 0.88000 1.61000   1
  16   1  -8 1.63000 1.44000   1
  16   1  -8 1.88000 1.55000   1
 -16   1   8 -0.6200 1.08000   1
 -16   1   8 1.50000 1.64000   1
   1   4 -16 1.12000 0.96000   1
  -1   4  16 0.08000 2.01000   1
  -1   4  16 0.16000 1.12000   1
   1   4 -16 6.03000 3.71000   1
  -5  -3 -15 1.86000 2.28000   1
   5   3  15 1.37000 1.51000   1
  -5   3 -15 -0.9400 3.89000   1
   5   5   6 0.65000 1.93000   1
  -5  -5  -6 1.80000 1.80000   1
  -5   5  -6 1.45000 1.48000   1
  -5  -5  -6 0.60000 2.48000   1
  -5   5  -6 9.23000 4.18000   1
   5   5   6 3.72000 2.37000   1
  -6   2 -16 -0.6800 4.21000   1
  -6   2 -16 1.48000 0.80000   1
  -6  -2 -16 -1.1100 2.55000   1
  -9   0 -14 0.49000 1.54000   1
  -1   3  19 0.25000 1.49000   1
  -1   3  19 1.44000 1.98000   1
   1   3 -19 1.12000 2.43000   1
  16  -1  -6 0.77000 1.63000   1
  16   1  -6 -0.1200 1.56000   1
 -16   1   6 1.10000 1.37000   1
  16   1  -6 -0.1300 0.76000   1
 -16  -1   6 -0.2100 1.55000   1
 -16   1   6 -0.2600 1.20000   1
  -5   2 -17 -2.0900 3.67000   1
  -5  -2 -17 0.31000 2.25000   1
  -5   2 -17 -0.2100 0.88000   1
  -8   5   4 1.28000 1.62000   1
  -8   5   4 2.78000 3.65000   1
   8   5  -4 1.13000 1.59000   1
   8  -5  -4 -0.5800 1.55000   1
   8   5  -4 0.10000 1.42000   1
   8   5  -4 -0.5600 1.52000   1
  14   1   4 -1.4600 1.56000   1
  14  -1   4 2.25000 1.69000   1
 -14   1  -4 2.81000 1.55000   1
 -14   1  -4 -0.6000 1.10000   1
 -14  -1  -4 -0.1800 1.59000   1
  -9   3 -10 0.90000 1.07000   1
  -9  -3 -10 -0.5700 2.73000   1
  -9   3 -10 2.13000 2.81000   1
   9   3  10 -0.2200 1.52000   1
   9   3  10 1.83000 1.09000   1
   9  -3  10 1.89000 1.36000   1
  11   0  11 -0.8300 1.21000   1
 -11   0 -11 0.93000 1.50000   1
  -6   3 -14 -0.6300 4.12000   1
   6   3  14 -0.7600 1.32000   1
   6   3  14 0.24000 1.08000   1
  -6  -3 -14 3.96000 2.74000   1
  -8  -5   3 0.94000 1.51000   1
  -8   5   3 -1.1000 1.59000   1
  -8   5   3 3.41000 3.41000   1
   8  -5  -3 3.37000 1.62000   1
   8   5  -3 -0.7100 1.76000   1
   8   5  -3 2.31000 1.74000   1
   8   5  -3 -0.2100 1.79000   1
  -7   5  -2 2.05000 3.88000   1
  -7  -5  -2 0.83000 1.82000   1
  -7  -5  -2 -0.8700 1.53000   1
   7   5   2 2.35000 1.90000   1
   7   5   2 1.89000 2.14000   1
  -7   5  -2 -0.2600 1.32000   1
  16   1  -9 0.73000 1.36000   1
 -16   1   9 1.40000 1.38000   1
 -16   1   9 0.68000 1.71000   1
  16   1  -9 0.39000 1.35000   1
 -16  -1   9 1.04000 1.14000   1
  16  -1  -9 1.35000 1.46000   1
   4   0 -23 3.47000 1.31000   1
  -4   0  23 0.73000 1.82000   1
  15   2  -3 2.01000 1.37000   1
  15   2  -3 -0.9300 1.61000   1
 -15   2   3 1.38000 1.42000   1
 -15   2   3 0.01000 1.16000   1
 -15  -2   3 1.04000 1.75000   1
  15  -2  -3 0.41000 1.38000   1
  14  -1 -17 -0.8600 1.13000   1
  14   1 -17 0.41000 1.23000   1
 -14   1  17 0.68000 1.16000   1
  14   1 -17 -0.9200 1.11000   1
  14  -1 -17 0.54000 1.14000   1
  -1   1 -21 1.74000 3.00000   1
  -1   1 -21 2.29000 1.38000   1
  -1  -1 -21 0.05000 2.48000   1
   8   5  -5 3.97000 2.01000   1
   8   5  -5 2.45000 1.68000   1
  -8   5   5 -0.2500 1.83000   1
  -8   5   5 -4.3700 3.46000   1
   8   5  -5 0.67000 1.85000   1
   4   3  16 0.12000 1.53000   1
  -4  -3 -16 1.90000 2.73000   1
  -4   3 -16 1.11000 3.85000   1
  -6   5  10 0.19000 1.03000   1
   6   5 -10 0.38000 1.14000   1
  -6   5  10 0.99000 1.88000   1
   6   5 -10 4.02000 2.38000   1
   6   5 -10 -0.5900 1.72000   1
  12   3 -15 1.07000 1.04000   1
  12   3 -15 2.97000 2.11000   1
 -12   3  15 -1.7600 1.21000   1
  12  -3 -15 0.21000 1.19000   1
  15   2 -11 0.59000 1.38000   1
 -15  -2  11 -0.5400 1.35000   1
  15   2 -11 -0.0400 1.38000   1
  15  -2 -11 2.37000 1.62000   1
 -15   2  11 1.79000 1.38000   1
  -4   1 -19 1.41000 1.15000   1
  -4   1 -19 1.58000 2.88000   1
  -4  -1 -19 0.00000 2.33000   1
   9   1 -22 2.91000 1.67000   1
   9  -1 -22 0.89000 1.11000   1
  -9   1  22 3.19000 1.56000   1
  -9  -1  22 1.60000 1.24000   1
  -7   2 -15 -0.2900 0.91000   1
   7   2  15 -0.3900 0.94000   1
  -7   2 -15 -2.0700 4.11000   1
  -7  -2 -15 -0.4000 2.18000   1
  -1   2 -20 3.17000 3.89000   1
  -1  -2 -20 2.51000 2.90000   1
  -8   5   2 4.42000 3.47000   1
  -8  -5   2 0.25000 1.34000   1
  -8   5   2 0.00000 1.36000   1
   8   5  -2 -0.0200 1.65000   1
   8  -5  -2 1.91000 1.55000   1
   8   5  -2 -0.2700 1.37000   1
   8   5  -2 -1.7400 1.80000   1
 -16   0   3 0.46000 1.53000   1
  16   0  -3 3.19000 2.00000   1
  -7   0  23 0.43000 1.59000   1
   7   0 -23 0.82000 1.48000   1
   8   3 -19 0.23000 2.03000   1
  -8   3  19 -1.5200 1.64000   1
   8  -3 -19 0.39000 0.97000   1
   8   3 -19 0.59000 0.82000   1
  -8   3  19 -0.5300 1.54000   1
  -8   1 -15 0.32000 1.80000   1
  -8   1 -15 -1.3400 4.03000   1
  -8  -1 -15 2.12000 1.96000   1
  -8   1 -15 1.55000 1.31000   1
 -12  -3  -4 1.63000 2.16000   1
 -12   3  -4 0.25000 1.06000   1
  12   3   4 -1.1400 1.38000   1
  12  -3   4 0.34000 1.56000   1
 -12   3  -4 1.03000 0.99000   1
 -16   1   5 -1.2900 1.38000   1
  16  -1  -5 0.36000 1.28000   1
  16   1  -5 -1.9200 1.68000   1
 -16   1   5 0.94000 1.18000   1
 -16  -1   5 -0.8200 1.68000   1
   9  -4   6 0.91000 1.59000   1
  -9  -4  -6 -0.0900 1.09000   1
   9   4   6 -1.7400 1.44000   1
  -9   4  -6 1.72000 0.99000   1
  -9  -4  -6 -1.0400 2.17000   1
   9   4   6 1.71000 1.91000   1
  -9   4  -6 -1.9100 2.80000   1
  -4   4 -13 0.24000 4.59000   1
  -4  -4 -13 -0.2200 3.10000   1
   4   4  13 0.41000 1.87000   1
   4   4  13 0.78000 1.53000   1
   1  -1 -22 3.57000 2.51000   1
   1   1 -22 1.06000 1.88000   1
  -1  -1  22 2.20000 1.33000   1
   1   1 -22 2.07000 2.53000   1
  -1   1  22 0.37000 1.41000   1
  16   0 -12 0.87000 1.58000   1
  16   0 -12 1.73000 1.64000   1
 -16   0  12 0.32000 1.33000   1
 -16   1  10 -0.1400 1.72000   1
 -16  -1  10 0.80000 1.87000   1
  16   1 -10 2.26000 1.19000   1
  16  -1 -10 3.48000 1.27000   1
  16   1 -10 1.43000 1.99000   1
 -16   1  10 3.08000 1.60000   1
 -10   4  13 0.54000 1.72000   1
  10   4 -13 0.92000 1.24000   1
  10   4 -13 -1.2500 2.36000   1
  10  -4 -13 1.40000 1.59000   1
  -4   2 -18 -2.1500 3.64000   1
  -4  -2 -18 -3.0000 2.48000   1
  -4   2 -18 -0.3400 0.85000   1
  -5   4 -12 4.67000 4.17000   1
  -5  -4 -12 0.75000 3.31000   1
   5   4  12 2.18000 2.13000   1
   5   4  12 1.68000 1.37000   1
   8   5  -6 2.47000 1.79000   1
  -8   5   6 0.86000 1.37000   1
   8   5  -6 0.24000 1.67000   1
  -8   5   6 0.33000 3.07000   1
   8   5  -6 -0.0700 1.99000   1
 -15  -1  -1 -1.6600 1.67000   1
 -15   1  -1 -0.2100 1.02000   1
 -15   1  -1 -0.0300 1.40000   1
  15  -1   1 -0.1800 1.54000   1
  15   1   1 2.44000 1.52000   1
  14  -2   2 2.23000 1.79000   1
  14   2   2 -0.3300 1.68000   1
 -14   2  -2 -0.1000 1.28000   1
 -14   2  -2 1.30000 1.04000   1
 -14  -2  -2 2.93000 1.96000   1
   5   5 -11 0.92000 1.97000   1
   5   5 -11 0.29000 1.43000   1
   5   5 -11 2.69000 1.54000   1
  -5   5  11 0.11000 1.12000   1
  -5   5  11 -0.8900 1.54000   1
 -10  -2 -11 1.25000 1.98000   1
 -10   2 -11 2.34000 1.14000   1
  10  -2  11 0.26000 1.26000   1
  10   2  11 0.90000 1.16000   1
  -7   3 -13 -0.3400 4.25000   1
   7   3  13 -0.0200 1.35000   1
   7   3  13 -0.1200 0.89000   1
  -7  -3 -13 1.32000 2.39000   1
  -1   2  21 1.81000 1.90000   1
  -1  -2  21 0.72000 0.97000   1
   1   2 -21 -2.0800 2.71000   1
  10   0 -22 -0.6200 1.32000   1
 -10   0  22 4.06000 1.35000   1
  14   3  -6 -0.6000 1.63000   1
  14  -3  -6 -0.4000 1.62000   1
  14   3  -6 0.59000 1.52000   1
 -14  -3   6 1.30000 1.36000   1
 -14   3   6 -1.0200 1.16000   1
  14   3  -7 1.58000 1.72000   1
 -14   3   7 0.28000 1.41000   1
 -14  -3   7 -1.9600 1.43000   1
  14   3  -7 2.62000 1.24000   1
  14  -3  -7 -0.6700 1.59000   1
  12  -1 -20 0.52000 1.09000   1
  12   1 -20 0.46000 1.32000   1
 -12  -1  20 0.36000 1.33000   1
 -12   1  20 0.06000 1.49000   1
  12  -1 -20 0.73000 1.15000   1
  12   1 -20 -0.8300 0.98000   1
  13   2 -17 0.72000 1.20000   1
  13  -2 -17 0.56000 0.95000   1
  13   2 -17 0.63000 1.24000   1
 -13   2  17 1.94000 1.28000   1
  -7   4  16 1.91000 2.02000   1
   7   4 -16 0.36000 1.13000   1
   7   4 -16 -1.2800 3.02000   1
  -7   4  16 1.69000 1.31000   1
   0   5  11 0.64000 2.48000   1
   0   5 -11 2.33000 1.28000   1
   0   5 -11 5.14000 4.02000   1
   7   5  -9 0.40000 2.12000   1
   7   5  -9 -1.1500 1.83000   1
   7   5  -9 -0.7400 1.56000   1
  -7   5   9 1.17000 1.10000   1
  -7   5   9 0.84000 1.72000   1
 -13  -3  13 0.26000 1.13000   1
  13   3 -13 2.98000 1.85000   1
  13  -3 -13 -2.1700 1.24000   1
  13   3 -13 -0.0100 1.21000   1
 -13   3  13 -0.5900 1.68000   1
 -14   2  15 1.34000 1.73000   1
  14  -2 -15 0.30000 1.37000   1
  14   2 -15 1.14000 1.25000   1
  13  -2   5 0.04000 1.44000   1
  13   2   5 1.65000 1.33000   1
 -13  -2  -5 -0.7300 1.34000   1
 -13   2  -5 -0.4900 0.85000   1
 -13   2  -5 0.05000 1.15000   1
  13   3   1 -1.3100 1.49000   1
 -13   3  -1 2.37000 1.01000   1
 -13   3  -1 0.20000 1.16000   1
 -13  -3  -1 -0.6300 1.42000   1
  13  -3   1 -0.0800 1.68000   1
  -8   4  -8 -3.0200 5.47000   1
  -8  -4  -8 1.85000 2.70000   1
   8   4   8 0.28000 1.44000   1
   8   4   8 3.25000 1.93000   1
   8   5  -1 5.10000 1.94000   1
   8   5  -1 1.20000 1.88000   1
  -8   5   1 -2.3000 3.66000   1
  -8   5   1 1.48000 1.44000   1
  -8  -5   1 1.11000 1.82000   1
   8  -5  -1 -0.0400 1.61000   1
   8   5  -1 -0.4300 1.41000   1
  11   4 -11 1.15000 1.43000   1
  11  -4 -11 1.50000 1.68000   1
  11   4 -11 0.82000 1.97000   1
 -11   4  11 1.30000 1.44000   1
  15   1 -15 -2.2700 1.53000   1
  15  -1 -15 0.16000 1.30000   1
 -15   1  15 2.86000 1.30000   1
  15  -1 -15 0.02000 1.33000   1
  15   1 -15 0.41000 1.34000   1
 -14   0  -5 1.76000 1.04000   1
  14   0   5 -1.7800 1.43000   1
  15   0   2 -2.0300 1.63000   1
 -15   0  -2 1.26000 1.09000   1
   3   0 -23 -0.3800 1.15000   1
  -3   0  23 0.81000 1.45000   1
 -14   3   5 -0.0300 1.33000   1
 -14  -3   5 0.37000 1.66000   1
  14  -3  -5 2.87000 1.65000   1
  14   3  -5 -0.2600 1.67000   1
  14   3  -5 1.05000 1.73000   1
 -14   3   8 -1.7100 1.39000   1
 -14  -3   8 0.10000 1.52000   1
  14   3  -8 -0.8400 1.70000   1
  14  -3  -8 0.60000 1.39000   1
  14   3  -8 -0.3300 1.30000   1
   3   4  14 5.00000 2.18000   1
   3   4  14 0.40000 1.29000   1
  -3   4 -14 9.11000 5.24000   1
  -3  -4 -14 2.37000 3.37000   1
   0   0 -22 11.1800 2.26000   1
   0   0  22 7.94000 2.26000   1
   0   0 -22 7.78000 2.08000   1
  -3   3 -17 2.15000 4.21000   1
  -3  -3 -17 1.54000 2.13000   1
   3   3  17 1.66000 1.49000   1
  12   1   9 -0.4300 1.22000   1
  12  -1   9 -0.6100 1.35000   1
 -12   1  -9 2.90000 1.32000   1
 -12  -1  -9 2.07000 1.68000   1
  14   0 -18 1.80000 1.40000   1
  14   0 -18 -0.0100 1.21000   1
 -14   0  18 1.80000 1.70000   1
 -10  -4  -4 -1.0100 1.92000   1
 -10   4  -4 1.47000 1.09000   1
  10  -4   4 -0.4900 1.49000   1
  10   4   4 0.63000 1.73000   1
  10   4   4 -1.8500 1.30000   1
 -10  -4  -4 0.18000 0.89000   1
 -10   4  -4 -0.4400 2.39000   1
  -3   5  -9 -1.8200 4.44000   1
  -3  -5  -9 3.25000 2.96000   1
   3   5   9 3.81000 2.49000   1
  -3   5  -9 1.04000 1.22000   1
  11   1 -21 0.59000 1.00000   1
  11  -1 -21 0.43000 0.87000   1
 -11  -1  21 -0.8600 1.21000   1
 -11   1  21 -1.4600 1.32000   1
  11  -1 -21 -0.5100 0.93000   1
  11   1 -21 1.02000 0.85000   1
  11  -4   1 1.56000 1.92000   1
  11   4   1 -0.3400 2.05000   1
  11   4   1 -0.6800 1.59000   1
  11   4   1 1.34000 1.29000   1
 -11   4  -1 1.75000 1.13000   1
 -11  -4  -1 1.66000 1.79000   1
  16  -1  -4 -0.8100 1.94000   1
  16   1  -4 0.46000 1.80000   1
 -16   1   4 2.47000 1.39000   1
 -16   1   4 4.65000 1.55000   1
 -16  -1   4 0.23000 1.87000   1
   6   4  11 -0.0800 1.90000   1
   6   4  11 1.02000 1.14000   1
  -6  -4 -11 -2.7000 2.82000   1
  -6   4 -11 -2.9800 5.00000   1
 -15  -2   2 1.03000 1.79000   1
  15   2  -2 -0.5600 1.76000   1
 -15   2   2 -0.2900 1.19000   1
 -15   2   2 1.43000 1.36000   1
  15  -2  -2 2.76000 1.75000   1
  -6  -5  -5 0.00000 1.27000   1
  -6   5  -5 1.01000 2.82000   1
   6   5   5 -0.7100 1.69000   1
   6   5   5 -1.9700 2.28000   1
  -6   5  -5 1.06000 1.15000   1
  -8   2 -14 1.28000 1.07000   1
  -8  -2 -14 -0.9700 1.81000   1
  -8   2 -14 4.56000 4.22000   1
  -8   2 -14 9.26000 2.32000   1
  15   0 -16 0.43000 1.09000   1
  15   0 -16 0.03000 1.42000   1
 -15   0  16 1.68000 1.68000   1
 -13   1  19 0.06000 1.53000   1
  13   1 -19 1.56000 1.12000   1
  13  -1 -19 0.96000 1.35000   1
  13   1 -19 -1.0900 1.40000   1
  13  -1 -19 0.34000 1.18000   1
  -8   5   7 1.16000 2.96000   1
   8   5  -7 4.19000 1.96000   1
   8   5  -7 2.73000 2.28000   1
  -8   5   7 1.56000 1.48000   1
   8   5  -7 -0.2300 1.28000   1
  -4   5  -8 -0.6600 1.30000   1
  -4   5  -8 4.17000 4.39000   1
  -4  -5  -8 5.17000 2.65000   1
   4   5   8 0.26000 1.73000   1
   4   5   8 0.11000 1.59000   1
  16   1 -11 3.81000 1.96000   1
  16  -1 -11 0.08000 1.57000   1
 -16  -1  11 1.18000 1.75000   1
 -16   1  11 2.62000 1.20000   1
  16   1 -11 2.84000 1.64000   1
  -9   2  21 0.38000 1.57000   1
   9  -2 -21 0.64000 0.95000   1
   9   2 -21 -0.2800 1.78000   1
  13   1   7 0.89000 1.38000   1
  13  -1   7 -0.3200 1.85000   1
 -13   1  -7 -0.0300 0.91000   1
 -13  -1  -7 2.01000 1.65000   1
 -13   1  -7 1.70000 1.41000   1
   0   4  16 -0.0300 1.94000   1
   0   4 -16 -0.7400 4.13000   1
  15   2 -12 -0.5000 1.92000   1
 -15  -2  12 1.41000 1.47000   1
 -15   2  12 1.75000 1.07000   1
  15   2 -12 0.41000 1.44000   1
  15  -2 -12 1.15000 1.49000   1
  -2   5 -10 2.80000 3.91000   1
  -2  -5 -10 2.17000 2.80000   1
  -2   5 -10 0.19000 1.19000   1
   2   5  10 -0.1000 2.00000   1
  -5   1  23 2.98000 2.02000   1
   5   1 -23 0.82000 1.94000   1
  -5  -1  23 2.17000 1.71000   1
  -7   5  -3 0.36000 4.10000   1
  -7  -5  -3 3.22000 1.91000   1
   7   5   3 -0.1000 1.34000   1
  -7   5  -3 -0.0500 1.34000   1
   7   5   3 -0.7800 2.22000   1
  -7  -5  -3 1.22000 1.50000   1
   8   0 -23 0.57000 1.13000   1
 -14   3   4 0.04000 1.29000   1
 -14  -3   4 2.53000 1.73000   1
  14  -3  -4 1.30000 1.67000   1
  14   3  -4 0.07000 1.66000   1
  14   3  -4 2.13000 1.76000   1
   5   3 -20 2.68000 2.93000   1
  -5   3  20 0.88000 1.73000   1
  -5   3  20 0.36000 1.65000   1
  14   3  -9 1.58000 1.04000   1
 -14   3   9 -0.2500 1.55000   1
 -14  -3   9 3.03000 1.52000   1
  14   3  -9 0.82000 1.65000   1
  14  -3  -9 0.12000 1.61000   1
  -2   0 -21 -0.3900 1.61000   1
  -2   0 -21 -0.7500 2.63000   1
  -3  -1 -20 -0.2500 1.91000   1
  -3   1 -20 4.07000 2.75000   1
  -3   1 -20 1.33000 1.48000   1
  -4   3  20 -3.3100 2.06000   1
   4   3 -20 -2.7400 1.95000   1
  -4   3  20 2.55000 1.87000   1
  -6  -1  23 0.91000 1.51000   1
   6  -1 -23 -0.0800 0.79000   1
  -6   1  23 0.96000 1.32000   1
  10  -3 -18 -0.2400 1.23000   1
  10   3 -18 3.08000 1.02000   1
  10   3 -18 -0.4900 1.89000   1
 -10   3  18 1.74000 1.81000   1
  16   0  -2 6.53000 2.59000   1
 -16   0   2 6.68000 2.54000   1
  11   3 -17 0.08000 1.52000   1
 -11   3  17 0.06000 1.86000   1
  11   3 -17 0.37000 1.09000   1
  11  -3 -17 1.54000 1.25000   1
  -8  -5   0 0.65000 1.61000   1
  -8   5   0 0.98000 4.25000   1
  -8  -5   0 1.68000 1.14000   1
   8   5   0 -1.6000 1.95000   1
  -8   5   0 -0.5500 1.39000   1
   8  -5   0 2.79000 1.70000   1
   8   5   0 0.96000 1.78000   1
   8   5   0 -0.0100 1.28000   1
  -4   4  17 1.77000 1.83000   1
  -4   4  17 0.17000 1.51000   1
   4   4 -17 4.86000 3.71000   1
   4   4 -17 0.22000 0.96000   1
  12   4  -6 0.75000 1.74000   1
  12  -4  -6 3.17000 1.78000   1
  12   4  -6 0.95000 1.47000   1
 -12   4   6 0.53000 1.48000   1
 -12  -4   6 1.47000 1.37000   1
  12   4  -5 -0.2400 1.59000   1
 -12  -4   5 2.08000 1.28000   1
  12   4  -5 -1.0700 1.53000   1
 -12   4   5 2.54000 1.40000   1
  12  -4  -5 -0.4500 1.37000   1
  12  -4  -5 -0.3400 1.79000   1
   3   5 -12 0.14000 3.38000   1
  -3   5  12 2.53000 0.93000   1
  -3   5  12 -0.8600 1.72000   1
   3   5 -12 1.07000 1.26000   1
   3   5 -12 -1.7000 1.43000   1
  -9   1 -14 0.45000 1.94000   1
  -9  -1 -14 0.63000 1.95000   1
  -9   1 -14 1.67000 1.37000   1
  -3   2 -19 7.72000 4.18000   1
  -3  -2 -19 1.03000 2.71000   1
 -10   0 -13 -0.5400 1.58000   1
 -11  -1 -11 0.03000 1.16000   1
  11  -1  11 -0.3400 1.30000   1
 -11   1 -11 -1.2700 1.20000   1
  11   1  11 0.94000 0.92000   1
  -5   2  22 2.29000 1.58000   1
  -5  -2  22 1.39000 1.38000   1
  -5   2  22 2.48000 1.88000   1
   5   2 -22 3.35000 2.71000   1
  16   0 -13 0.46000 1.18000   1
  16   0 -13 1.65000 1.50000   1
   2   5 -12 4.60000 3.34000   1
   2   5 -12 0.19000 1.03000   1
  -2   5  12 -2.6200 2.13000   1
  -4   1  23 1.97000 2.05000   1
  -4  -1  23 1.90000 1.39000   1
   4   1 -23 0.17000 1.96000   1
  -3   4  17 2.72000 1.56000   1
  -3   4  17 -1.0000 1.90000   1
   3   4 -17 8.45000 3.94000   1
   3   4 -17 0.83000 1.00000   1
   0   3  19 0.04000 1.58000   1
   0   3  19 1.39000 0.71000   1
   0   3 -19 2.23000 3.98000   1
   0  -3 -19 1.17000 2.08000   1
   8   3  12 2.07000 1.08000   1
   8   3  12 -0.8700 1.52000   1
  -8   3 -12 -0.4600 4.39000   1
  -8  -3 -12 -0.7100 2.69000   1
  12   4  -7 0.20000 0.99000   1
 -12  -4   7 0.45000 1.27000   1
  12   4  -7 2.04000 1.32000   1
 -12   4   7 2.29000 1.47000   1
  12  -4  -7 0.71000 1.53000   1
  -6   3  20 2.76000 1.38000   1
  -6   3  20 3.45000 1.99000   1
   6   3 -20 1.41000 2.08000   1
  12   4  -4 -0.7300 1.63000   1
  12   4  -4 -1.2600 1.49000   1
 -12  -4   4 0.70000 1.39000   1
 -12   4   4 2.21000 1.02000   1
  12  -4  -4 -0.8600 1.91000   1
  -5   4  17 4.00000 1.49000   1
  -5   4  17 2.25000 1.88000   1
   5   4 -17 -0.0600 2.47000   1
   5   4 -17 -0.2500 1.02000   1
   2   4  15 0.97000 1.45000   1
   2   4  15 0.27000 2.13000   1
  -2  -4 -15 2.80000 3.41000   1
  -2   4 -15 0.34000 4.03000   1
  -6   2  22 1.48000 1.41000   1
   6   2 -22 0.80000 2.16000   1
  -6   2  22 1.80000 2.08000   1
  -5   5  -7 0.90000 1.32000   1
   5   5   7 0.02000 1.55000   1
  -5  -5  -7 -0.2500 2.60000   1
  -5   5  -7 3.69000 3.22000   1
   5   5   7 1.98000 2.28000   1
  -4   5  12 0.69000 1.34000   1
   4   5 -12 -0.1200 2.99000   1
   4   5 -12 -0.5600 1.31000   1
  -4   5  12 1.04000 1.95000   1
   4   5 -12 0.98000 1.27000   1
  -3   3  20 -0.4100 1.27000   1
  -3   3  20 1.12000 1.77000   1
   3   3 -20 0.33000 2.66000   1
  -4   2  22 3.13000 1.94000   1
   4   2 -22 -0.2000 2.43000   1
  -4   2  22 0.27000 1.56000   1
  -4  -2  22 1.76000 1.13000   1
 -16   1   3 0.17000 1.29000   1
 -16   1   3 -0.2100 1.63000   1
  16  -1  -3 -0.1800 1.87000   1
  16   1  -3 1.87000 1.74000   1
 -16  -1   3 1.70000 1.83000   1
  11   3   7 0.97000 1.11000   1
  11   3   7 1.25000 1.29000   1
 -11  -3  -7 0.45000 2.36000   1
  11  -3   7 0.25000 1.57000   1
 -11   3  -7 0.63000 1.01000   1
   6   5 -11 -0.3600 1.46000   1
  -6   5  11 0.63000 1.09000   1
   6   5 -11 2.87000 2.73000   1
   6   5 -11 1.49000 1.68000   1
  -6   5  11 -0.1000 1.58000   1
  -7   1  23 1.57000 1.83000   1
  -7   1  23 -0.3600 1.22000   1
   7  -1 -23 -0.7000 0.80000   1
   7   1 -23 0.19000 1.45000   1
 -14   3   3 2.23000 1.25000   1
  14   3  -3 -1.0000 1.16000   1
 -14  -3   3 0.51000 1.69000   1
  14   3  -3 -0.0300 1.62000   1
 -14   3   3 0.23000 0.98000   1
  14  -3  -3 3.40000 1.38000   1
  -9   4  15 -0.4000 1.79000   1
  -9   4  15 1.61000 1.57000   1
  -9   4  15 2.69000 1.40000   1
   9   4 -15 -0.2400 1.17000   1
   9  -4 -15 0.54000 1.38000   1
   9   4 -15 -3.1300 2.01000   1
  14  -3 -10 1.50000 1.41000   1
  14   3 -10 -1.3500 1.65000   1
  14   3 -10 0.98000 1.29000   1
 -14   3  10 0.73000 1.02000   1
 -14  -3  10 -0.2300 1.35000   1
  -1   5 -11 -3.0800 4.85000   1
   1   5  11 -0.4500 2.36000   1
  -1  -5 -11 4.34000 2.81000   1
   7   4  10 1.95000 1.34000   1
   7   4  10 3.28000 1.97000   1
  -7  -4 -10 -0.2300 3.03000   1
  -7   4 -10 -1.7100 5.22000   1
   8   5  -8 0.48000 1.98000   1
  -8   5   8 -1.1900 1.20000   1
   8   5  -8 1.51000 1.77000   1
  -8   5   8 -0.0300 0.77000   1
   8   5  -8 -1.3100 1.43000   1
   7   5 -10 2.20000 1.72000   1
   7   5 -10 -0.5500 1.47000   1
  -7   5  10 2.59000 1.27000   1
  -7   5  10 0.89000 0.97000   1
   7   5 -10 -0.3300 2.53000   1
  -2   0  23 -0.1300 1.53000   1
   2   0 -23 0.55000 1.27000   1
   2   0 -23 0.11000 1.67000   1
 -16   1  12 -0.2300 1.57000   1
  16  -1 -12 2.86000 1.52000   1
  16   1 -12 1.21000 1.66000   1
 -16  -1  12 0.94000 1.49000   1
  16   1 -12 -0.5300 1.48000   1
 -10   3  -9 5.08000 2.73000   1
 -10  -3  -9 0.33000 2.44000   1
  10   3   9 1.60000 1.51000   1
  10   3   9 1.38000 1.19000   1
  10  -3   9 0.97000 1.54000   1
 -10   3  -9 0.87000 1.16000   1
 -12  -4   8 0.85000 1.18000   1
  12   4  -8 -0.8600 1.84000   1
  12   4  -8 0.64000 1.41000   1
 -12   4   8 1.48000 1.15000   1
  12  -4  -8 1.88000 1.73000   1
   2   3  18 0.93000 1.58000   1
  -2  -3 -18 2.63000 2.21000   1
  -2   3 -18 -1.4600 3.85000   1
  -9   3  19 0.05000 1.65000   1
   9   3 -19 0.41000 2.23000   1
   9   3 -19 2.33000 0.90000   1
  -9   3  19 2.66000 1.55000   1
   9  -3 -19 0.94000 1.21000   1
  12   4  -3 0.13000 1.52000   1
  12   4  -3 0.49000 1.32000   1
  12   4  -3 -0.8800 1.26000   1
 -12  -4   3 0.95000 1.44000   1
  12  -4  -3 0.30000 1.38000   1
 -12   4   3 0.63000 1.31000   1
   1   5 -12 0.63000 1.43000   1
   1   5 -12 -1.7300 2.88000   1
  -1   5  12 -1.8800 2.24000   1
  11  -4 -12 0.53000 1.62000   1
  11   4 -12 3.23000 1.37000   1
  11   4 -12 2.23000 2.23000   1
  10   1 -22 -0.0300 1.57000   1
  10  -1 -22 2.09000 0.97000   1
 -10   1  22 1.26000 1.47000   1
 -10  -1  22 2.37000 1.22000   1
  -6   0 -18 2.38000 2.79000   1
  -6   0 -18 1.07000 1.90000   1
 -15   2   1 2.20000 1.35000   1
 -15   2   1 -0.1100 1.26000   1
  15  -2  -1 2.81000 1.97000   1
 -15  -2   1 1.06000 1.87000   1
  15   2  -1 1.25000 1.77000   1
  -2   4  17 1.54000 1.43000   1
  -2   4  17 -0.2900 2.02000   1
   2   4 -17 0.08000 0.92000   1
   2   4 -17 -3.3800 3.19000   1
 -13   3  14 0.36000 1.74000   1
  13   3 -14 1.38000 1.15000   1
  13  -3 -14 -0.1900 1.39000   1
  13   3 -14 0.56000 1.95000   1
   8   4 -16 0.26000 2.75000   1
   8   4 -16 -0.8700 1.42000   1
  -8   4  16 -1.4100 2.04000   1
  -8   4  16 -0.8200 1.36000   1
  12   2 -19 -0.7300 1.60000   1
  12  -2 -19 0.45000 1.08000   1
  12   2 -19 -0.2500 1.07000   1
 -12   2  19 -0.1700 1.57000   1
  12  -2 -19 0.92000 1.00000   1
  13   3   2 0.13000 1.52000   1
 -13   3  -2 -0.7600 1.12000   1
 -13  -3  -2 1.40000 1.92000   1
 -13   3  -2 -0.3600 1.20000   1
  13  -3   2 -2.4400 1.69000   1
  12   0 -21 3.12000 1.31000   1
 -12   0  21 1.54000 1.51000   1
  12   0 -21 1.27000 0.99000   1
 -11   2  20 1.93000 1.76000   1
  11  -2 -20 0.92000 1.07000   1
  11   2 -20 3.26000 1.78000   1
  11   2 -20 0.34000 1.06000   1
  11  -2 -20 2.05000 1.19000   1
  12   3 -16 2.89000 2.00000   1
  12  -3 -16 0.86000 1.24000   1
 -12   3  16 -2.1500 1.24000   1
  12   3 -16 0.33000 1.06000   1
  -7   0 -17 4.16000 2.85000   1
  -7   0 -17 -0.0400 1.71000   1
  -9   2 -13 1.08000 2.02000   1
  -9   2 -13 4.93000 3.05000   1
  -9   2 -13 0.76000 1.08000   1
  -9  -2 -13 -2.3800 1.92000   1
  -8   5  -1 0.68000 1.27000   1
  -8  -5  -1 1.07000 1.57000   1
  -8   5  -1 -0.3200 4.24000   1
  -8  -5  -1 -1.4100 1.34000   1
   8   5   1 0.53000 1.26000   1
   8  -5   1 0.97000 1.21000   1
   8   5   1 -1.0500 2.10000   1
  14   1   5 1.72000 1.55000   1
  14  -1   5 -0.9100 1.65000   1
 -14  -1  -5 2.00000 1.64000   1
 -14   1  -5 1.73000 1.02000   1
 -14   1  -5 1.25000 1.20000   1
 -15   1  -2 3.90000 1.17000   1
 -15  -1  -2 -0.0300 1.99000   1
  15  -1   2 0.19000 1.80000   1
  15   1   2 2.43000 1.69000   1
 -15   1  -2 1.42000 1.42000   1
  -7   2  22 3.09000 2.32000   1
  -7   2  22 2.98000 1.49000   1
   7   2 -22 6.82000 2.35000   1
   3   1 -23 -0.4700 1.67000   1
   3   1 -23 0.02000 1.36000   1
  -3  -1  23 2.34000 1.49000   1
  -3   1  23 -2.2400 1.63000   1
  -6   4  17 0.04000 1.98000   1
  -6   4  17 1.01000 1.49000   1
   6   4 -17 -0.4300 2.93000   1
   6   4 -17 1.30000 0.97000   1
  11   4   2 2.04000 1.60000   1
  11   4   2 0.27000 1.68000   1
  11  -4   2 0.89000 1.31000   1
  11   4   2 -0.3700 2.10000   1
 -11  -4  -2 1.06000 1.96000   1
 -11   4  -2 0.76000 1.08000   1
  15   2 -13 0.31000 1.51000   1
  15  -2 -13 1.03000 1.62000   1
 -15  -2  13 2.63000 1.47000   1
  15   2 -13 2.30000 1.41000   1
 -15   2  13 0.92000 1.38000   1
  10  -4 -14 -0.0100 1.36000   1
  10   4 -14 0.19000 1.66000   1
 -10   4  14 -0.9900 1.03000   1
  10   4 -14 1.65000 1.17000   1
 -10   4  14 0.47000 1.69000   1
   0  -1  22 2.58000 1.24000   1
   0   1  22 2.10000 1.72000   1
   0  -1 -22 -1.5800 2.42000   1
   0   1 -22 1.59000 1.53000   1
   0   1 -22 -1.8500 2.39000   1
   0   2 -21 1.44000 3.10000   1
   0  -2 -21 3.29000 2.90000   1
   0   2  21 2.04000 1.98000   1
  -7   3  20 6.36000 2.02000   1
  -7   3  20 2.42000 2.16000   1
   7   3 -20 4.34000 2.73000   1
  -3   2  22 -0.7700 1.37000   1
   3   2 -22 0.76000 2.38000   1
  -3  -2  22 0.98000 1.06000   1
 -14   1  18 3.15000 1.74000   1
  14  -1 -18 0.88000 1.48000   1
  14   1 -18 3.06000 1.57000   1
  14  -1 -18 -1.1000 1.31000   1
  14   1 -18 1.29000 1.42000   1
  13   0 -20 2.07000 1.43000   1
 -13   0  20 2.91000 1.80000   1
  13   0 -20 1.07000 1.31000   1
 -14  -2  -3 -0.6300 1.95000   1
  14  -2   3 -0.0700 1.66000   1
 -14   2  -3 2.73000 1.02000   1
 -14   2  -3 0.35000 1.40000   1
  14   2   3 -0.9200 1.62000   1
  -5   0 -19 -0.1900 1.59000   1
  -5   0 -19 0.31000 2.04000   1
 -12   3  -5 1.76000 1.06000   1
 -12   3  -5 1.77000 1.03000   1
 -12  -3  -5 -3.0500 2.36000   1
  12   3   5 -0.5800 1.51000   1
  12  -3   5 1.33000 1.66000   1
 -13   0  -8 1.07000 1.60000   1
  13   0   8 0.00000 1.63000   1
   5   5 -12 0.04000 1.40000   1
  -5   5  12 -0.4300 1.85000   1
  -5   5  12 -1.0700 1.00000   1
   5   5 -12 1.68000 2.68000   1
   5   5 -12 1.43000 1.28000   1
 -12  -2  -8 0.45000 2.37000   1
 -12   2  -8 1.83000 1.24000   1
  12  -2   8 0.00000 1.44000   1
  12   2   8 1.09000 1.37000   1
 -12   0 -10 0.55000 1.66000   1
  12   0  10 2.68000 1.27000   1
 -16   0   1 -0.1400 1.59000   1
  16   0  -1 -0.8500 1.84000   1
 -14   2  16 -0.7200 1.60000   1
  14   2 -16 -0.1600 1.10000   1
  14  -2 -16 1.33000 1.14000   1
  14   2 -16 -0.9600 1.48000   1
  15   1 -16 1.61000 1.73000   1
  15  -1 -16 0.49000 1.51000   1
  15   1 -16 1.98000 1.42000   1
  15  -1 -16 0.63000 1.50000   1
 -15   1  16 2.90000 1.93000   1
   9   0 -23 1.34000 1.15000   1
  -9   0  23 0.58000 1.09000   1
  -9   4  -7 -1.3600 2.04000   1
  -9  -4  -7 -0.4500 1.15000   1
  -9  -4  -7 0.20000 2.42000   1
   9   4   7 0.07000 1.47000   1
   9  -4   7 -0.3100 1.18000   1
  -9   4  -7 1.57000 5.37000   1
  -7   5  -4 1.23000 1.23000   1
  -7   5  -4 2.47000 4.16000   1
   7   5   4 2.30000 2.24000   1
   7   5   4 2.06000 1.77000   1
  -7  -5  -4 -0.8600 2.14000   1
  -7  -5  -4 -1.5500 1.37000   1
  -2   3  20 1.81000 1.54000   1
   2   3 -20 -1.0200 3.08000   1
  -2   3  20 -0.1000 1.50000   1
 -12  -4   9 0.07000 1.36000   1
 -12   4   9 0.24000 1.53000   1
  12   4  -9 -0.0900 1.38000   1
  12  -4  -9 1.42000 1.55000   1
  12   4  -9 -0.0200 1.27000   1
  14   3  -2 -1.9200 1.52000   1
 -14   3   2 0.15000 1.17000   1
  14   3  -2 -2.0800 1.63000   1
  14  -3  -2 2.69000 1.67000   1
 -14   3   2 -0.6500 1.19000   1
 -14  -3   2 -0.0300 1.62000   1
 -12  -4   2 -0.3200 1.56000   1
  12   4  -2 -2.3200 1.42000   1
  12   4  -2 0.58000 1.17000   1
  12   4  -2 -0.5000 1.53000   1
  12  -4  -2 1.08000 1.76000   1
 -12   4   2 0.80000 1.28000   1
  -8   1  23 0.45000 1.44000   1
   8  -1 -23 0.07000 0.91000   1
   8   1 -23 0.64000 1.52000   1
  -8   1  23 4.13000 1.82000   1
  14   3 -11 -0.7000 1.81000   1
  14   3 -11 -0.8000 0.94000   1
 -14   3  11 0.77000 1.39000   1
 -14  -3  11 2.00000 1.25000   1
  14  -3 -11 -1.8000 1.09000   1
 -15   0  -3 2.48000 1.51000   1
  15   0   3 -2.2700 1.47000   1
   6   5   6 -0.3400 2.18000   1
  -6  -5  -6 2.10000 2.26000   1
   6   5   6 -0.1700 1.67000   1
  -6  -5  -6 -0.8200 1.04000   1
  -6   5  -6 1.02000 4.23000   1
  -6   5  -6 0.75000 1.13000   1
  11   2  10 0.72000 1.23000   1
 -11   2 -10 0.39000 1.21000   1
 -11  -2 -10 3.28000 2.06000   1
  11  -2  10 0.36000 1.31000   1
  -2  -1 -21 0.97000 2.35000   1
  -2   1 -21 0.52000 2.67000   1
  -2   1 -21 0.56000 1.31000   1
 -16   1   2 -0.2900 1.31000   1
  16  -1  -2 -0.2200 1.72000   1
  16   1  -2 0.78000 1.26000   1
 -16   1   2 5.53000 1.57000   1
 -16  -1   2 -0.1600 1.90000   1
 -16   0  14 5.98000 2.13000   1
  16   0 -14 4.18000 1.80000   1
  16   0 -14 1.37000 1.86000   1
 -10  -4  -5 -0.3800 1.10000   1
 -10   4  -5 1.96000 0.98000   1
  10   4   5 1.20000 1.53000   1
 -10  -4  -5 -1.6600 2.16000   1
  10   4   5 1.36000 1.96000   1
  10  -4   5 -1.3600 1.71000   1
 -10   4  -5 1.69000 1.91000   1
  -2   2 -20 4.91000 3.62000   1
  -2  -2 -20 5.07000 3.01000   1
  -8   0 -16 -0.1800 1.91000   1
  -8   0 -16 7.28000 3.28000   1
  11   0 -22 0.77000 0.91000   1
  11   0 -22 1.43000 1.28000   1
 -11   0  22 1.55000 1.32000   1
  -8   5   9 0.33000 0.79000   1
   8   5  -9 -0.8700 1.59000   1
   8   5  -9 -0.8800 1.92000   1
   8   5  -9 0.37000 1.38000   1
  -8   5   9 -0.0200 1.62000   1
  -1  -4 -16 -0.2800 3.27000   1
  -1   4 -16 1.34000 4.07000   1
   1   4  16 -0.9600 1.85000   1
 -10  -1 -13 1.93000 1.49000   1
 -10   1 -13 1.87000 1.35000   1
  13   2 -18 0.98000 1.40000   1
 -13   2  18 0.61000 1.84000   1
  13   2 -18 0.13000 1.27000   1
  13  -2 -18 1.54000 1.35000   1
   0   5  12 -0.6600 1.71000   1
   0   5 -12 -1.5400 3.92000   1
  15   0 -17 2.43000 1.37000   1
  15   0 -17 0.45000 1.29000   1
 -15   0  17 1.07000 1.31000   1
   9  -3  11 1.05000 1.25000   1
   9   3  11 3.32000 1.57000   1
  -9  -3 -11 2.11000 2.50000   1
   9   3  11 -0.5200 1.02000   1
  -9   3 -11 0.21000 3.33000   1
  -9   3 -11 1.40000 2.56000   1
  -9   3 -11 -0.0200 0.84000   1
 -16  -1  13 0.05000 1.08000   1
  16  -1 -13 0.85000 1.33000   1
 -16   1  13 1.02000 1.90000   1
  16   1 -13 -0.0500 1.32000   1
  16   1 -13 2.53000 1.48000   1
 -13   2  -6 1.12000 1.22000   1
 -13  -2  -6 1.48000 1.55000   1
  13   2   6 -1.2300 1.36000   1
  13  -2   6 -0.2300 1.48000   1
 -13   2  -6 0.68000 0.88000   1
  10  -2 -21 1.04000 1.08000   1
  10   2 -21 0.88000 0.88000   1
  10   2 -21 0.45000 1.79000   1
 -10   2  21 1.77000 1.65000   1
   9  -5  -4 0.39000 0.79000   1
   9   5  -4 0.56000 1.41000   1
   9   5  -4 1.58000 1.99000   1
   9  -5  -4 -0.9100 1.57000   1
   9   5  -4 -1.1200 1.11000   1
  -9   5   4 3.20000 1.48000   1
  -9   5   4 -0.3200 2.53000   1
  -4   0 -20 4.09000 2.39000   1
  -4   0 -20 -0.4100 1.90000   1
  -1   4  17 1.08000 0.72000   1
  -1   4  17 -2.0500 1.77000   1
   1   4 -17 -3.1600 2.71000   1
  -1   0 -22 -0.5500 1.79000   1
  -1   0 -22 3.28000 1.55000   1
   3   5  10 -3.9900 2.66000   1
  -3  -5 -10 -3.2700 3.10000   1
  -3   5 -10 2.91000 4.85000   1
  -9   5   5 1.46000 1.22000   1
  -9   5   5 -1.0800 1.92000   1
   9   5  -5 2.63000 1.80000   1
   9  -5  -5 0.57000 1.50000   1
   9   5  -5 2.11000 2.08000   1
   9  -5  -5 -0.0600 0.76000   1
   9   5  -5 0.54000 1.06000   1
  -8  -4  -9 1.10000 2.71000   1
   8   4   9 1.08000 1.74000   1
   8   4   9 -0.7800 1.31000   1
  -8   4  -9 7.07000 4.93000   1
 -14   0  -6 1.79000 1.66000   1
  14   0   6 3.72000 1.67000   1
  -4   5  -9 0.18000 4.75000   1
  -4   5  -9 1.29000 1.26000   1
   4   5   9 1.87000 2.32000   1
   4   5   9 0.76000 1.82000   1
  -4  -5  -9 1.75000 2.73000   1
  -9   5   3 2.49000 2.80000   1
   9  -5  -3 2.27000 1.54000   1
  -9   5   3 1.33000 1.56000   1
   9   5  -3 2.25000 1.24000   1
  -9  -5   3 -0.3400 1.26000   1
   9   5  -3 -0.7200 2.15000   1
   9   5  -3 0.47000 1.57000   1
   8   2 -22 3.16000 1.46000   1
  -8   2  22 0.56000 1.54000   1
  -8   2  22 0.34000 1.49000   1
   8   5   2 -2.4600 1.75000   1
  -8   5  -2 3.22000 4.25000   1
  -8   5  -2 1.68000 1.41000   1
  -8  -5  -2 1.29000 1.93000   1
   8   5   2 4.70000 2.15000   1
  -8  -5  -2 -0.2200 1.53000   1
  -7   4  17 -1.2500 1.55000   1
  -7   4  17 3.25000 1.97000   1
   7   4 -17 1.92000 1.16000   1
   7   4 -17 3.35000 3.11000   1
  14   0 -19 2.58000 1.42000   1
  14   0 -19 3.55000 1.52000   1
 -14   0  19 0.83000 1.75000   1
  -7   5  11 -3.0600 2.10000   1
  -7   5  11 -0.3700 1.14000   1
   7   5 -11 0.83000 1.44000   1
   7   5 -11 5.42000 1.76000   1
   7   5 -11 4.15000 2.48000   1
 -11   0 -12 1.02000 1.45000   1
  12   4 -10 2.96000 1.44000   1
  12   4 -10 -1.3600 1.87000   1
  12  -4 -10 2.32000 1.63000   1
 -12   4  10 0.71000 1.62000   1
   2   1 -23 0.51000 2.11000   1
   2   1 -23 0.39000 1.60000   1
  -2  -1  23 1.15000 1.41000   1
  -2   1  23 2.27000 1.80000   1
   2   2 -22 2.81000 2.78000   1
  -2   2  22 0.55000 2.01000   1
  -2  -2  22 0.58000 1.10000   1
 -15  -2   0 1.40000 1.85000   1
 -15   2   0 1.33000 1.38000   1
  15   2   0 1.79000 1.71000   1
 -15   2   0 0.70000 1.19000   1
  15  -2   0 0.32000 1.89000   1
  -9   5   6 0.48000 1.33000   1
   9  -5  -6 -0.7100 0.78000   1
   9   5  -6 1.22000 1.65000   1
   9   5  -6 0.38000 1.36000   1
   9   5  -6 5.07000 1.89000   1
  -9   5   6 1.59000 2.58000   1
 -12  -4   1 -2.4400 1.68000   1
  12   4  -1 -0.4000 1.58000   1
  12   4  -1 -0.2200 1.66000   1
  12   4  -1 -1.4400 1.70000   1
 -12   4   1 -0.6200 1.30000   1
  12  -4  -1 0.15000 1.95000   1
   1   0 -23 -0.0400 1.52000   1
   1   0 -23 -0.0300 1.32000   1
  -1   0  23 0.44000 1.44000   1
  -5   3 -16 -0.3900 3.75000   1
   5   3  16 0.12000 1.44000   1
  -5  -3 -16 -1.4100 2.53000   1
  -2   5 -11 2.65000 4.67000   1
  -2  -5 -11 1.35000 3.18000   1
   2   5  11 4.16000 2.37000   1
   5   4  13 0.01000 1.13000   1
  -5  -4 -13 -0.2900 2.84000   1
  -5   4 -13 -0.3800 4.64000   1
   5   4  13 -0.8100 1.77000   1
  -6   3 -15 0.20000 2.96000   1
  -6  -3 -15 2.30000 2.04000   1
   6   3  15 -0.7300 1.30000   1
  -6   5  12 0.82000 1.16000   1
   6   5 -12 -0.3700 1.65000   1
   6   5 -12 0.37000 1.08000   1
  -6   5  12 -2.0000 2.12000   1
   6   5 -12 8.17000 2.89000   1
   8   3 -20 -0.0800 2.13000   1
   8   3 -20 0.23000 0.95000   1
  -8   3  20 1.26000 1.57000   1
  -8   3  20 3.27000 1.67000   1
   8  -3 -20 0.11000 0.73000   1
  -1   3 -19 -0.2600 4.32000   1
  -1  -3 -19 3.63000 2.41000   1
   1   3  19 0.80000 1.57000   1
  11  -4 -13 -1.6400 1.42000   1
  11   4 -13 0.93000 1.50000   1
  11   4 -13 0.77000 1.35000   1
 -11   4  13 2.60000 1.74000   1
  -6  -1 -18 5.13000 2.43000   1
  -6   1 -18 1.42000 1.48000   1
  -6   1 -18 -0.0600 3.30000   1
   9   5  -2 -3.1200 2.27000   1
   9   5  -2 -0.2800 1.40000   1
   9   5  -2 0.13000 1.29000   1
   9  -5  -2 0.80000 1.41000   1
  -9   5   2 0.37000 1.40000   1
  -9   5   2 3.14000 2.84000   1
  -9  -5   2 3.60000 1.69000   1
  -4  -4 -14 4.64000 2.28000   1
   4   4  14 -0.7500 1.22000   1
   4   4  14 1.56000 1.79000   1
  -4   4 -14 3.84000 4.59000   1
  15   2 -14 2.32000 2.09000   1
  15  -2 -14 -0.4900 1.82000   1
  15   2 -14 2.06000 1.57000   1
 -15   2  14 4.72000 2.07000   1
 -15  -2  14 3.16000 1.71000   1
 -14   3   1 2.28000 1.19000   1
  14  -3  -1 0.05000 1.39000   1
  14   3  -1 2.26000 1.54000   1
  14   3  -1 -0.6300 1.72000   1
 -14   3   1 -0.2200 1.35000   1
 -14  -3   1 0.21000 1.88000   1
  12   1 -21 0.17000 1.39000   1
  12  -1 -21 0.68000 1.00000   1
  12   1 -21 0.43000 0.92000   1
  12  -1 -21 1.88000 1.11000   1
 -12   1  21 -0.4500 1.48000   1
 -12  -1  21 -0.3200 1.36000   1
  -3   5  13 0.15000 2.46000   1
  -3   5  13 2.79000 1.06000   1
   3   5 -13 -2.7600 3.63000   1
   3   5 -13 1.76000 1.42000   1
   3   5 -13 1.01000 1.50000   1
  -7  -1 -17 3.90000 2.20000   1
  -7   1 -17 -0.7500 3.76000   1
  -7   1 -17 3.13000 1.42000   1
  -5   5  -8 4.11000 3.99000   1
  -5   5  -8 0.13000 1.39000   1
  -5  -5  -8 -0.6500 2.46000   1
   5   5   8 1.65000 1.62000   1
   5   5   8 -1.3600 1.71000   1
  14   3 -12 -0.1500 1.37000   1
 -14   3  12 0.31000 1.10000   1
 -14  -3  12 1.88000 1.48000   1
  14   3 -12 -0.4000 1.38000   1
  14  -3 -12 -2.8900 1.46000   1
  -9   0 -15 -0.1700 1.50000   1
  11   4   3 1.47000 1.61000   1
 -11   4  -3 1.67000 1.06000   1
  11   4   3 -0.5100 1.96000   1
 -11  -4  -3 0.62000 0.75000   1
 -11  -4  -3 0.55000 2.07000   1
  11  -4   3 1.13000 1.33000   1
  -6   2 -17 0.25000 3.89000   1
  -6   2 -17 0.14000 0.79000   1
  -6  -2 -17 0.52000 1.56000   1
  13   1 -20 3.71000 1.53000   1
 -13  -1  20 0.39000 1.48000   1
 -13   1  20 0.65000 1.64000   1
  13   1 -20 0.74000 1.21000   1
  13  -1 -20 0.31000 1.18000   1
  13  -1 -20 1.70000 1.23000   1
 -10   2 -12 0.24000 1.04000   1
 -10   2 -12 1.31000 2.12000   1
 -10  -2 -12 -0.2500 2.02000   1
  -1   3  20 3.09000 1.34000   1
  -1   3  20 1.38000 1.62000   1
   1   3 -20 0.78000 2.53000   1
  -5  -1 -19 3.71000 2.22000   1
  -5   1 -19 2.41000 1.24000   1
  -5   1 -19 1.77000 3.10000   1
  -6   4 -12 11.9800 4.03000   1
  -6  -4 -12 3.47000 3.07000   1
   6   4  12 0.36000 2.08000   1
   6   4  12 0.06000 1.25000   1
  -2   5  13 0.23000 2.43000   1
   2   5 -13 2.45000 1.49000   1
   2   5 -13 3.05000 4.20000   1
  11   3 -18 1.59000 1.05000   1
  11  -3 -18 0.43000 1.26000   1
  11   3 -18 2.07000 1.80000   1
 -11   3  18 0.37000 1.99000   1
   4   5 -13 3.21000 3.32000   1
  -4   5  13 0.55000 1.26000   1
   4   5 -13 -0.6100 1.45000   1
   4   5 -13 2.64000 1.43000   1
  -4   5  13 2.36000 2.24000   1
  13  -1   8 1.78000 1.57000   1
 -13  -1  -8 2.79000 1.31000   1
 -13   1  -8 0.35000 1.33000   1
  13   1   8 0.02000 1.36000   1
  16   0   0 3.01000 1.76000   1
 -16   0   0 -0.1100 1.64000   1
 -13   3  15 0.55000 1.82000   1
  13   3 -15 1.47000 1.27000   1
  13  -3 -15 0.45000 1.39000   1
  13   3 -15 2.74000 2.04000   1
  -4   3 -17 -2.7400 4.15000   1
  -4  -3 -17 4.29000 2.15000   1
   4   3  17 0.02000 1.52000   1
  -9   5   7 2.47000 1.77000   1
   9   5  -7 3.33000 2.09000   1
  -9   5   7 -1.8500 2.66000   1
   9   5  -7 0.75000 1.99000   1
   9   5  -7 1.63000 1.49000   1
 -13   3  -3 -0.4900 1.05000   1
  13   3   3 3.97000 1.61000   1
 -13   3  -3 1.69000 1.13000   1
  13  -3   3 2.96000 1.66000   1
 -13  -3  -3 -2.6800 1.59000   1
  12   1  10 0.73000 1.17000   1
 -12  -1 -10 2.34000 1.71000   1
 -12   1 -10 2.53000 1.43000   1
  12  -1  10 -0.1200 1.32000   1
 -16   1   1 -0.1300 1.14000   1
  16  -1  -1 0.50000 1.26000   1
  16   1  -1 0.45000 1.57000   1
 -16   1   1 -0.1300 1.43000   1
 -16  -1   1 -2.8300 1.86000   1
  -9   1  23 0.69000 1.25000   1
   9   1 -23 -0.1200 1.60000   1
   9  -1 -23 1.35000 0.88000   1
   7   3  14 0.91000 1.47000   1
  -7  -3 -14 -3.2800 2.81000   1
  -7   3 -14 1.17000 3.90000   1
  -5  -2 -18 4.92000 2.96000   1
  -5   2 -18 6.34000 4.47000   1
   8   5 -10 1.06000 1.69000   1
  -8   5  10 1.13000 0.96000   1
   8   5 -10 0.93000 1.32000   1
  -8   5  10 1.59000 1.76000   1
   8   5 -10 0.78000 1.53000   1
  -6   0  24 0.44000 1.77000   1
  -5   0  24 -0.1300 1.14000   1
   5   0 -24 0.39000 1.16000   1
  -3   4 -15 0.42000 3.65000   1
   3   4  15 -0.1300 1.36000   1
  -3  -4 -15 2.63000 3.01000   1
   3   4  15 -1.4700 1.79000   1
  -7  -2 -16 2.06000 2.06000   1
  -7   2 -16 -1.3000 3.81000   1
  -7   2 -16 0.00000 0.88000   1
   9   5  -1 4.13000 2.01000   1
   9  -5  -1 -0.7000 1.47000   1
  -9  -5   1 -0.8800 1.94000   1
  -9   5   1 2.45000 4.00000   1
   9   5  -1 1.26000 1.38000   1
   9   5  -1 0.70000 1.77000   1
  -9   5   1 1.85000 1.49000   1
  -9   5   1 -3.0500 2.06000   1
  10   3 -19 0.28000 0.90000   1
  10   3 -19 -0.6800 1.81000   1
  10  -3 -19 0.87000 1.16000   1
 -10   3  19 2.13000 1.67000   1
  -9   4  16 -1.2400 1.88000   1
   9   4 -16 0.77000 2.50000   1
   9  -4 -16 1.33000 1.41000   1
   9   4 -16 1.01000 1.27000   1
  -9   4  16 0.89000 1.38000   1
  -7  -5  -5 1.95000 2.24000   1
  -7   5  -5 0.99000 1.25000   1
  -7   5  -5 -0.4600 4.25000   1
   7   5   5 0.71000 1.72000   1
  -7  -5  -5 1.57000 1.46000   1
   7   5   5 -2.3500 2.10000   1
  15  -1   3 1.45000 1.67000   1
 -15   1  -3 -1.0000 1.06000   1
  15   1   3 3.24000 1.57000   1
 -15  -1  -3 1.48000 1.66000   1
 -15   1  -3 -0.4400 1.33000   1
  16   0 -15 0.87000 1.03000   1
 -16   0  15 -1.4600 1.63000   1
  16   0 -15 0.92000 1.43000   1
 -16   2   7 1.13000 1.08000   1
  16   2  -7 -1.7000 1.29000   1
 -16   2   7 2.75000 1.27000   1
  16   2  -7 -1.1500 1.81000   1
  16  -2  -7 -1.1100 1.98000   1
 -16  -2   7 2.02000 1.64000   1
 -10   0  23 0.69000 1.54000   1
  10   0 -23 1.79000 1.21000   1
 -16   1  14 2.15000 1.67000   1
  16  -1 -14 0.18000 1.04000   1
  16   1 -14 -0.1200 0.99000   1
 -16  -1  14 -0.4100 1.01000   1
  16   1 -14 0.78000 1.23000   1
 -16  -2   8 0.14000 1.83000   1
  16   2  -8 0.23000 1.48000   1
 -16   2   8 1.73000 1.54000   1
 -16   2   8 0.85000 0.73000   1
  16   2  -8 2.82000 1.40000   1
  16  -2  -8 -0.5400 1.66000   1
  -8  -1 -16 1.33000 2.73000   1
  -8   1 -16 -1.0700 2.91000   1
  -8  -1 -16 2.78000 1.98000   1
  -8   1 -16 0.25000 1.39000   1
  -8   1 -16 4.79000 1.46000   1
  -3   0 -21 0.78000 2.49000   1
  -3   0 -21 5.58000 1.90000   1
 -11  -1  22 -1.2100 1.15000   1
 -11   1  22 1.81000 1.38000   1
  11  -1 -22 0.76000 0.91000   1
  11   1 -22 -2.5600 1.38000   1
  11  -1 -22 0.76000 0.94000   1
  -1  -5 -12 0.10000 3.04000   1
  -1   5 -12 1.52000 5.00000   1
   1   5  12 1.34000 2.21000   1
 -10   4  15 0.07000 1.28000   1
 -10   4  15 1.71000 1.92000   1
  10   4 -15 1.76000 1.38000   1
  10  -4 -15 2.99000 1.63000   1
  10   4 -15 2.69000 1.85000   1
  11   3   8 0.64000 1.09000   1
 -11   3  -8 1.70000 1.00000   1
 -11  -3  -8 2.94000 2.30000   1
  11   3   8 -0.0600 1.34000   1
  11  -3   8 0.68000 1.60000   1
  17   0  -8 1.85000 2.30000   1
 -17   0   8 5.21000 2.21000   1
  16  -2  -6 -1.8800 1.92000   1
 -16   2   6 0.62000 1.15000   1
  16   2  -6 2.88000 1.81000   1
  16   2  -6 1.20000 1.74000   1
 -16   2   6 -0.3800 1.34000   1
 -16  -2   6 1.09000 1.27000   1
  12   4 -11 0.69000 1.49000   1
  12   4 -11 -0.6600 2.16000   1
  12  -4 -11 3.08000 1.69000   1
 -12   4  11 2.31000 1.65000   1
 -14   2  -4 2.13000 1.26000   1
 -14   2  -4 0.53000 0.86000   1
 -14  -2  -4 -1.1900 1.99000   1
  14  -2   4 -1.6800 1.50000   1
  14   2   4 -0.4600 1.46000   1
 -17   0   7 0.76000 1.62000   1
  17   0  -7 -0.1700 1.86000   1
   7   0 -24 0.93000 1.38000   1
  -7   0  24 3.88000 2.08000   1
 -12   3  17 0.34000 1.84000   1
  12   3 -17 0.56000 1.10000   1
  12   3 -17 -1.5000 2.22000   1
  12  -3 -17 2.29000 1.32000   1
 -15   1  17 0.21000 1.70000   1
  15   1 -17 0.65000 0.97000   1
  15  -1 -17 0.51000 1.31000   1
  15   1 -17 0.54000 1.20000   1
  15  -1 -17 -0.0500 1.28000   1
   0   6   0 1.77000 2.04000   1
   0  -6   0 0.11000 1.76000   1
  16   2  -9 2.83000 1.34000   1
  16  -2  -9 -1.8100 1.51000   1
 -16  -2   9 0.94000 1.47000   1
  16   2  -9 -0.0400 1.37000   1
  -4   0  24 0.54000 1.57000   1
   4   0 -24 1.11000 1.33000   1
  17   0  -9 1.45000 1.24000   1
 -17   0   9 1.35000 1.80000   1
  -1   5  13 1.30000 2.21000   1
   1   5 -13 -0.0200 4.19000   1
  -5   5  13 1.09000 1.62000   1
  -5   5  13 2.56000 1.28000   1
   5   5 -13 1.36000 1.83000   1
   5   5 -13 -0.5900 2.31000   1
   5   5 -13 1.48000 1.40000   1
  12   4   0 3.94000 1.81000   1
  12   4   0 -0.3000 1.37000   1
  12   4   0 1.52000 1.54000   1
 -12  -4   0 0.51000 1.71000   1
  12  -4   0 3.20000 1.87000   1
 -12   4   0 1.94000 1.18000   1
   0   4  17 3.15000 2.04000   1
   0   4 -17 1.17000 2.82000   1
 -14   2  17 -0.3100 1.61000   1
  14   2 -17 0.71000 1.19000   1
  14   2 -17 -1.1200 1.49000   1
  14  -2 -17 -0.2000 1.24000   1
  -1   2 -21 2.57000 3.91000   1
  -1  -2 -21 2.55000 2.81000   1
   8   5   3 -0.5200 2.19000   1
  -8  -5  -3 1.65000 2.42000   1
  -8   5  -3 0.83000 1.33000   1
   8   5   3 0.87000 1.25000   1
  -8  -5  -3 2.10000 1.45000   1
  -8   5  -3 -0.4900 4.19000   1
   0   6  -1 -1.7500 2.18000   1
   0  -6  -1 4.21000 2.15000   1
   0   6  -1 -0.5900 1.30000   1
   0  -6   1 -0.1200 2.28000   1
   0   6   1 -1.8900 1.86000   1
  -4   4  18 2.89000 2.00000   1
  -4   4  18 3.61000 1.73000   1
   4   4 -18 -1.7400 2.93000   1
   4   4 -18 1.59000 0.96000   1
  -4   1 -20 0.67000 1.18000   1
  -4   1 -20 6.37000 2.98000   1
  -4  -1 -20 1.55000 2.29000   1
  -9   5   8 7.24000 2.58000   1
   9   5  -8 0.57000 1.06000   1
   9   5  -8 0.30000 1.89000   1
  -9   5   8 0.02000 1.29000   1
   9   5  -8 2.55000 1.94000   1
   6   5   7 0.19000 2.28000   1
  -6   5  -7 -0.1600 1.22000   1
  -6  -5  -7 0.84000 1.38000   1
  -6   5  -7 -1.2800 4.43000   1
  -6  -5  -7 2.20000 2.30000   1
   6   5   7 -0.8600 1.67000   1
  -1   1 -22 2.11000 2.52000   1
  -1  -1 -22 0.64000 2.55000   1
  -1   1 -22 3.13000 1.52000   1
  -4   2 -19 2.00000 3.78000   1
  -4  -2 -19 1.73000 2.71000   1
  -9   2  22 -0.0100 1.53000   1
  -9   2  22 1.87000 1.52000   1
   9   2 -22 1.17000 1.88000   1
  -1   6   0 -0.1800 2.07000   1
  -1   6   0 0.05000 1.72000   1
   1   6   0 -0.8400 1.94000   1
  -1  -6   0 1.01000 2.17000   1
   1  -6   0 0.23000 1.55000   1
   7   4  11 2.03000 1.40000   1
   7   4  11 -1.6000 1.89000   1
  -7  -4 -11 4.69000 2.78000   1
  -7   4 -11 0.18000 5.33000   1
  12   3   6 -0.3300 1.34000   1
 -12  -3  -6 -1.4000 2.14000   1
 -12   3  -6 0.69000 0.96000   1
  -1   6   1 1.92000 2.01000   1
   1   6  -1 0.11000 1.51000   1
   1  -6  -1 4.18000 2.40000   1
   1   6  -1 0.95000 2.58000   1
  -1  -6   1 1.96000 2.56000   1
  14  -1   6 2.80000 1.72000   1
  14   1   6 2.72000 1.56000   1
 -14  -1  -6 2.85000 1.95000   1
 -14   1  -6 0.61000 1.52000   1
 -14   1  -6 0.04000 0.98000   1
  17   0  -6 0.17000 1.39000   1
 -17   0   6 -1.1600 1.24000   1
  -5   4  18 2.07000 1.56000   1
  -5   4  18 -1.1900 1.91000   1
   5   4 -18 1.18000 0.95000   1
   5   4 -18 -0.7500 2.35000   1
  -3   3 -18 3.01000 3.79000   1
  -3  -3 -18 -1.2200 2.75000   1
   3   3  18 0.91000 1.51000   1
  -8  -2 -15 2.80000 2.23000   1
  -8   2 -15 4.42000 4.29000   1
  -8   2 -15 0.90000 0.99000   1
  16   2  -5 1.50000 1.85000   1
  16   2  -5 -0.4800 1.81000   1
  16  -2  -5 -0.3400 1.88000   1
 -16   2   5 2.07000 1.00000   1
 -16   2   5 3.17000 1.47000   1
 -16  -2   5 0.14000 1.77000   1
  -8   4  17 -0.2100 1.94000   1
  -8   4  17 -0.9200 1.37000   1
   8   4 -17 1.95000 1.07000   1
   8   4 -17 -0.8900 2.74000   1
  17   0 -10 -0.5300 1.02000   1
 -17   0  10 1.25000 1.22000   1
  14   1 -19 1.51000 1.44000   1
  14  -1 -19 2.09000 1.17000   1
  14  -1 -19 -0.3300 1.21000   1
 -14   1  19 0.21000 1.54000   1
  14   1 -19 -1.0900 1.13000   1
 -10  -4  -6 -0.9000 2.17000   1
 -10  -4  -6 1.97000 1.01000   1
 -10   4  -6 -2.6600 2.80000   1
  10   4   6 0.72000 1.84000   1
 -10   4  -6 0.66000 1.09000   1
  10   4   6 0.77000 1.17000   1
  10  -4   6 -0.8500 1.63000   1
 -10  -3 -10 0.48000 1.77000   1
  10   3  10 -0.8100 1.32000   1
 -10   3 -10 -0.2600 1.90000   1
 -10   3 -10 0.29000 0.90000   1
  10  -3  10 1.62000 1.40000   1
  10   3  10 0.38000 1.12000   1
  -3   4  18 -2.4600 2.16000   1
  -3   4  18 0.52000 1.53000   1
   3   4 -18 3.90000 2.71000   1
 -15   0  -4 1.26000 1.53000   1
  15   0   4 1.64000 1.57000   1
 -14   3   0 1.14000 1.29000   1
  14  -3   0 3.08000 1.93000   1
  14   3   0 3.09000 1.68000   1
 -14  -3   0 0.83000 1.86000   1
 -14   3   0 1.75000 1.26000   1
  -9   5   0 1.22000 2.40000   1
   9   5   0 1.47000 2.26000   1
   9   5   0 1.07000 1.74000   1
   9  -5   0 2.08000 1.51000   1
  -9   5   0 2.38000 1.52000   1
  -9  -5   0 0.40000 1.77000   1
  -9   5   0 5.46000 4.28000   1
   1  -6   1 2.22000 2.01000   1
   1   6   1 1.63000 1.70000   1
  -1   6  -1 3.04000 2.80000   1
  -1  -6  -1 -1.5000 1.52000   1
  -1   6  -1 -1.1600 1.15000   1
 -11  -1 -12 2.00000 1.99000   1
 -11   1 -12 9.89000 1.89000   1
   0  -6  -2 2.34000 2.53000   1
   0   6  -2 2.63000 1.87000   1
   0  -6   2 1.36000 1.88000   1
   0   6   2 2.23000 1.55000   1
   0   6  -2 3.88000 2.79000   1
   1   2 -22 3.26000 2.93000   1
  -1   2  22 2.76000 2.03000   1
  -8  -3 -13 2.67000 2.56000   1
   8   3  13 0.30000 1.46000   1
  -8   3 -13 0.54000 3.50000   1
  -1   6   2 3.89000 2.05000   1
   1   6  -2 2.77000 2.98000   1
   1  -6  -2 1.89000 2.39000   1
   1   6  -2 -1.3800 1.53000   1
  -1  -6   2 0.34000 1.68000   1
  16  -2 -10 4.07000 1.54000   1
  16   2 -10 -0.1200 1.42000   1
 -16   2  10 0.50000 1.64000   1
  16   2 -10 -1.0400 1.75000   1
 -16  -2  10 0.57000 1.48000   1
  -9  -4  -8 0.30000 1.06000   1
   9   4   8 1.17000 1.92000   1
   9   4   8 -0.0300 1.40000   1
  -9  -4  -8 -1.1600 2.36000   1
  -9   4  -8 2.73000 1.99000   1
  -9   4  -8 2.32000 5.45000   1
  14   3 -13 1.02000 1.80000   1
  14  -3 -13 0.06000 0.93000   1
  14   3 -13 0.17000 1.19000   1
 -14   3  13 0.19000 1.58000   1
 -14  -3  13 0.16000 1.59000   1
  -5   3  21 -1.7500 1.57000   1
  -5   3  21 0.25000 1.53000   1
   5   3 -21 0.24000 1.93000   1
 -15   2  -1 2.20000 1.35000   1
 -15   2  -1 2.22000 1.17000   1
 -15  -2  -1 -1.5000 2.14000   1
  15  -2   1 1.04000 1.87000   1
  15   2   1 0.96000 1.75000   1
   1   1 -23 2.31000 1.55000   1
   1   1 -23 3.83000 2.33000   1
  -1  -1  23 -0.7100 1.68000   1
  -1   1  23 1.67000 1.91000   1
   1  -1 -23 3.99000 2.39000   1
  -2   4 -16 2.04000 3.82000   1
   2   4  16 0.91000 1.97000   1
  -2  -4 -16 -1.2700 3.34000   1
  12  -2 -20 -0.1600 0.96000   1
  12   2 -20 0.03000 1.04000   1
  12  -2 -20 0.92000 1.08000   1
  12   2 -20 1.13000 1.61000   1
 -12   2  20 -0.2700 1.50000   1
  -4   3  21 2.51000 1.61000   1
  -4   3  21 -0.0500 1.71000   1
   4   3 -21 -1.0200 2.82000   1
   7   5 -12 0.30000 1.72000   1
   7   5 -12 0.67000 2.62000   1
   7   5 -12 0.66000 1.50000   1
  -7   5  12 1.22000 2.37000   1
  -7   5  12 1.42000 1.39000   1
 -15   0  18 -0.1400 1.71000   1
  15   0 -18 0.50000 1.46000   1
  15   0 -18 0.22000 1.23000   1
   9   3 -20 -0.6700 2.04000   1
  -9   3  20 -0.1800 1.55000   1
   9   3 -20 1.39000 0.88000   1
  -9   3  20 -0.8400 1.58000   1
   9  -3 -20 0.80000 1.09000   1
 -10   0 -14 1.91000 1.86000   1
 -15   2  15 0.51000 1.66000   1
  15  -2 -15 0.48000 1.43000   1
  15   2 -15 -0.3100 1.51000   1
  15   2 -15 1.29000 1.26000   1
 -17   0   5 0.33000 1.21000   1
  17   0  -5 1.24000 1.80000   1
   2  -6  -1 -0.1300 2.28000   1
   2   6  -1 3.02000 2.04000   1
  -2   6   1 2.01000 1.90000   1
  -2  -6   1 0.36000 1.70000   1
   6   3 -21 2.03000 2.52000   1
  -6   3  21 2.51000 1.61000   1
  -6   3  21 -0.5200 1.71000   1
  -9   1 -15 0.77000 1.35000   1
  -9   1 -15 6.82000 4.12000   1
  -9  -1 -15 2.03000 1.87000   1
  -9   1 -15 0.43000 1.62000   1
  -8   0  24 4.38000 1.48000   1
   8   0 -24 0.93000 1.62000   1
  -1   6  -2 1.47000 1.36000   1
  -1   6  -2 1.96000 2.70000   1
   1   6   2 0.75000 1.45000   1
  -1  -6  -2 1.85000 1.78000   1
   1  -6   2 0.87000 1.62000   1
  -6   4  18 3.61000 1.91000   1
  -6   4  18 -0.5200 1.43000   1
   6   4 -18 2.97000 2.84000   1
   6   4 -18 0.81000 1.03000   1
 -11   4  14 0.13000 1.76000   1
  11   4 -14 0.85000 1.66000   1
  11  -4 -14 2.65000 1.61000   1
  11   4 -14 2.86000 1.36000   1
   2  -6   0 -0.1200 1.73000   1
   2   6   0 2.02000 2.13000   1
  -2   6   0 0.86000 1.83000   1
  -2   6   0 2.47000 2.42000   1
  -2  -6   0 -0.6900 1.88000   1
 -12   2  -9 2.08000 1.35000   1
 -12  -2  -9 5.79000 2.31000   1
  12   2   9 1.53000 1.32000   1
  12  -2   9 0.16000 1.52000   1
  -1   6   3 1.69000 2.19000   1
   1   6  -3 0.17000 1.51000   1
   1  -6  -3 2.47000 1.79000   1
   1   6  -3 -2.1200 2.54000   1
   3   0 -24 0.07000 1.26000   1
  -3   0  24 0.66000 1.47000   1
   2   6  -2 1.15000 1.46000   1
   2   6  -2 0.87000 1.93000   1
  -2   6   2 0.80000 1.43000   1
   2  -6  -2 -1.8200 2.34000   1
  -2  -6   2 3.92000 1.76000   1
  13   0 -21 0.34000 1.04000   1
 -13   0  21 -0.2200 1.41000   1
  13   0 -21 0.42000 1.08000   1
  11   2 -21 0.33000 1.56000   1
  11  -2 -21 0.72000 1.03000   1
  11   2 -21 0.99000 0.89000   1
 -11   2  21 -1.4800 1.67000   1
 -17   0  11 0.65000 1.60000   1
  17   0 -11 2.25000 1.19000   1
  17   0 -11 2.59000 1.43000   1
  16  -1   0 2.29000 1.81000   1
 -16   1   0 2.97000 1.63000   1
  16   1   0 -0.5500 1.73000   1
 -16   1   0 0.79000 1.27000   1
 -16  -1   0 2.61000 2.01000   1
 -16   2   4 0.70000 1.61000   1
 -16   2   4 0.84000 0.99000   1
  16   2  -4 1.40000 1.73000   1
  16  -2  -4 2.26000 1.49000   1
  16   2  -4 1.35000 1.41000   1
 -16  -2   4 -1.6400 1.81000   1
 -13   0  -9 1.42000 1.53000   1
  13   0   9 -0.0300 1.38000   1
   0   6  -3 1.71000 1.41000   1
   0  -6  -3 0.53000 2.26000   1
   0   6  -3 -0.1500 2.80000   1
   0   6   3 -1.2700 2.00000   1
  -8   5  11 0.92000 1.75000   1
   8   5 -11 2.46000 1.35000   1
   8   5 -11 -1.1900 2.31000   1
  -8   5  11 -0.5200 0.94000   1
   8   5 -11 0.99000 1.80000   1
  12   0 -22 1.49000 1.36000   1
  12   0 -22 2.79000 1.44000   1
 -12   0  22 3.56000 1.57000   1
   0   0 -23 0.35000 1.44000   1
   0   0  23 -0.2400 1.33000   1
   0   0 -23 -0.1200 1.26000   1
  -9   5   9 0.11000 1.25000   1
  -9   5   9 0.22000 0.84000   1
  -9   5   9 -0.4800 2.29000   1
   9   5  -9 3.15000 1.98000   1
   9   5  -9 2.70000 2.07000   1
   9   5  -9 1.19000 1.44000   1
  16   0   1 -1.1400 1.80000   1
 -16   0  -1 -1.8800 1.56000   1
  13  -2 -19 0.65000 0.87000   1
  13  -2 -19 1.48000 1.11000   1
  13   2 -19 0.90000 1.48000   1
  13   2 -19 -1.2100 1.06000   1
 -13   2  19 1.67000 1.66000   1
  -2   4  18 -0.4500 1.60000   1
  -2   4  18 -0.3100 1.97000   1
   2   4 -18 2.72000 2.30000   1
  -6   1  24 0.59000 1.39000   1
  -6  -1  24 0.68000 1.62000   1
   0   5  13 3.74000 2.49000   1
   0   5 -13 -0.2200 3.32000   1
   5   1 -24 0.03000 1.92000   1
  -5   1  24 3.94000 1.91000   1
  -5  -1  24 1.07000 1.47000   1
  -4  -5 -10 4.91000 3.03000   1
  -4   5 -10 3.36000 3.55000   1
   4   5  10 0.67000 2.31000   1
   4   5  10 1.50000 1.70000   1
  16  -2 -11 0.53000 1.20000   1
  16   2 -11 0.09000 1.01000   1
 -16  -2  11 1.21000 1.43000   1
 -16   2  11 0.76000 1.54000   1
  16   2 -11 0.59000 1.87000   1
  -6   5  13 2.34000 2.17000   1
  -6   5  13 1.22000 1.27000   1
   6   5 -13 -0.5700 2.17000   1
   6   5 -13 0.25000 1.61000   1
   6   5 -13 3.05000 1.42000   1
   0   3 -20 5.66000 2.50000   1
   0  -3 -20 2.03000 2.91000   1
   0   3  20 -0.0100 1.49000   1
  13  -2   7 0.26000 1.51000   1
 -13   2  -7 0.79000 1.17000   1
 -13  -2  -7 0.81000 1.51000   1
  13   2   7 0.83000 1.33000   1
   2  -6   1 -1.7600 2.35000   1
  -2   6  -1 3.37000 3.36000   1
  -2   6  -1 1.31000 1.72000   1
  -2  -6  -1 1.32000 1.93000   1
   2   6   1 -0.8600 2.19000   1
   3   5  11 2.20000 2.47000   1
  -3   5 -11 4.54000 4.38000   1
  -3  -5 -11 1.35000 3.19000   1
   3   5  11 2.17000 1.93000   1
  11   4   4 0.26000 1.14000   1
 -11  -4  -4 0.50000 2.16000   1
 -11   4  -4 0.42000 1.13000   1
 -11   4  -4 1.68000 2.66000   1
 -11  -4  -4 1.79000 0.97000   1
  11   4   4 1.32000 1.93000   1
  11  -4   4 0.77000 1.77000   1
  -5   2  23 2.15000 2.12000   1
   5   2 -23 2.96000 2.24000   1
  -5  -2  23 0.89000 1.28000   1
  -3   3  21 1.02000 1.28000   1
   3   3 -21 5.61000 3.05000   1
  -3   3  21 0.71000 1.97000   1
  12   4 -12 1.17000 1.52000   1
  12   4 -12 -0.2700 2.15000   1
  12  -4 -12 -0.4700 1.48000   1
 -12   4  12 4.52000 1.49000   1
  -2   6   3 -0.1700 2.17000   1
   2   6  -3 0.78000 2.30000   1
   2   6  -3 2.29000 1.58000   1
  -3   2 -20 -5.3900 3.27000   1
  -3  -2 -20 3.65000 2.55000   1
  16   1 -15 1.43000 1.48000   1
  16  -1 -15 0.15000 1.38000   1
  16   1 -15 0.09000 1.31000   1
  16  -1 -15 1.28000 1.11000   1
 -16   1  15 1.61000 1.80000   1
   6   2 -23 -0.9500 1.96000   1
  -6   2  23 1.09000 1.31000   1
  -6   2  23 1.79000 1.33000   1
  -6  -2  23 -0.8900 1.14000   1
 -10   1  23 0.27000 1.31000   1
  10   1 -23 -0.3700 1.04000   1
  10  -1 -23 2.17000 0.95000   1
  -3   1 -21 -0.3300 2.46000   1
  -3  -1 -21 1.16000 2.32000   1
  -3   1 -21 1.04000 1.22000   1
 -12  -4  -1 0.73000 1.89000   1
  12   4   1 1.12000 1.67000   1
  12   4   1 0.48000 1.50000   1
  12   4   1 -0.1900 1.30000   1
  12  -4   1 2.70000 1.85000   1
 -12   0 -11 2.73000 1.59000   1
   9   5   1 1.60000 2.43000   1
  -9   5  -1 4.37000 1.37000   1
  -9  -5  -1 0.87000 1.77000   1
  -9   5  -1 -0.3500 4.29000   1
   9   5   1 -1.9800 1.28000   1
  17   1  -8 5.46000 1.77000   1
  17  -1  -8 -0.5900 1.93000   1
  17   1  -8 1.06000 2.07000   1
 -17   1   8 0.70000 1.58000   1
 -17  -1   8 0.68000 1.30000   1
 -13   3  16 1.33000 1.82000   1
  13   3 -16 2.57000 1.20000   1
  13  -3 -16 1.27000 1.33000   1
  13   3 -16 -0.9400 2.25000   1
  -2   0 -22 0.22000 1.94000   1
  -2   0 -22 2.73000 1.80000   1
  -9   2 -14 5.24000 4.48000   1
  -9  -2 -14 2.36000 1.97000   1
  -9   2 -14 0.46000 1.01000   1
  14   0   7 2.59000 1.42000   1
 -14   0  -7 0.55000 1.68000   1
 -13   3  -4 0.67000 1.12000   1
  13   3   4 1.13000 1.50000   1
  13  -3   4 2.05000 1.38000   1
 -13  -3  -4 1.92000 2.18000   1
  -1   6  -3 -0.9000 1.75000   1
  -1   6  -3 0.54000 2.97000   1
   1   6   3 5.55000 2.04000   1
  17   0  -4 1.39000 1.80000   1
 -17   0   4 0.56000 1.39000   1
  16   0 -16 0.98000 1.59000   1
  16   0 -16 5.29000 1.64000   1
 -16   0  16 2.98000 2.07000   1
   8   4  10 -0.7000 1.31000   1
   8   4  10 -0.0800 1.86000   1
  -8  -4 -10 4.94000 2.51000   1
  -8   4 -10 4.11000 5.13000   1
  15  -3  -7 0.73000 1.61000   1
  15   3  -7 -0.3900 1.22000   1
  15   3  -7 1.21000 1.39000   1
 -15  -3   7 0.89000 1.48000   1
 -15   3   7 -0.2300 1.29000   1
   7   3 -21 0.17000 1.57000   1
  -7   3  21 0.58000 1.51000   1
 -11  -2 -11 1.72000 1.84000   1
 -11   2 -11 0.48000 1.08000   1
  11   2  11 0.55000 1.08000   1
 -17  -1   7 -0.2500 1.73000   1
  17  -1  -7 1.80000 1.78000   1
  17   1  -7 1.87000 1.66000   1
 -17   1   7 0.22000 1.34000   1
   5   5   9 -0.7400 1.73000   1
   5   5   9 1.81000 2.34000   1
  -5   5  -9 2.01000 4.35000   1
  -5  -5  -9 2.67000 2.75000   1
  -7  -1  24 -0.1800 1.39000   1
   7   1 -24 -0.1700 1.47000   1
  -7   1  24 0.72000 1.84000   1
   1   6  -4 -1.0100 1.96000   1
  -1   6   4 2.59000 1.58000   1
   1   6  -4 -1.0200 2.51000   1
   7   5   6 0.00000 2.18000   1
  -7  -5  -6 2.77000 2.41000   1
  -7   5  -6 -1.8400 4.42000   1
   7   5   6 2.16000 1.92000   1
  -4   2  23 3.63000 2.21000   1
   4   2 -23 2.99000 2.58000   1
  -4  -2  23 1.29000 1.26000   1
   4   1 -24 -0.5800 1.57000   1
  -4  -1  24 3.98000 1.51000   1
   4   1 -24 1.04000 1.88000   1
  -4   1  24 0.49000 1.84000   1
  13  -4  -6 1.60000 1.97000   1
  13   4  -6 -0.5700 1.60000   1
 -13  -4   6 1.53000 1.61000   1
 -13   4   6 1.10000 1.53000   1
  13   4  -6 0.92000 1.61000   1
  17   1  -9 -0.0400 1.47000   1
  17   1  -9 -0.0300 1.48000   1
 -17   1   9 2.70000 1.33000   1
  17  -1  -9 -0.9100 1.43000   1
  -2  -3 -19 6.45000 3.05000   1
  -2   3 -19 1.49000 2.87000   1
   2   3  19 0.35000 1.34000   1
  15  -3  -6 0.31000 1.69000   1
 -15  -3   6 1.59000 1.44000   1
 -15   3   6 0.09000 1.28000   1
  15   3  -6 -0.3000 1.65000   1
  15   3  -8 1.81000 1.91000   1
  15  -3  -8 2.03000 1.58000   1
 -15   3   8 2.20000 1.42000   1
 -15  -3   8 0.04000 1.64000   1
  14   0 -20 2.06000 1.10000   1
 -14   0  20 1.06000 1.87000   1
  14   0 -20 1.22000 1.25000   1
   8   5   4 -0.2600 1.73000   1
  -8   5  -4 -0.4100 4.31000   1
  -8  -5  -4 0.69000 1.97000   1
   8   5   4 2.77000 1.82000   1
 -13  -4   7 0.36000 1.44000   1
  13   4  -7 0.24000 1.69000   1
  13   4  -7 1.98000 1.37000   1
  13  -4  -7 0.08000 1.51000   1
  -2  -5 -12 -0.1500 2.94000   1
   2   5  12 0.54000 2.14000   1
 -13  -4   5 0.05000 1.40000   1
  13   4  -5 0.79000 1.65000   1
  13   4  -5 1.46000 1.71000   1
  13  -4  -5 -0.2100 1.87000   1
  -2   6  -2 0.15000 1.80000   1
   2   6   2 3.42000 2.04000   1
   0   6   4 3.67000 2.17000   1
   0   6  -4 2.16000 1.97000   1
  17   0 -12 -0.3800 1.10000   1
  17   0 -12 1.12000 1.37000   1
   3   6  -1 1.07000 1.96000   1
  -3   6   1 3.07000 2.03000   1
  -3   6   2 -0.1900 1.57000   1
   3   6  -2 5.20000 2.04000   1
  -3   5  14 0.27000 0.94000   1
   3   5 -14 -0.0300 1.23000   1
   2   6  -4 2.09000 1.86000   1
  16  -2  -3 3.31000 1.96000   1
 -16   2   3 0.15000 1.27000   1
  17   1  -6 -0.7000 2.02000   1
  17  -1  -6 0.21000 2.10000   1
 -17   1   6 2.80000 1.15000   1
   9   3  12 0.42000 1.46000   1
  -7   2  23 -0.8700 1.36000   1
  -7   4  18 -1.2400 1.49000   1
  -4   5  14 2.66000 1.49000   1
   4   5 -14 1.06000 1.53000   1
  15  -3  -5 1.26000 1.41000   1
 -15   3   5 2.17000 1.32000   1
  14  -3   1 0.64000 1.65000   1
   3   6   0 2.37000 2.17000   1
  15  -1   4 1.59000 1.70000   1
;
_shelx_hkl_checksum              99355
_shelx_shelxl_version_number     2014/7
_olex2_submission_special_instructions 'No special instructions were received'
loop_
_space_group_symop_operation_xyz
'x, y, z'
'-x, y+1/2, -z+1/2'
'-x, -y, -z'
'x, -y-1/2, z-1/2'
loop_
_atom_site_label
_atom_site_type_symbol
_atom_site_fract_x
_atom_site_fract_y
_atom_site_fract_z
_atom_site_U_iso_or_equiv
_atom_site_adp_type
_atom_site_occupancy
_atom_site_site_symmetry_order
_atom_site_calc_flag
_atom_site_refinement_flags_posn
_atom_site_refinement_flags_adp
S1 S 0.69033(19) -0.2628(7) 0.49848(12) 0.1103(15) Uani 1 1 d . U
O13 O 0.4632(4) 0.4638(17) 0.3492(3) 0.102(2) Uani 1 1 d . U
N2 N 0.6117(5) 0.123(2) 0.4132(3) 0.090(3) Uani 1 1 d . U
N20 N 0.3520(5) 0.559(2) 0.4008(3) 0.103(3) Uani 1 1 d . U
C1 C 0.4644(6) 0.207(2) 0.4494(4) 0.097(3) Uani 1 1 d . U
C2 C 0.5504(7) 0.068(3) 0.4553(4) 0.099(3) Uani 1 1 d . U
C3 C 0.5849(7) -0.130(3) 0.5040(4) 0.098(3) Uani 1 1 d . U
C5 C 0.6836(7) -0.041(3) 0.4341(4) 0.103(3) Uani 1 1 d D U
C6 C 0.7624(7) -0.040(3) 0.4007(6) 0.121(4) Uani 1 1 d D U
H6A H 0.7957 -0.2119 0.4091 0.145 Uiso 1 1 calc R .
H6B H 0.7313 -0.0209 0.3504 0.145 Uiso 1 1 calc R .
C7 C 0.8373(9) 0.170(3) 0.4257(7) 0.129(4) Uani 1 1 d D U
H7A H 0.8739 0.1437 0.4750 0.155 Uiso 1 1 calc R .
H7B H 0.8052 0.3427 0.4201 0.155 Uiso 1 1 calc R .
C8 C 0.9070(10) 0.159(3) 0.3839(8) 0.172(6) Uani 1 1 d D U
H8A H 0.9443 -0.0065 0.3945 0.207 Uiso 1 1 calc R .
H8B H 0.8684 0.1570 0.3343 0.207 Uiso 1 1 calc R .
C9 C 0.9765(11) 0.381(3) 0.3977(8) 0.168(5) Uani 1 1 d D U
H9A H 1.0107 0.4024 0.4476 0.201 Uiso 1 1 calc R .
H9B H 0.9428 0.5464 0.3790 0.201 Uiso 1 1 calc R .
C10 C 1.0468(14) 0.302(5) 0.3603(11) 0.230(9) Uani 1 1 d D U
H10A H 1.1015 0.1955 0.3897 0.276 Uiso 1 1 calc R .
H10B H 1.0136 0.2063 0.3171 0.276 Uiso 1 1 calc R .
C11 C 1.0786(17) 0.562(5) 0.3471(12) 0.253(10) Uani 1 1 d D U
H11A H 1.1207 0.5468 0.3185 0.379 Uiso 1 1 calc GR .
H11B H 1.1149 0.6455 0.3909 0.379 Uiso 1 1 calc GR .
H11C H 1.0216 0.6687 0.3231 0.379 Uiso 1 1 calc GR .
C12 C 0.4263(7) 0.413(3) 0.4018(4) 0.094(3) Uani 1 1 d . U
C14 C 0.4070(7) 0.669(3) 0.3144(4) 0.100(3) Uani 1 1 d . U
C15 C 0.4135(8) 0.794(3) 0.2551(4) 0.109(3) Uani 1 1 d . U
H15 H 0.4607 0.7474 0.2343 0.130 Uiso 1 1 calc R .
C16 C 0.3479(7) 0.982(3) 0.2305(5) 0.107(4) Uani 1 1 d . U
H16 H 0.3486 1.0695 0.1899 0.129 Uiso 1 1 calc R .
C17 C 0.2782(7) 1.059(3) 0.2601(5) 0.112(4) Uani 1 1 d . U
H17 H 0.2346 1.1984 0.2410 0.135 Uiso 1 1 calc R .
C18 C 0.2743(7) 0.927(3) 0.3187(4) 0.108(3) Uani 1 1 d . U
H18 H 0.2276 0.9727 0.3400 0.129 Uiso 1 1 calc R .
C19 C 0.3397(7) 0.728(3) 0.3446(4) 0.102(3) Uani 1 1 d . U
loop_
_atom_site_aniso_label
_atom_site_aniso_U_11
_atom_site_aniso_U_22
_atom_site_aniso_U_33
_atom_site_aniso_U_23
_atom_site_aniso_U_13
_atom_site_aniso_U_12
S1 0.0733(18) 0.202(4) 0.0644(16) -0.0022(17) 0.0350(12) 0.0188(19)
O13 0.070(4) 0.194(7) 0.050(3) 0.004(4) 0.031(3) 0.009(4)
N2 0.053(4) 0.182(7) 0.042(3) -0.011(4) 0.024(3) 0.017(4)
N20 0.065(5) 0.199(8) 0.048(4) 0.009(4) 0.025(3) 0.015(5)
C1 0.060(5) 0.193(8) 0.045(4) 0.001(5) 0.026(4) 0.011(5)
C2 0.064(5) 0.200(8) 0.035(4) -0.008(5) 0.019(4) 0.011(5)
C3 0.058(5) 0.196(9) 0.044(4) -0.006(5) 0.022(4) 0.011(5)
C5 0.077(5) 0.179(9) 0.067(5) -0.011(5) 0.041(4) 0.010(5)
C6 0.096(7) 0.185(11) 0.110(7) -0.002(7) 0.071(6) 0.021(6)
C7 0.104(7) 0.162(11) 0.149(9) 0.011(7) 0.079(7) 0.020(6)
C8 0.119(9) 0.262(15) 0.171(11) 0.015(11) 0.095(9) 0.022(9)
C9 0.137(10) 0.238(14) 0.151(11) 0.064(10) 0.079(9) 0.032(9)
C10 0.146(13) 0.35(2) 0.234(19) 0.019(15) 0.111(13) 0.003(13)
C11 0.208(18) 0.37(2) 0.194(17) 0.058(17) 0.090(14) -0.021(16)
C12 0.056(5) 0.190(8) 0.039(4) -0.002(4) 0.020(4) 0.006(5)
C14 0.065(5) 0.188(8) 0.051(4) 0.004(5) 0.024(4) 0.006(5)
C15 0.072(6) 0.202(10) 0.054(5) 0.016(5) 0.025(4) 0.009(6)
C16 0.069(6) 0.196(10) 0.059(5) 0.008(5) 0.022(4) 0.002(6)
C17 0.071(6) 0.209(10) 0.057(5) 0.010(6) 0.023(4) 0.008(6)
C18 0.068(6) 0.200(9) 0.054(4) 0.002(5) 0.018(4) 0.009(6)
C19 0.063(5) 0.197(8) 0.050(4) 0.006(5) 0.025(4) 0.011(5)
loop_
_atom_type_symbol
_atom_type_description
_atom_type_scat_dispersion_real
_atom_type_scat_dispersion_imag
_atom_type_scat_source
C C 0.0033 0.0016 'International Tables Vol C Tables 4.2.6.8 and 6.1.1.4'
H H 0.0000 0.0000 'International Tables Vol C Tables 4.2.6.8 and 6.1.1.4'
N N 0.0061 0.0033 'International Tables Vol C Tables 4.2.6.8 and 6.1.1.4'
O O 0.0106 0.0060 'International Tables Vol C Tables 4.2.6.8 and 6.1.1.4'
S S 0.1246 0.1234 'International Tables Vol C Tables 4.2.6.8 and 6.1.1.4'
loop_
_geom_angle_atom_site_label_1
_geom_angle_atom_site_label_2
_geom_angle_atom_site_label_3
_geom_angle
_geom_angle_site_symmetry_1
_geom_angle_site_symmetry_3
C3 S1 C5 87.8(5) . .
C14 O13 C12 103.6(7) . .
C5 N2 C2 105.2(8) . .
C12 N20 C19 104.3(8) . .
C2 C1 C3 115.3(10) . 3_656
C2 C1 C12 124.7(9) . .
C12 C1 C3 120.0(9) . 3_656
C1 C2 N2 123.3(10) . .
C3 C2 N2 114.8(9) . .
C3 C2 C1 121.9(8) . .
C1 C3 S1 126.1(9) 3_656 .
C2 C3 S1 111.1(7) . .
C2 C3 C1 122.8(9) . 3_656
N2 C5 S1 121.1(6) . .
N2 C5 C6 119.7(10) . .
C6 C5 S1 119.1(9) . .
C5 C6 H6A 108.6 . .
C5 C6 H6B 108.6 . .
H6A C6 H6B 107.6 . .
C7 C6 C5 114.7(9) . .
C7 C6 H6A 108.6 . .
C7 C6 H6B 108.6 . .
C6 C7 H7A 109.9 . .
C6 C7 H7B 109.9 . .
C6 C7 C8 108.7(10) . .
H7A C7 H7B 108.3 . .
C8 C7 H7A 109.9 . .
C8 C7 H7B 109.9 . .
C7 C8 H8A 108.9 . .
C7 C8 H8B 108.9 . .
H8A C8 H8B 107.7 . .
C9 C8 C7 113.4(12) . .
C9 C8 H8A 108.9 . .
C9 C8 H8B 108.9 . .
C8 C9 H9A 111.2 . .
C8 C9 H9B 111.2 . .
C8 C9 C10 102.9(13) . .
H9A C9 H9B 109.1 . .
C10 C9 H9A 111.2 . .
C10 C9 H9B 111.2 . .
C9 C10 H10A 112.0 . .
C9 C10 H10B 112.0 . .
H10A C10 H10B 109.7 . .
C11 C10 C9 98.8(16) . .
C11 C10 H10A 112.0 . .
C11 C10 H10B 112.0 . .
C10 C11 H11A 109.5 . .
C10 C11 H11B 109.5 . .
C10 C11 H11C 109.5 . .
H11A C11 H11B 109.5 . .
H11A C11 H11C 109.5 . .
H11B C11 H11C 109.5 . .
O13 C12 C1 121.0(9) . .
N20 C12 O13 114.2(9) . .
N20 C12 C1 124.7(8) . .
O13 C14 C15 127.0(9) . .
C19 C14 O13 108.9(9) . .
C19 C14 C15 124.0(11) . .
C14 C15 H15 122.7 . .
C16 C15 C14 114.6(10) . .
C16 C15 H15 122.7 . .
C15 C16 H16 117.7 . .
C15 C16 C17 124.6(10) . .
C17 C16 H16 117.7 . .
C16 C17 H17 120.8 . .
C16 C17 C18 118.4(11) . .
C18 C17 H17 120.8 . .
C17 C18 H18 120.8 . .
C19 C18 C17 118.4(10) . .
C19 C18 H18 120.8 . .
C14 C19 N20 108.9(10) . .
C14 C19 C18 119.9(10) . .
C18 C19 N20 131.3(9) . .
loop_
_geom_bond_atom_site_label_1
_geom_bond_atom_site_label_2
_geom_bond_distance
_geom_bond_site_symmetry_2
S1 C3 1.713(10) .
S1 C5 1.725(12) .
O13 C12 1.379(10) .
O13 C14 1.379(12) .
N2 C2 1.456(11) .
N2 C5 1.297(12) .
N20 C12 1.306(12) .
N20 C19 1.407(13) .
C1 C2 1.408(13) .
C1 C3 1.428(12) 3_656
C1 C12 1.423(15) .
C2 C3 1.399(15) .
C3 C1 1.428(12) 3_656
C5 C6 1.515(8) .
C6 H6A 0.9900 .
C6 H6B 0.9900 .
C6 C7 1.498(9) .
C7 H7A 0.9900 .
C7 H7B 0.9900 .
C7 C8 1.528(9) .
C8 H8A 0.9900 .
C8 H8B 0.9900 .
C8 C9 1.488(9) .
C9 H9A 0.9900 .
C9 H9B 0.9900 .
C9 C10 1.521(9) .
C10 H10A 0.9900 .
C10 H10B 0.9900 .
C10 C11 1.466(10) .
C11 H11A 0.9800 .
C11 H11B 0.9800 .
C11 H11C 0.9800 .
C14 C15 1.407(13) .
C14 C19 1.353(13) .
C15 H15 0.9500 .
C15 C16 1.333(14) .
C16 H16 0.9500 .
C16 C17 1.399(13) .
C17 H17 0.9500 .
C17 C18 1.400(14) .
C18 H18 0.9500 .
C18 C19 1.376(15) .
loop_
_geom_torsion_atom_site_label_1
_geom_torsion_atom_site_label_2
_geom_torsion_atom_site_label_3
_geom_torsion_atom_site_label_4
_geom_torsion
_geom_torsion_site_symmetry_1
_geom_torsion_site_symmetry_4
S1 C5 C6 C7 -101.2(12) . .
O13 C14 C15 C16 177.9(10) . .
O13 C14 C19 N20 0.3(13) . .
O13 C14 C19 C18 -179.7(9) . .
N2 C2 C3 S1 -1.9(12) . .
N2 C2 C3 C1 178.7(9) . 3_656
N2 C5 C6 C7 79.7(14) . .
C1 C2 C3 S1 179.8(8) . .
C1 C2 C3 C1 0.5(18) . 3_656
C2 N2 C5 S1 0.5(12) . .
C2 N2 C5 C6 179.6(9) . .
C2 C1 C12 O13 11.0(16) . .
C2 C1 C12 N20 -173.0(10) . .
C3 S1 C5 N2 -1.4(9) . .
C3 S1 C5 C6 179.6(9) . .
C3 C1 C2 N2 -178.6(9) 3_656 .
C3 C1 C2 C3 -0.5(17) 3_656 .
C3 C1 C12 O13 -169.6(9) 3_656 .
C3 C1 C12 N20 6.4(17) 3_656 .
C5 S1 C3 C1 -179.0(11) . 3_656
C5 S1 C3 C2 1.7(8) . .
C5 N2 C2 C1 179.1(9) . .
C5 N2 C2 C3 0.9(12) . .
C5 C6 C7 C8 -175.7(11) . .
C6 C7 C8 C9 172.1(13) . .
C7 C8 C9 C10 170.8(14) . .
C8 C9 C10 C11 153.7(17) . .
C12 O13 C14 C15 -178.8(10) . .
C12 O13 C14 C19 -1.5(11) . .
C12 N20 C19 C14 1.1(12) . .
C12 N20 C19 C18 -178.9(12) . .
C12 C1 C2 N2 0.9(16) . .
C12 C1 C2 C3 179.0(10) . .
C14 O13 C12 N20 2.3(12) . .
C14 O13 C12 C1 178.7(9) . .
C14 C15 C16 C17 1.2(17) . .
C15 C14 C19 N20 177.7(10) . .
C15 C14 C19 C18 -2.3(18) . .
C15 C16 C17 C18 -1.9(18) . .
C16 C17 C18 C19 0.5(17) . .
C17 C18 C19 N20 -178.6(11) . .
C17 C18 C19 C14 1.5(17) . .
C19 N20 C12 O13 -2.1(12) . .
C19 N20 C12 C1 -178.4(10) . .
C19 C14 C15 C16 1.0(17) . .
