#------------------------------------------------------------------------------
#$Date: 2016-08-05 06:44:21 +0300 (Fri, 05 Aug 2016) $
#$Revision: 185002 $
#$URL: file:///home/coder/svn-repositories/cod/cif/1/54/31/1543124.cif $
#------------------------------------------------------------------------------
#
# This file is available in the Crystallography Open Database (COD),
# http://www.crystallography.net/
#
# All data on this site have been placed in the public domain by the
# contributors.
#
data_1543124
loop_
_publ_author_name
'Hu, Zhiyong'
'Tong, Xiaofeng'
'Liu, Guixia'
_publ_section_title
;
 Rhodium(III)-Catalyzed Cascade Cyclization/Electrophilic Amidation for
 the Synthesis of 3-Amidoindoles and 3-Amidofurans.
;
_journal_issue                   9
_journal_name_full               'Organic letters'
_journal_page_first              2058
_journal_page_last               2061
_journal_paper_doi               10.1021/acs.orglett.6b00689
_journal_volume                  18
_journal_year                    2016
_chemical_formula_sum            'C29 H21 Br N2 O3 S'
_chemical_formula_weight         557.45
_space_group_crystal_system      triclinic
_space_group_IT_number           1
_space_group_name_Hall           'P 1'
_space_group_name_H-M_alt        'P 1'
_symmetry_space_group_name_Hall  'P 1'
_symmetry_space_group_name_H-M   'P 1'
_atom_sites_solution_hydrogens   geom
_audit_creation_method           SHELXL-2014/7
_cell_angle_alpha                106.400(2)
_cell_angle_beta                 94.409(2)
_cell_angle_gamma                93.758(2)
_cell_formula_units_Z            2
_cell_length_a                   9.8056(9)
_cell_length_b                   10.1342(9)
_cell_length_c                   13.2604(13)
_cell_measurement_reflns_used    2329
_cell_measurement_temperature    130
_cell_measurement_theta_max      25.60
_cell_measurement_theta_min      2.51
_cell_volume                     1255.1(2)
_computing_structure_refinement  'SHELXL-2014/7 (Sheldrick, 2014)'
_diffrn_ambient_temperature      130
_diffrn_measured_fraction_theta_full 0.999
_diffrn_measured_fraction_theta_max 0.988
_diffrn_measurement_device_type  'Bruker APEX-II CCD'
_diffrn_measurement_method       '\f and \w scans'
_diffrn_radiation_type           MoK\a
_diffrn_radiation_wavelength     0.71073
_diffrn_reflns_av_R_equivalents  0.0286
_diffrn_reflns_av_unetI/netI     0.0991
_diffrn_reflns_Laue_measured_fraction_full 0.999
_diffrn_reflns_Laue_measured_fraction_max 0.988
_diffrn_reflns_limit_h_max       14
_diffrn_reflns_limit_h_min       -13
_diffrn_reflns_limit_k_max       13
_diffrn_reflns_limit_k_min       -14
_diffrn_reflns_limit_l_max       18
_diffrn_reflns_limit_l_min       -19
_diffrn_reflns_number            12820
_diffrn_reflns_point_group_measured_fraction_full 0.682
_diffrn_reflns_point_group_measured_fraction_max 0.647
_diffrn_reflns_theta_full        25.242
_diffrn_reflns_theta_max         30.636
_diffrn_reflns_theta_min         1.609
_exptl_absorpt_coefficient_mu    1.755
_exptl_absorpt_correction_T_max  0.7461
_exptl_absorpt_correction_T_min  0.6628
_exptl_absorpt_correction_type   multi-scan
_exptl_absorpt_process_details
;
SADABS-2008/1 (Bruker,2008) was used for absorption correction.
wR2(int) was 0.0577 before and 0.0420 after correction.
The Ratio of minimum to maximum transmission is 0.8884.
The \l/2 correction factor is 0.0015.
;
_exptl_crystal_colour            COLOURLESS
_exptl_crystal_density_diffrn    1.475
_exptl_crystal_description       BLOCK
_exptl_crystal_F_000             568
_exptl_crystal_size_max          0.15
_exptl_crystal_size_mid          0.12
_exptl_crystal_size_min          0.08
_refine_diff_density_max         0.702
_refine_diff_density_min         -0.396
_refine_diff_density_rms         0.088
_refine_ls_abs_structure_details
;
 Classical Flack method preferred over Parsons because s.u. lower.
;
_refine_ls_abs_structure_Flack   0.014(9)
_refine_ls_extinction_method     none
_refine_ls_goodness_of_fit_ref   0.946
_refine_ls_hydrogen_treatment    constr
_refine_ls_matrix_type           full
_refine_ls_number_parameters     651
_refine_ls_number_reflns         10042
_refine_ls_number_restraints     3
_refine_ls_restrained_S_all      0.946
_refine_ls_R_factor_all          0.0931
_refine_ls_R_factor_gt           0.0517
_refine_ls_shift/su_max          0.001
_refine_ls_shift/su_mean         0.000
_refine_ls_structure_factor_coef Fsqd
_refine_ls_weighting_details
'w=1/[\s^2^(Fo^2^)+(0.0482P)^2^] where P=(Fo^2^+2Fc^2^)/3'
_refine_ls_weighting_scheme      calc
_refine_ls_wR_factor_gt          0.1041
_refine_ls_wR_factor_ref         0.1182
_reflns_Friedel_coverage         0.310
_reflns_Friedel_fraction_full    0.364
_reflns_Friedel_fraction_max     0.307
_reflns_number_gt                6561
_reflns_number_total             10042
_reflns_threshold_expression     'I > 2\s(I)'
_cod_data_source_file            ol6b00689_si_002.cif
_cod_data_source_block           shelx
_cod_depositor_comments          'Adding full bibliography for 1543124.cif.'
_cod_database_code               1543124
_shelx_shelxl_version_number     2014/7
_shelx_space_group_comment
;
The symmetry employed for this shelxl refinement is uniquely defined
by the following loop, which should always be used as a source of
symmetry information in preference to the above space-group names.
They are only intended as comments.
;
_shelx_res_file
;

    shelx.res created by SHELXL-2014/7

TITL shelxt_b.res in P1
CELL  0.71073   9.8056  10.1342  13.2604  106.400   94.409   93.758
ZERR     2.00   0.0009   0.0009   0.0013    0.002    0.002    0.002
LATT  -1
SFAC  C    H    BR   N    O    S
UNIT  58 42 2 4 6 2
MERG   2
FMAP   2
PLAN   20
ACTA
BOND   $H
CONF
L.S.   5
WGHT    0.048200
FVAR       0.14898
BR1   3    0.772373   -0.126702    0.561571    11.00000    0.08621    0.03252 =
         0.03658    0.02325    0.00560    0.01221
S1    6    0.731599    0.105915    0.089241    11.00000    0.02212    0.02494 =
         0.01912    0.00467    0.00205    0.00100
O1    5    0.698326   -0.012108    0.124099    11.00000    0.03233    0.02348 =
         0.02548    0.00726    0.00551   -0.00104
O2    5    0.669909    0.114799   -0.009279    11.00000    0.02985    0.03833 =
         0.01965    0.00613   -0.00050    0.00294
O3    5    0.577966    0.481871    0.485123    11.00000    0.03948    0.04829 =
         0.03361    0.01313    0.00927    0.01195
N1    4    0.685901    0.244259    0.181647    11.00000    0.02235    0.02307 =
         0.01367    0.00353    0.00226    0.00409
C66   1    0.755579    0.408739    0.334987    11.00000    0.02218    0.02778 =
         0.01361    0.00516   -0.00133    0.00345
N3    4    0.794184    0.473982    0.442692    11.00000    0.03573    0.02152 =
         0.02141    0.00439    0.00294    0.00324
AFIX  43
H3A   2    0.879955    0.494935    0.464272    11.00000   -1.20000
AFIX   0
C1    1    0.761291   -0.008693    0.472773    11.00000    0.04796    0.02287 =
         0.03014    0.01126    0.00761    0.01320
C2    1    0.645383   -0.022952    0.404528    11.00000    0.04281    0.02041 =
         0.03004    0.01423    0.00699    0.00029
AFIX  43
H2    2    0.574116   -0.089964    0.400685    11.00000   -1.20000
AFIX   0
C3    1    0.636835    0.065879    0.340671    11.00000    0.03368    0.02431 =
         0.02181    0.01099    0.00202    0.00383
AFIX  43
H3    2    0.559052    0.058482    0.293944    11.00000   -1.20000
AFIX   0
C4    1    0.743968    0.164453    0.347134    11.00000    0.02293    0.01825 =
         0.01963    0.00339    0.00386    0.00558
C5    1    0.734118    0.270092    0.289350    11.00000    0.01706    0.01891 =
         0.01917    0.00573   -0.00002    0.00291
C6    1    0.910462    0.137517    0.097012    11.00000    0.02614    0.02152 =
         0.01635    0.00662    0.00226    0.00476
C7    1    0.993705    0.067881    0.150405    11.00000    0.03187    0.02543 =
         0.02090    0.00861    0.00745    0.00523
AFIX  43
H7    2    0.955656    0.002471    0.179706    11.00000   -1.20000
AFIX   0
C8    1    1.133526    0.098073    0.158811    11.00000    0.03255    0.02892 =
         0.02192    0.00804    0.00087    0.00653
AFIX  43
H8    2    1.190102    0.052319    0.194561    11.00000   -1.20000
AFIX   0
C9    1    1.192329    0.194347    0.115709    11.00000    0.02144    0.02715 =
         0.02672    0.00049    0.00259    0.00325
C10   1    1.107665    0.261118    0.062535    11.00000    0.02797    0.03046 =
         0.03676    0.01610    0.00375   -0.00002
AFIX  43
H10   2    1.146184    0.325861    0.032814    11.00000   -1.20000
AFIX   0
C11   1    0.966519    0.233695    0.052520    11.00000    0.02752    0.03549 =
         0.03632    0.01728    0.00237    0.00409
AFIX  43
H11   2    0.910274    0.279297    0.016403    11.00000   -1.20000
AFIX   0
C12   1    1.345460    0.223134    0.124140    11.00000    0.03071    0.02928 =
         0.03488    0.00331   -0.00277    0.00303
AFIX 137
H12A  2    1.387350    0.181219    0.173778    11.00000   -1.50000
H12B  2    1.369435    0.321103    0.147833    11.00000   -1.50000
H12C  2    1.377586    0.185503    0.056204    11.00000   -1.50000
AFIX   0
C13   1    0.685636    0.375630    0.161126    11.00000    0.02344    0.02502 =
         0.02417    0.01273    0.00409    0.00414
C14   1    0.724263    0.476624    0.255962    11.00000    0.02241    0.02706 =
         0.02454    0.01432    0.00498    0.00487
C15   1    0.702539    0.504150    0.511910    11.00000    0.03785    0.01776 =
         0.03250    0.01376    0.00756    0.00915
C16   1    0.762816    0.567366    0.626616    11.00000    0.07274    0.01922 =
         0.01775    0.00617    0.00162   -0.00335
C17   1    0.784432    0.455234    0.680993    11.00000    0.03487    0.02974 =
         0.01890    0.00559    0.00255    0.00537
C18   1    0.675561    0.384963    0.707972    11.00000    0.03133    0.03758 =
         0.03439    0.01434    0.00078    0.00251
AFIX  43
H18   2    0.586985    0.405394    0.691497    11.00000   -1.20000
AFIX   0
C19   1    0.693106    0.284929    0.758762    11.00000    0.04082    0.03960 =
         0.04048    0.02451    0.00055   -0.00694
AFIX  43
H19   2    0.616815    0.237560    0.774291    11.00000   -1.20000
AFIX   0
C20   1    0.822446    0.255044    0.786435    11.00000    0.05789    0.04361 =
         0.02983    0.01681   -0.00230    0.00500
AFIX  43
H20   2    0.835089    0.189528    0.822443    11.00000   -1.20000
AFIX   0
C21   1    0.932427    0.323540    0.760006    11.00000    0.04680    0.05729 =
         0.04603    0.01961   -0.00635    0.01127
AFIX  43
H21   2    1.020713    0.303128    0.777359    11.00000   -1.20000
AFIX   0
C22   1    0.914716    0.423999    0.707229    11.00000    0.03678    0.04550 =
         0.04543    0.02286    0.00856   -0.00458
AFIX  43
H22   2    0.990856    0.469602    0.689900    11.00000   -1.20000
AFIX   0
C23   1    0.727827    0.615948    0.260383    11.00000    0.02903    0.01812 =
         0.03200    0.01154    0.00506    0.00697
AFIX  43
H23   2    0.752586    0.684126    0.323973    11.00000   -1.20000
AFIX   0
C24   1    0.694488    0.650633    0.170137    11.00000    0.02838    0.03566 =
         0.04911    0.02628    0.00720    0.00795
AFIX  43
H24   2    0.698600    0.743158    0.171746    11.00000   -1.20000
AFIX   0
C25   1    0.654005    0.547789    0.074808    11.00000    0.02817    0.04750 =
         0.03688    0.03086    0.00071    0.00395
AFIX  43
H25   2    0.630270    0.573711    0.014317    11.00000   -1.20000
AFIX   0
C26   1    0.648376    0.408225    0.068243    11.00000    0.02432    0.03458 =
         0.02981    0.01963   -0.00345    0.00115
AFIX  43
H26   2    0.621117    0.340125    0.005040    11.00000   -1.20000
AFIX   0
C27   1    0.859948    0.173186    0.414573    11.00000    0.02937    0.01899 =
         0.02641    0.00578   -0.00054   -0.00007
AFIX  43
H27   2    0.933108    0.237487    0.416772    11.00000   -1.20000
AFIX   0
C28   1    0.869540    0.086954    0.479819    11.00000    0.04340    0.01854 =
         0.03099    0.00626   -0.00568    0.00673
AFIX  43
H28   2    0.947148    0.094234    0.526692    11.00000   -1.20000
AFIX   0
BR2   3    0.286280    1.128083    0.435619    11.00000    0.07951    0.03235 =
         0.03338    0.02183    0.01046    0.01700
S2    6    0.266846    0.886739    0.903937    11.00000    0.02189    0.02377 =
         0.01728    0.00438    0.00377    0.00208
O4    5    0.327368    0.882647    1.004147    11.00000    0.02610    0.03305 =
         0.01982    0.00504    0.00142    0.00265
O5    5    0.297280    1.003198    0.867088    11.00000    0.03158    0.01831 =
         0.02596    0.00217    0.00894   -0.00237
O6    5    0.081635    0.493739    0.505166    11.00000    0.03664    0.03362 =
         0.02967    0.01205   -0.00327   -0.00343
N4    4    0.319325    0.751442    0.816940    11.00000    0.01864    0.02344 =
         0.02075    0.01006    0.00348    0.00679
N5    4    0.309158    0.527104    0.548962    11.00000    0.03692    0.01820 =
         0.02190    0.00864    0.00363    0.00524
AFIX  43
H5    2    0.388763    0.516138    0.526407    11.00000   -1.20000
AFIX   0
C29   1    0.290729    1.007973    0.521847    11.00000    0.04916    0.01734 =
         0.01806    0.00747    0.01033    0.01146
C30   1    0.402559    1.022840    0.597343    11.00000    0.03781    0.02590 =
         0.02493    0.00513    0.00812   -0.00134
AFIX  43
H30   2    0.474434    1.090658    0.605153    11.00000   -1.20000
AFIX   0
C31   1    0.404310    0.935932    0.659417    11.00000    0.02764    0.02526 =
         0.02355    0.00541    0.00098    0.00395
AFIX  43
H31   2    0.478492    0.945315    0.709803    11.00000   -1.20000
AFIX   0
C32   1    0.298430    0.834018    0.649359    11.00000    0.02577    0.02152 =
         0.01765    0.01024    0.00502    0.00507
C33   1    0.303556    0.727017    0.704112    11.00000    0.01871    0.02644 =
         0.01543    0.00897    0.00438    0.00623
C34   1    0.088641    0.852224    0.894899    11.00000    0.02087    0.02456 =
         0.02241    0.00364    0.00461    0.00256
C35   1    0.033801    0.757746    0.943877    11.00000    0.02369    0.02948 =
         0.03201    0.01744   -0.00127    0.00479
AFIX  43
H35   2    0.091650    0.715499    0.981630    11.00000   -1.20000
AFIX   0
C36   1   -0.105224    0.728207    0.935736    11.00000    0.02662    0.03434 =
         0.03634    0.01887    0.00674   -0.00007
AFIX  43
H36   2   -0.141543    0.663279    0.966227    11.00000   -1.20000
AFIX   0
C37   1   -0.193656    0.794252    0.882190    11.00000    0.02371    0.02958 =
         0.01772    0.00445    0.00250    0.00540
C38   1   -0.137395    0.888080    0.836191    11.00000    0.02047    0.02878 =
         0.02577    0.00771    0.00113    0.01106
AFIX  43
H38   2   -0.195037    0.934161    0.801514    11.00000   -1.20000
AFIX   0
C39   1    0.002049    0.914898    0.840528    11.00000    0.03358    0.02347 =
         0.03004    0.01502    0.00756    0.00788
AFIX  43
H39   2    0.038112    0.975878    0.806443    11.00000   -1.20000
AFIX   0
C40   1   -0.346718    0.763647    0.876425    11.00000    0.02332    0.03279 =
         0.03776    0.01246   -0.00667   -0.00367
AFIX 137
H40A  2   -0.375659    0.791823    0.946272    11.00000   -1.50000
H40B  2   -0.370589    0.666318    0.845769    11.00000   -1.50000
H40C  2   -0.391594    0.813265    0.833555    11.00000   -1.50000
AFIX   0
C41   1    0.321980    0.618292    0.834764    11.00000    0.01692    0.02964 =
         0.01946    0.01136    0.00314    0.00490
C42   1    0.310711    0.518851    0.737699    11.00000    0.02008    0.02088 =
         0.02491    0.01006    0.00541    0.00439
C43   1    0.302799    0.590231    0.658490    11.00000    0.01849    0.01635 =
         0.02501    0.01037    0.00362   -0.00127
C44   1    0.199272    0.484124    0.479526    11.00000    0.03707    0.01997 =
         0.02893    0.01508    0.00147    0.00089
C45   1    0.229953    0.424433    0.364858    11.00000    0.06217    0.02835 =
         0.01920    0.00834    0.00993    0.01084
C46   1    0.226272    0.540538    0.309972    11.00000    0.04993    0.01486 =
         0.01742    0.00517    0.00614    0.00406
C47   1    0.103735    0.575720    0.272771    11.00000    0.03613    0.04985 =
         0.03160    0.01519    0.00097   -0.00611
AFIX  43
H47   2    0.021933    0.531603    0.282914    11.00000   -1.20000
AFIX   0
C48   1    0.099953    0.674627    0.221012    11.00000    0.03959    0.06101 =
         0.03336    0.02545   -0.00071    0.01870
AFIX  43
H48   2    0.015971    0.696311    0.195371    11.00000   -1.20000
AFIX   0
C49   1    0.219617    0.742051    0.206740    11.00000    0.05544    0.02302 =
         0.03192    0.01582    0.00575    0.00499
AFIX  43
H49   2    0.216703    0.811105    0.173193    11.00000   -1.20000
AFIX   0
C50   1    0.342219    0.707788    0.241666    11.00000    0.04143    0.02685 =
         0.04052    0.01072    0.00395   -0.00725
AFIX  43
H50   2    0.423353    0.750993    0.229470    11.00000   -1.20000
AFIX   0
C51   1    0.347391    0.608459    0.295600    11.00000    0.03065    0.03600 =
         0.02922    0.00762   -0.00167    0.00683
AFIX  43
H51   2    0.431494    0.587757    0.321832    11.00000   -1.20000
AFIX   0
C52   1    0.312582    0.378598    0.730940    11.00000    0.02589    0.03535 =
         0.03593    0.01580    0.00033    0.00508
AFIX  43
H52   2    0.304841    0.310978    0.666109    11.00000   -1.20000
AFIX   0
C53   1    0.326645    0.344976    0.826320    11.00000    0.03166    0.03157 =
         0.04055    0.02695    0.00421    0.00290
AFIX  43
H53   2    0.327461    0.252802    0.825030    11.00000   -1.20000
AFIX   0
C54   1    0.339265    0.445373    0.921789    11.00000    0.02813    0.04522 =
         0.03354    0.02950    0.00525    0.00925
AFIX  43
H54   2    0.349244    0.419271    0.983602    11.00000   -1.20000
AFIX   0
C55   1    0.337621    0.583331    0.928932    11.00000    0.02659    0.03940 =
         0.02244    0.01444    0.00332    0.00872
AFIX  43
H55   2    0.346597    0.650480    0.994039    11.00000   -1.20000
AFIX   0
C56   1    0.187406    0.821022    0.573465    11.00000    0.03214    0.02093 =
         0.02189    0.00309   -0.00329    0.00223
AFIX  43
H56   2    0.115269    0.753566    0.565950    11.00000   -1.20000
AFIX   0
C57   1    0.183889    0.908506    0.508804    11.00000    0.05153    0.03285 =
         0.02133    0.01289   -0.01019    0.01035
AFIX  43
H57   2    0.110441    0.899436    0.457863    11.00000   -1.20000
AFIX   0
HKLF    4

REM  shelxt_b.res in P1
REM R1 =  0.0517 for    6561 Fo > 4sig(Fo)  and  0.0931 for all   10042 data
REM    651 parameters refined using      3 restraints

END

WGHT      0.0482      0.0000

REM Highest difference peak  0.702,  deepest hole -0.396,  1-sigma level  0.088
Q1    1   0.4005  1.1604  0.4505  11.00000  0.05    0.70
Q2    1   0.6779 -0.1509  0.5461  11.00000  0.05    0.67
Q3    1   0.1552  0.3630  0.3378  11.00000  0.05    0.63
Q4    1   0.8251  0.1187  0.0942  11.00000  0.05    0.60
Q5    1   0.3383  0.3838  0.3485  11.00000  0.05    0.58
Q6    1   0.1764  1.1245  0.4395  11.00000  0.05    0.57
Q7    1   0.7134  0.6227  0.6708  11.00000  0.05    0.56
Q8    1   0.6797  0.6293  0.6521  11.00000  0.05    0.55
Q9    1   0.8800  0.6355  0.6581  11.00000  0.05    0.55
Q10   1   0.9035 -0.1175  0.5629  11.00000  0.05    0.52
Q11   1   0.1569  0.8723  0.8996  11.00000  0.05    0.47
Q12   1   0.9625  0.4837  0.4901  11.00000  0.05    0.46
Q13   1   0.4631  0.4786  0.5046  11.00000  0.05    0.45
Q14   1   0.4773  0.5635  0.5324  11.00000  0.05    0.45
Q15   1   0.8811  0.5671  0.6115  11.00000  0.05    0.41
Q16   1   0.2362  1.1931  0.5000  11.00000  0.05    0.40
Q17   1   0.8294 -0.1683  0.5155  11.00000  0.05    0.40
Q18   1   0.6581  0.4493  0.4258  11.00000  0.05    0.38
Q19   1   0.8530  0.5005  0.5174  11.00000  0.05    0.38
Q20   1   0.8335  0.5929  0.5948  11.00000  0.05    0.37
;
_shelx_res_checksum              32042
_shelx_hkl_file
;
  -2   0   0 1000.00   36.68
  -2   0   0  986.16   32.54
  -2   0   0  987.40   35.12
  -3   0   0  258.80    9.28
  -3   0   0  261.79    8.59
  -4   0   0   44.19    1.57
  -4   0   0   45.52    1.84
  -4   0   0   44.69    1.72
  -5   0   0   79.18    2.88
   5   0   0   74.04    3.03
  -6   0   0   11.33    0.69
   6   0   0   12.27    0.77
  -7   0   0    8.59    0.63
   7   0   0    9.25    0.77
  -8   0   0    3.08    0.48
   8   0   0    5.14    0.67
  -9   0   0    8.88    0.74
   9   0   0    9.72    0.94
 -10   0   0    2.31    0.52
  10   0   0    1.81    0.67
  11   0   0    1.23    0.72
  12   0   0    0.03    0.75
  13   0   0    1.58    0.92
  14  -1   0    0.07    0.89
  13  -1   0    2.35    0.94
  12  -1   0   -0.09    0.69
  11  -1   0    3.64    0.79
  10  -1   0    0.92    0.63
   9  -1   0    4.10    0.71
  -9   1   0    4.81    0.54
   8  -1   0   10.98    0.96
  -8   1   0   13.30    0.78
   7  -1   0   11.12    0.81
  -7   1   0    8.18    0.61
   6  -1   0    6.15    0.58
  -6   1   0    5.71    0.46
  -6   1   0    5.37    0.57
  -5   1   0   21.45    1.01
  -5   1   0   18.67    0.85
  -4   1   0    0.39    0.23
  -4   1   0    0.47    0.16
  -3   1   0   24.59    0.93
  -3   1   0   23.63    1.05
  -2   1   0   14.49    0.55
  -2   1   0   14.26    0.65
   1  -1   0   10.46    0.40
   0  -1   0   14.24    0.52
   0  -1   0   15.14    0.55
   0  -1   0   13.92    0.56
   0   1   0   14.99    0.56
  -1  -1   0   41.21    1.54
  -1  -1   0   40.98    1.41
   1   1   0   43.41    1.57
  -2  -1   0   18.03    0.78
  -2  -1   0   18.08    0.68
   2   1   0   19.75    0.78
  -3  -1   0    3.65    0.30
  -3  -1   0    3.02    0.22
   3   1   0    3.40    0.29
  -4  -1   0   84.03    2.82
  -4  -1   0   84.81    3.10
   4   1   0   80.09    3.21
  -5  -1   0    0.53    0.20
  -5  -1   0    0.51    0.25
   5   1   0    2.50    0.35
  -6  -1   0   10.03    0.55
  -6  -1   0    9.77    0.64
   6   1   0    9.43    0.72
  -7  -1   0   25.19    1.18
  -7  -1   0   24.82    1.00
   7   1   0   20.18    1.20
  -8  -1   0   18.07    0.99
   8   1   0   16.58    1.12
  -9  -1   0   10.68    0.85
   9   1   0    9.46    0.90
 -10  -1   0    3.94    0.65
  10   1   0    4.04    0.75
 -11  -1   0    0.47    0.54
  11   1   0    0.74    0.65
  12   1   0    0.91    0.75
  13   1   0   -0.15    0.74
  14  -2   0    1.75    1.01
  13  -2   0    1.16    0.89
  12  -2   0    0.49    0.76
  11  -2   0    0.80    0.68
  10  -2   0    4.00    0.78
  10  -2   0    4.68    0.61
   9  -2   0    2.92    0.67
   9  -2   0    2.49    0.48
   8  -2   0    2.25    0.57
  -8   2   0    2.17    0.36
   7  -2   0   11.24    0.85
  -7   2   0    9.30    0.81
  -7   2   0   10.04    0.60
  -6   2   0    2.75    0.29
  -6   2   0    3.31    0.49
  -5   2   0   25.78    1.06
  -5   2   0   28.40    1.28
   4  -2   0    8.88    0.49
  -4   2   0    9.31    0.58
  -4   2   0    8.60    0.40
  -3   2   0   10.15    0.56
  -3   2   0    9.75    0.39
   2  -2   0   12.37    0.58
  -2   2   0   12.60    0.60
   1  -2   0    3.23    0.20
   1  -2   0    3.32    0.26
   0  -2   0   35.86    1.28
   0  -2   0   36.65    1.35
   0   2   0   36.01    1.37
  -1  -2   0   71.03    2.63
  -1  -2   0   71.23    2.43
   1   2   0   71.97    2.66
  -2  -2   0    7.88    0.39
  -2  -2   0    8.18    0.47
   2   2   0    8.78    0.40
  -3  -2   0   31.39    1.28
  -3  -2   0   30.46    1.12
   3   2   0   30.83    1.25
  -4  -2   0    6.54    0.40
  -4  -2   0    7.21    0.51
   4   2   0    8.11    0.47
  -5  -2   0   19.16    0.83
  -5  -2   0   18.93    0.98
   5   2   0   23.10    0.99
  -6  -2   0    6.09    0.58
  -6  -2   0    6.27    0.44
   6   2   0    6.74    0.58
  -7  -2   0    8.68    0.73
  -7  -2   0    9.90    0.62
   7   2   0    9.83    0.76
  -8  -2   0    5.26    0.47
  -8  -2   0    4.56    0.60
   8   2   0    5.53    0.66
  -9  -2   0    4.27    0.65
   9   2   0    4.61    0.70
 -10  -2   0    0.18    0.52
  10   2   0    0.60    0.59
 -11  -2   0    0.72    0.59
  11   2   0    0.97    0.64
 -12  -2   0    2.68    0.73
  12   2   0    1.76    0.75
  13   2   0    1.52    0.84
  13  -3   0   -0.56    0.79
  12  -3   0    3.10    0.84
  11  -3   0   -0.76    0.68
  10  -3   0    1.72    0.71
  10  -3   0    2.32    0.55
   9  -3   0    1.65    0.61
   9  -3   0    1.63    0.48
   8  -3   0    1.33    0.47
   8  -3   0    1.10    0.53
   7  -3   0    6.89    0.71
   7  -3   0    6.48    0.59
  -7   3   0    5.52    0.68
  -7   3   0    5.00    0.41
   6  -3   0    8.85    0.69
  -6   3   0   10.28    0.48
  -6   3   0   10.34    0.77
   5  -3   0    5.90    0.49
  -5   3   0    5.02    0.53
   4  -3   0   39.97    1.52
  -4   3   0   40.04    1.71
   3  -3   0    2.27    0.29
  -3   3   0    1.50    0.27
   2  -3   0   76.51    2.71
  -2   3   0   79.27    3.00
   1  -3   0    5.88    0.32
   1  -3   0    6.34    0.39
  -1   3   0    5.80    0.34
   0  -3   0  114.15    3.87
   0  -3   0  115.67    4.14
   0   3   0  112.82    4.25
  -1  -3   0   10.05    0.48
  -1  -3   0    8.65    0.50
  -2  -3   0   33.87    1.32
  -2  -3   0   33.05    1.19
   2   3   0   30.14    1.23
  -3  -3   0   58.58    2.01
  -3  -3   0   57.09    2.23
   3   3   0   55.62    2.19
  -4  -3   0   24.75    0.99
  -4  -3   0   24.05    1.15
   4   3   0   26.18    1.09
  -5  -3   0    8.15    0.49
  -5  -3   0    8.10    0.65
   5   3   0    7.46    0.55
  -6  -3   0    6.65    0.50
  -6  -3   0    6.74    0.65
   6   3   0    6.25    0.57
  -7  -3   0    1.36    0.33
  -7  -3   0    0.65    0.45
   7   3   0    1.00    0.44
  -8  -3   0    1.55    0.36
  -8  -3   0    1.68    0.50
   8   3   0    1.60    0.50
  -9  -3   0    0.18    0.51
   9   3   0    0.42    0.49
 -10  -3   0    2.32    0.65
  10   3   0    1.88    0.61
 -11  -3   0    2.14    0.67
  11   3   0    1.22    0.66
 -12  -3   0    2.10    0.76
  13  -4   0    0.27    0.87
  12  -4   0    2.88    0.85
  11  -4   0   -0.84    0.62
  10  -4   0    5.25    0.73
  10  -4   0    3.89    0.81
   9  -4   0    0.57    0.51
   9  -4   0   -0.63    0.52
   8  -4   0    6.48    0.70
   8  -4   0    5.77    0.77
  -8   4   0    7.87    0.84
   7  -4   0    3.14    0.59
   7  -4   0    4.03    0.55
  -7   4   0    3.95    0.62
   6  -4   0    4.99    0.54
  -6   4   0    3.66    0.55
   5  -4   0   12.39    0.77
  -5   4   0   11.33    0.77
   4  -4   0   15.58    0.81
  -4   4   0   15.96    0.87
   3  -4   0    1.08    0.30
  -3   4   0    1.05    0.27
   2  -4   0   86.83    3.00
   2  -4   0   84.61    3.10
  -2   4   0   85.19    3.30
   1  -4   0    0.32    0.17
   1  -4   0    0.25    0.24
  -1   4   0    0.32    0.16
   0  -4   0   32.63    1.27
   0  -4   0   32.56    1.31
   0   4   0   32.83    1.28
  -1  -4   0    0.13    0.21
  -1  -4   0    0.42    0.21
  -2  -4   0   33.25    1.27
  -2  -4   0   33.08    1.40
  -3  -4   0    3.09    0.40
  -3  -4   0    3.72    0.34
   3   4   0    3.04    0.25
  -4  -4   0   16.78    0.91
  -4  -4   0   17.28    0.77
   4   4   0   16.16    0.77
  -5  -4   0    4.98    0.55
  -5  -4   0    5.99    0.47
   5   4   0    5.96    0.48
  -6  -4   0   14.57    0.93
  -6  -4   0   13.16    0.72
   6   4   0   12.79    0.81
  -7  -4   0    1.96    0.53
  -7  -4   0    1.68    0.37
   7   4   0    1.45    0.44
  -8  -4   0    5.09    0.51
  -8  -4   0    4.90    0.70
   8   4   0    4.54    0.61
  -9  -4   0    0.89    0.60
   9   4   0    1.90    0.56
 -10  -4   0    0.60    0.58
 -11  -4   0    1.46    0.72
 -12  -4   0    2.51    0.83
  13  -5   0    1.20    0.86
  12  -5   0    1.79    0.83
  11  -5   0    4.58    0.92
  10  -5   0    2.85    0.67
  10  -5   0    3.01    0.78
   9  -5   0    2.35    0.59
   9  -5   0    2.84    0.70
   8  -5   0    7.78    0.79
   8  -5   0    8.65    0.89
  -8   5   0    9.18    0.92
   7  -5   0   12.41    0.93
   7  -5   0   10.85    0.91
  -7   5   0    9.46    0.92
   6  -5   0   14.77    0.94
  -6   5   0   15.48    1.00
   5  -5   0    9.13    0.71
  -5   5   0    7.61    0.71
   4  -5   0   14.98    0.86
  -4   5   0   14.73    0.85
   3  -5   0   38.20    1.54
  -3   5   0   37.58    1.62
   2  -5   0   15.15    0.71
   2  -5   0   15.83    0.84
  -2   5   0   17.57    0.81
   1  -5   0   57.81    2.13
   1  -5   0   57.39    2.17
  -1   5   0   56.33    2.23
   0  -5   0   42.77    1.67
   0  -5   0   40.81    1.60
   0   5   0   41.10    1.62
  -1  -5   0    9.59    0.61
  -1  -5   0   10.07    0.61
  -2  -5   0    2.68    0.39
  -2  -5   0    3.20    0.38
  -3  -5   0   16.60    0.92
  -3  -5   0   16.07    0.81
  -4  -5   0    9.27    0.61
  -4  -5   0    9.81    0.73
   4   5   0    8.51    0.51
  -5  -5   0   14.50    0.97
  -5  -5   0   15.70    0.81
   5   5   0   15.61    0.79
  -6  -5   0    6.70    0.71
  -6  -5   0    5.76    0.52
   6   5   0    5.53    0.53
  -7  -5   0    1.37    0.53
  -7  -5   0    2.65    0.44
  -8  -5   0    0.38    0.51
  -9  -5   0    0.45    0.57
 -10  -5   0    0.60    0.67
 -11  -5   0    0.91    0.70
 -12  -5   0    1.56    0.79
  13  -6   0    1.74    0.91
  12  -6   0   -0.70    0.75
  11  -6   0    2.12    0.81
  11  -6   0    1.34    0.72
  10  -6   0    0.49    0.62
  10  -6   0    0.14    0.69
   9  -6   0    7.11    0.83
   9  -6   0    5.17    0.87
   8  -6   0    1.32    0.62
   8  -6   0    1.79    0.60
   7  -6   0    3.73    0.65
   7  -6   0    3.59    0.65
  -7   6   0    3.93    0.67
   6  -6   0    3.10    0.61
  -6   6   0    3.10    0.57
   5  -6   0    6.01    0.67
  -5   6   0    5.72    0.63
   4  -6   0    1.53    0.51
  -4   6   0    2.03    0.43
   3  -6   0    3.28    0.51
   2  -6   0    0.81    0.25
   2  -6   0    1.27    0.41
  -2   6   0    1.64    0.31
   1  -6   0    0.23    0.34
   1  -6   0    0.57    0.25
  -1   6   0    0.48    0.22
   0  -6   0    4.31    0.51
   0  -6   0    5.23    0.46
   0   6   0    5.33    0.35
  -1  -6   0    0.68    0.32
  -1  -6   0    1.23    0.36
  -2  -6   0    0.52    0.34
  -2  -6   0    0.43    0.33
  -3  -6   0    3.16    0.43
  -3  -6   0    2.74    0.48
  -4  -6   0    1.45    0.46
  -4  -6   0    1.24    0.38
  -5  -6   0    1.99    0.41
  -5  -6   0    2.15    0.53
  -6  -6   0   -0.06    0.45
  -6  -6   0    0.17    0.36
  -7  -6   0    2.46    0.62
  -7  -6   0    1.21    0.41
  -8  -6   0    4.79    0.78
  -9  -6   0    0.95    0.64
 -10  -6   0    5.89    0.92
 -11  -6   0    0.63    0.79
 -12  -6   0    1.11    0.85
  12  -7   0   -0.84    0.75
  11  -7   0    1.60    0.83
  11  -7   0    2.00    0.84
  10  -7   0    0.28    0.68
  10  -7   0    0.31    0.69
   9  -7   0    2.72    0.77
   9  -7   0    2.19    0.69
   8  -7   0    3.09    0.72
   8  -7   0    2.05    0.70
   7  -7   0    5.61    0.78
   7  -7   0    7.23    0.80
  -7   7   0    5.67    0.79
   6  -7   0   10.20    0.86
   6  -7   0    9.49    0.89
  -6   7   0   11.57    0.92
   5  -7   0   22.21    1.27
  -5   7   0   22.96    1.27
   4  -7   0   30.34    1.43
  -4   7   0   28.24    1.41
   3  -7   0    4.36    0.60
  -3   7   0    2.93    0.44
   2  -7   0   72.45    2.73
   2  -7   0   69.79    2.72
  -2   7   0   72.44    2.85
   1  -7   0    0.30    0.40
   1  -7   0    0.19    0.31
  -1   7   0    0.09    0.24
   0  -7   0   21.87    1.07
   0  -7   0   19.33    1.08
   0   7   0   20.92    0.90
  -1  -7   0    2.18    0.46
  -1  -7   0    1.74    0.42
  -2  -7   0    9.04    0.69
  -2  -7   0    6.76    0.68
  -3  -7   0    3.47    0.57
  -3  -7   0    2.54    0.49
  -4  -7   0    4.48    0.64
  -4  -7   0    5.15    0.57
  -5  -7   0    4.56    0.57
  -5  -7   0    4.64    0.68
  -6  -7   0    8.03    0.70
  -6  -7   0    7.77    0.87
  -7  -7   0    1.40    0.61
  -7  -7   0    1.42    0.47
  -8  -7   0    2.78    0.73
  -9  -7   0    0.24    0.68
 -10  -7   0    0.29    0.77
 -11  -7   0    0.70    0.86
  12  -8   0    0.30    0.89
  11  -8   0   -1.05    0.75
  11  -8   0   -0.03    0.76
  10  -8   0   -0.48    0.73
  10  -8   0    0.71    0.75
   9  -8   0   -0.29    0.65
   9  -8   0   -0.43    0.62
   8  -8   0    1.29    0.72
   8  -8   0    0.87    0.69
   7  -8   0    0.70    0.56
   7  -8   0    0.92    0.63
   6  -8   0    6.87    0.79
   6  -8   0    4.97    0.75
  -6   8   0    5.41    0.74
   5  -8   0    2.98    0.57
   5  -8   0    4.44    0.70
  -5   8   0    3.55    0.61
   4  -8   0   16.17    1.11
   4  -8   0   14.11    0.95
  -4   8   0   16.06    0.98
   3  -8   0    5.23    0.71
  -3   8   0    3.97    0.52
   2  -8   0   41.11    1.76
   2  -8   0   44.62    1.87
   1  -8   0    0.55    0.48
   1  -8   0    0.51    0.38
   1  -8   0    0.01    0.27
   0  -8   0   65.64    2.59
   0  -8   0   61.89    2.51
  -1  -8   0    2.78    0.56
  -1  -8   0    3.44    0.55
  -2  -8   0   30.54    1.43
  -2  -8   0   31.12    1.52
  -3  -8   0   16.29    1.05
  -3  -8   0   13.86    0.97
  -4  -8   0   14.19    1.05
  -4  -8   0   13.44    0.94
  -5  -8   0   23.73    1.26
  -5  -8   0   25.21    1.45
  -6  -8   0    2.56    0.68
  -6  -8   0    1.49    0.51
  -7  -8   0    3.36    0.76
  -7  -8   0    4.16    0.62
  -8  -8   0    2.47    0.78
  -9  -8   0    0.04    0.70
 -10  -8   0    0.00    0.76
  11  -9   0    1.32    0.90
  11  -9   0    2.01    0.91
  10  -9   0    4.46    0.94
  10  -9   0    4.45    0.97
   9  -9   0    2.50    0.87
   9  -9   0    2.07    0.82
   8  -9   0    6.02    0.93
   8  -9   0    5.84    0.89
   7  -9   0    4.05    0.81
   7  -9   0    3.00    0.71
   6  -9   0    7.40    0.86
   6  -9   0    8.64    0.95
   5  -9   0    1.52    0.56
   5  -9   0    0.83    0.64
   4  -9   0   13.81    0.96
   4  -9   0   12.52    1.06
   3  -9   0    2.14    0.48
   3  -9   0    2.84    0.64
   2  -9   0   18.24    1.00
   2  -9   0   18.28    1.17
   1  -9   0    8.31    0.70
   1  -9   0    7.27    0.80
   0  -9   0    9.07    0.78
   0  -9   0   10.48    0.89
  -1  -9   0    6.61    0.71
  -1  -9   0    5.93    0.71
  -2  -9   0    4.84    0.68
  -2  -9   0    4.12    0.64
  -3  -9   0    1.10    0.51
  -3  -9   0    1.60    0.57
  -4  -9   0    0.73    0.49
  -4  -9   0    2.23    0.66
  -5  -9   0    0.04    0.49
  -5  -9   0    0.38    0.58
  -6  -9   0    1.10    0.55
  -6  -9   0    1.45    0.67
  -7  -9   0    0.19    0.65
  -8  -9   0    0.46    0.71
  -9  -9   0    1.28    0.80
  10 -10   0    0.59    0.91
  10 -10   0    1.57    0.87
   9 -10   0    2.26    0.86
   9 -10   0    2.65    0.95
   8 -10   0    1.10    0.74
   8 -10   0    0.52    0.84
   7 -10   0    1.88    0.82
   7 -10   0    3.24    0.77
   6 -10   0   -0.06    0.57
   6 -10   0    0.19    0.74
   5 -10   0    1.84    0.70
   4 -10   0   -0.38    0.57
   3 -10   0   10.73    0.99
   2 -10   0    7.61    0.87
   1 -10   0   19.77    1.27
   1 -10   0   18.21    1.10
   0 -10   0    2.25    0.56
   0 -10   0    2.26    0.65
  -1 -10   0   18.22    1.19
  -1 -10   0   19.13    1.23
  -2 -10   0    0.02    0.53
  -2 -10   0    0.76    0.56
  -3 -10   0    9.03    0.88
  -3 -10   0    6.99    0.88
  -4 -10   0    0.81    0.54
  -4 -10   0    0.47    0.59
  -5 -10   0    2.79    0.75
  -5 -10   0    2.18    0.65
  -6 -10   0    0.15    0.66
  -6 -10   0   -0.18    0.55
  -7 -10   0    0.86    0.73
  -8 -10   0    1.26    0.79
   9 -11   0    0.10    0.93
   9 -11   0    0.64    0.84
   8 -11   0    0.30    0.76
   7 -11   0    0.61    0.76
   6 -11   0    4.27    0.91
   5 -11   0    1.06    0.71
   4 -11   0    2.22    0.75
   3 -11   0   -0.06    0.64
   2 -11   0    1.01    0.68
   1 -11   0    0.04    0.62
   0 -11   0   -0.03    0.54
   0 -11   0   -0.44    0.57
  -1 -11   0    0.26    0.59
  -1 -11   0    0.01    0.55
  -2 -11   0    2.17    0.68
  -2 -11   0    0.62    0.61
  -3 -11   0    0.37    0.60
  -3 -11   0    1.01    0.67
  -4 -11   0    0.64    0.64
  -4 -11   0    0.51    0.65
  -5 -11   0   -0.45    0.55
  -5 -11   0    0.06    0.71
  -6 -11   0    0.15    0.77
  -7 -11   0    2.05    0.87
   8 -12   0   -0.06    0.81
   7 -12   0   -0.91    0.80
   6 -12   0    2.74    0.89
   5 -12   0    0.97    0.78
   4 -12   0    1.99    0.81
   3 -12   0    1.64    0.79
   2 -12   0    3.31    0.83
   1 -12   0   -0.06    0.72
   0 -12   0    0.56    0.75
  -1 -12   0    0.17    0.61
  -1 -12   0    0.61    0.72
  -2 -12   0    2.18    0.73
  -2 -12   0    2.13    0.72
  -3 -12   0    2.46    0.77
  -3 -12   0    0.55    0.68
  -4 -12   0    1.42    0.80
  -4 -12   0    1.16    0.72
  -5 -12   0    1.20    0.71
  -5 -12   0    0.29    0.78
   6 -13   0    2.41    0.98
   5 -13   0    0.83    0.88
   4 -13   0    1.06    0.82
   3 -13   0    9.47    1.16
   2 -13   0    2.05    0.85
   1 -13   0    4.36    0.94
   0 -13   0    1.12    0.83
  -1 -13   0    4.08    0.90
  -2 -13   0    1.31    0.75
  -2 -13   0    1.00    0.75
  -3 -13   0    2.91    0.87
  -3 -13   0    2.48    0.84
   0 -14   1    2.61    0.89
   1 -14   1    2.79    0.95
   2 -14   1    4.54    1.06
   3 -14   1    1.52    0.92
  -4 -13   1   -0.54    0.72
  -4 -13   1   -0.72    0.69
  -3 -13   1    2.30    0.85
  -3 -13   1    1.42    0.79
  -2 -13   1    0.34    0.74
  -2 -13   1    1.42    0.75
  -1 -13   1    1.70    0.78
   0 -13   1    0.39    0.77
   1 -13   1    2.97    0.93
   2 -13   1    0.75    0.85
   3 -13   1    0.24    0.79
   4 -13   1   -0.08    0.77
   5 -13   1    1.09    0.83
   6 -13   1   -0.77    0.77
  -6 -12   1    0.42    0.77
  -5 -12   1    1.96    0.80
  -4 -12   1    0.96    0.76
  -4 -12   1    0.65    0.67
  -3 -12   1    0.80    0.68
  -3 -12   1    0.36    0.68
  -2 -12   1    1.90    0.71
  -2 -12   1    1.27    0.71
  -1 -12   1    0.71    0.67
  -1 -12   1    0.22    0.60
   0 -12   1    0.22    0.67
   1 -12   1    1.42    0.74
   2 -12   1    0.89    0.77
   3 -12   1    1.11    0.74
   4 -12   1    3.62    0.87
   5 -12   1    1.16    0.79
   6 -12   1    3.04    0.91
   7 -12   1    2.47    0.90
   8 -12   1    2.10    0.91
  -7 -11   1    0.14    0.74
  -6 -11   1    1.32    0.77
  -5 -11   1    0.83    0.75
  -5 -11   1    0.21    0.58
  -4 -11   1    2.87    0.69
  -4 -11   1    2.12    0.72
  -3 -11   1    0.07    0.60
  -3 -11   1    0.20    0.60
  -2 -11   1    4.92    0.80
  -2 -11   1    6.40    0.82
  -1 -11   1    1.03    0.59
  -1 -11   1    2.21    0.68
   0 -11   1    3.86    0.76
   0 -11   1    4.34    0.70
   1 -11   1    1.03    0.66
   2 -11   1    7.57    0.94
   3 -11   1   -0.53    0.61
   4 -11   1    6.02    0.91
   5 -11   1    3.29    0.81
   6 -11   1    4.85    0.97
   7 -11   1    4.89    1.03
   8 -11   1   -0.06    0.74
   8 -11   1   -0.32    0.81
   9 -11   1    0.29    0.87
   9 -11   1    1.58    0.87
  -9 -10   1    1.03    0.84
  -8 -10   1    1.15    0.77
  -7 -10   1    1.06    0.74
  -6 -10   1    0.80    0.67
  -5 -10   1    1.21    0.56
  -5 -10   1    0.87    0.64
  -4 -10   1    8.24    0.83
  -4 -10   1    6.12    0.86
  -3 -10   1    1.47    0.59
  -3 -10   1    0.98    0.58
  -2 -10   1   10.45    0.92
  -2 -10   1   10.56    0.96
  -1 -10   1    9.48    0.88
  -1 -10   1    8.95    0.89
   0 -10   1    1.33    0.59
   0 -10   1    1.32    0.50
   1 -10   1   28.06    1.41
   1 -10   1   27.77    1.52
   2 -10   1    6.80    0.85
   3 -10   1    2.66    0.69
   4 -10   1    3.34    0.75
  -5  10  -1    1.60    0.57
   5 -10   1    2.76    0.76
   5 -10   1    2.75    0.61
  -6  10  -1    0.53    0.56
   6 -10   1    0.30    0.74
   6 -10   1    0.67    0.59
   7 -10   1    2.25    0.73
   7 -10   1    3.38    0.85
   8 -10   1    0.83    0.74
   8 -10   1   -0.05    0.81
   9 -10   1    1.46    0.77
   9 -10   1    0.31    0.79
  10 -10   1    1.92    0.89
  10 -10   1    1.74    0.86
 -10  -9   1   -0.39    0.75
  -9  -9   1    0.84    0.83
  -8  -9   1    0.38    0.69
  -7  -9   1    1.63    0.72
  -6  -9   1    0.63    0.49
  -6  -9   1   -0.45    0.63
  -5  -9   1    2.36    0.56
  -5  -9   1    3.05    0.70
  -4  -9   1    0.90    0.56
  -4  -9   1    0.73    0.50
  -3  -9   1    0.34    0.54
  -3  -9   1    1.64    0.50
  -2  -9   1    0.74    0.50
  -2  -9   1    0.52    0.51
  -1  -9   1   12.94    0.97
  -1  -9   1   12.89    0.95
   0  -9   1    3.43    0.63
   0  -9   1    3.33    0.54
   1  -9   1   26.11    1.28
   1  -9   1   27.04    1.40
  -2   9  -1    2.42    0.44
   2  -9   1    2.49    0.44
   2  -9   1    3.70    0.66
  -3   9  -1   19.80    1.10
   3  -9   1   19.40    1.24
  -4   9  -1    0.97    0.46
   4  -9   1    1.89    0.62
  -5   9  -1   20.92    1.26
   5  -9   1   22.24    1.36
  -6   9  -1    0.83    0.57
   6  -9   1    3.44    0.79
  -7   9  -1    5.63    0.82
   7  -9   1    4.58    0.76
   7  -9   1    4.89    0.84
   8  -9   1    9.14    1.04
   8  -9   1    9.29    1.04
   9  -9   1    0.98    0.76
   9  -9   1    0.38    0.71
  10  -9   1    4.28    1.00
  10  -9   1    3.43    0.96
  11  -9   1   -0.06    0.81
  11  -9   1   -0.56    0.84
 -10  -8   1   -0.09    0.73
  -9  -8   1    0.62    0.73
  -8  -8   1    1.57    0.70
  -7  -8   1    0.53    0.60
  -6  -8   1    5.55    0.81
  -6  -8   1    5.06    0.63
  -5  -8   1   11.81    1.00
  -5  -8   1    9.90    0.78
  -4  -8   1   14.50    0.93
  -4  -8   1   14.32    1.09
  -3  -8   1    4.00    0.56
  -3  -8   1    4.33    0.64
  -2  -8   1    3.66    0.57
  -2  -8   1    3.06    0.56
  -1  -8   1    0.88    0.46
  -1  -8   1   -0.17    0.40
   0  -8   1    6.84    0.64
   0  -8   1    6.44    0.69
  -1   8  -1    0.05    0.28
   1  -8   1    0.17    0.48
   1  -8   1    0.48    0.36
  -2   8  -1    5.52    0.54
   2  -8   1    5.63    0.69
   2  -8   1    5.05    0.48
  -3   8  -1    1.50    0.44
   3  -8   1    3.39    0.63
  -4   8  -1    0.98    0.44
   4  -8   1    2.61    0.62
  -5   8  -1    0.80    0.48
   5  -8   1    1.13    0.57
  -6   8  -1    2.23    0.60
   6  -8   1    5.58    0.78
  -7   8  -1    1.47    0.59
   7  -8   1    2.25    0.68
  -8   8  -1    2.30    0.73
   8  -8   1    3.73    0.79
   8  -8   1    3.83    0.80
   9  -8   1    1.18    0.72
   9  -8   1    1.33    0.71
  10  -8   1    2.55    0.84
  10  -8   1    2.93    0.91
  11  -8   1   -1.21    0.71
  11  -8   1    0.08    0.77
  12  -8   1    0.61    0.88
 -11  -7   1    0.09    0.76
 -10  -7   1    2.01    0.79
  -9  -7   1    0.32    0.64
  -8  -7   1    6.61    0.90
  -7  -7   1    1.64    0.63
  -6  -7   1    8.45    0.88
  -6  -7   1    9.43    0.72
  -5  -7   1    1.56    0.53
  -5  -7   1    1.00    0.40
  -4  -7   1   26.07    1.42
  -4  -7   1   28.94    1.27
  -3  -7   1    3.76    0.51
  -3  -7   1    3.28    0.55
  -2  -7   1   42.52    1.87
  -2  -7   1   43.32    1.74
   1   7  -1   18.93    0.85
  -1  -7   1   20.46    1.06
  -1  -7   1   20.49    1.07
   0   7  -1   34.25    1.40
   0  -7   1   33.61    1.48
   0  -7   1   34.09    1.51
  -1   7  -1   22.21    1.01
   1  -7   1   22.47    1.15
   1  -7   1   20.33    1.01
  -2   7  -1   17.80    0.95
   2  -7   1   19.63    0.89
   2  -7   1   18.69    1.06
  -3   7  -1   43.79    1.87
   3  -7   1   42.28    1.66
   3  -7   1   42.97    1.82
  -4   7  -1   18.53    1.08
   4  -7   1   20.76    1.17
  -5   7  -1   11.58    0.91
   5  -7   1   12.95    0.97
  -6   7  -1    6.52    0.79
   6  -7   1    8.69    0.84
  -7   7  -1    3.03    0.65
   7  -7   1    3.34    0.65
  -8   7  -1    3.78    0.78
   8  -7   1    3.33    0.73
  -9   7  -1    0.62    0.67
   9  -7   1    0.84    0.70
   9  -7   1    1.28    0.68
  10  -7   1    0.18    0.67
  10  -7   1   -0.73    0.70
  11  -7   1    0.88    0.76
  11  -7   1    1.02    0.84
  12  -7   1    1.06    0.92
 -12  -6   1    0.22    0.78
 -11  -6   1    0.85    0.75
 -10  -6   1    1.51    0.72
  -9  -6   1    0.86    0.62
  -8  -6   1    0.35    0.56
  -7  -6   1    0.80    0.38
  -7  -6   1   -0.20    0.49
  -6  -6   1    7.31    0.79
  -6  -6   1    6.97    0.59
  -5  -6   1    0.59    0.36
  -5  -6   1    0.23    0.43
   4   6  -1   15.00    0.74
  -4  -6   1   14.60    0.96
  -4  -6   1   15.64    0.81
   3   6  -1    5.65    0.38
  -3  -6   1    6.51    0.54
  -3  -6   1    5.76    0.60
   2   6  -1   16.29    0.71
  -2  -6   1   17.42    0.86
  -2  -6   1   16.32    0.92
   1   6  -1   50.22    2.05
  -1  -6   1   54.87    2.02
  -1  -6   1   56.22    2.16
   0   6  -1   64.79    2.61
   0  -6   1   68.46    2.49
   0  -6   1   69.80    2.61
  -1   6  -1   74.69    2.81
   1  -6   1   69.48    2.63
   1  -6   1   70.22    2.70
  -2   6  -1   34.64    1.46
   2  -6   1   33.27    1.33
   2  -6   1   32.21    1.40
  -3   6  -1   78.44    3.08
   3  -6   1   74.67    2.84
  -4   6  -1   10.00    0.73
   4  -6   1   11.70    0.82
  -5   6  -1   34.33    1.61
   5  -6   1   32.10    1.52
  -6   6  -1    1.85    0.54
   6  -6   1    1.84    0.55
  -7   6  -1   18.93    1.24
   7  -6   1   21.42    1.22
  -8   6  -1    1.28    0.61
   8  -6   1    1.38    0.58
  -9   6  -1    5.03    0.83
   9  -6   1    4.39    0.74
   9  -6   1    3.72    0.77
  10  -6   1   -0.21    0.61
  10  -6   1    0.74    0.69
  11  -6   1    2.02    0.86
  11  -6   1    3.59    0.80
  12  -6   1    0.39    0.80
  13  -6   1    0.08    0.84
 -12  -5   1    0.18    0.77
 -11  -5   1    0.91    0.71
 -10  -5   1    0.90    0.64
  -9  -5   1    5.35    0.80
  -8  -5   1    1.98    0.59
   7   5  -1    9.09    0.73
  -7  -5   1    8.67    0.65
  -7  -5   1    8.44    0.84
   6   5  -1   13.38    0.82
  -6  -5   1   11.73    0.93
  -6  -5   1   12.50    0.73
   5   5  -1   20.13    0.94
  -5  -5   1   18.47    0.88
  -5  -5   1   16.51    1.05
   4   5  -1    9.00    0.56
  -4  -5   1    8.75    0.71
  -4  -5   1    8.21    0.56
   3   5  -1   34.89    1.37
  -3  -5   1   33.45    1.49
  -3  -5   1   32.91    1.33
   2   5  -1    2.34    0.22
  -2  -5   1    1.85    0.36
  -2  -5   1    1.91    0.31
   1   5  -1   89.48    3.48
  -1  -5   1   94.88    3.48
  -1  -5   1   93.41    3.23
   0   5  -1    8.95    0.49
   0  -5   1    9.39    0.60
   0  -5   1   10.14    0.56
  -1   5  -1   59.40    2.30
   1  -5   1   57.94    2.20
   1  -5   1   57.34    2.15
  -2   5  -1    2.83    0.33
   2  -5   1    1.86    0.37
   2  -5   1    1.91    0.22
  -3   5  -1    4.19    0.46
   3  -5   1    7.90    0.58
  -4   5  -1   10.97    0.73
   4  -5   1   11.82    0.76
  -5   5  -1    7.67    0.73
   5  -5   1   11.19    0.77
  -6   5  -1    3.17    0.56
   6  -5   1    3.16    0.54
  -7   5  -1    7.20    0.82
   7  -5   1    7.76    0.75
  -8   5  -1   11.70    1.00
   8  -5   1   11.38    0.91
  -9   5  -1    1.97    0.68
   9  -5   1    1.14    0.61
   9  -5   1    2.34    0.62
  10  -5   1    3.40    0.79
  10  -5   1    5.40    0.76
  11  -5   1    0.76    0.67
  11  -5   1    1.38    0.76
  12  -5   1    2.83    0.91
  13  -5   1    1.38    0.88
 -13  -4   1    1.03    0.79
 -12  -4   1   -0.19    0.70
 -11  -4   1    1.17    0.70
  10   4  -1    0.53    0.60
 -10  -4   1   -0.03    0.57
   9   4  -1    0.96    0.56
  -9  -4   1    0.71    0.53
   8   4  -1    4.77    0.65
  -8  -4   1    5.15    0.69
   7   4  -1    1.99    0.49
  -7  -4   1    1.48    0.50
  -7  -4   1    1.12    0.31
   6   4  -1    7.86    0.62
  -6  -4   1    6.10    0.65
  -6  -4   1    4.92    0.44
   5   4  -1    5.76    0.47
  -5  -4   1    3.17    0.35
  -5  -4   1    3.10    0.49
   4   4  -1    1.01    0.26
  -4  -4   1    1.03    0.25
  -4  -4   1    1.17    0.34
   3   4  -1   12.21    0.60
  -3  -4   1   12.05    0.68
  -3  -4   1   11.97    0.60
  -2  -4   1    3.90    0.39
  -2  -4   1    3.64    0.33
   1   4  -1   14.04    0.57
  -1  -4   1   11.51    0.60
  -1  -4   1   11.36    0.63
   0   4  -1    1.35    0.18
   0  -4   1    0.60    0.23
   0  -4   1    0.15    0.18
  -1   4  -1    2.52    0.26
   1  -4   1    2.48    0.32
   1  -4   1    3.28    0.25
   2  -4   1    9.55    0.56
   2  -4   1    8.19    0.39
  -3   4  -1    0.71    0.25
   3  -4   1    0.01    0.27
  -4   4  -1   20.79    1.03
   4  -4   1   19.53    0.94
  -5   4  -1    3.10    0.45
   5  -4   1    2.96    0.43
  -6   4  -1    5.86    0.65
   6  -4   1    7.09    0.62
  -7   4  -1    1.57    0.52
   7  -4   1    1.86    0.48
  -8   4  -1    9.38    0.90
   8  -4   1    9.07    0.78
  -9   4  -1    1.20    0.60
   9  -4   1   -0.01    0.54
   9  -4   1    0.74    0.50
  10  -4   1    2.40    0.64
  10  -4   1    3.16    0.76
  11  -4   1    0.29    0.67
  11  -4   1    0.34    0.57
  13  -4   1   -0.15    0.81
  12   3  -1    1.18    0.76
 -12  -3   1    0.36    0.68
  11   3  -1    1.43    0.69
 -11  -3   1    2.28    0.67
  10   3  -1    1.08    0.61
 -10  -3   1    2.63    0.63
   9   3  -1    0.46    0.50
  -9  -3   1    0.01    0.45
   8   3  -1    0.12    0.43
  -8  -3   1    0.31    0.47
   7   3  -1   -0.06    0.37
  -7  -3   1    0.16    0.26
  -7  -3   1    0.05    0.40
   6   3  -1   13.40    0.85
  -6  -3   1   18.00    0.96
  -6  -3   1   15.90    0.71
   5   3  -1    5.76    0.49
  -5  -3   1    6.83    0.42
  -5  -3   1    6.61    0.57
   4   3  -1   92.08    3.57
  -4  -3   1   93.79    3.16
  -4  -3   1   92.48    3.51
   3   3  -1   22.02    0.95
  -3  -3   1   22.09    1.01
  -3  -3   1   22.75    0.86
   2   3  -1   58.52    2.26
  -2  -3   1   58.16    2.25
  -2  -3   1   60.96    2.05
   1   3  -1   46.15    1.78
  -1  -3   1   47.89    1.64
  -1  -3   1   44.58    1.76
   0   3  -1  154.82    5.97
   0  -3   1  166.55    5.76
   0  -3   1  159.48    5.37
  -1   3  -1    9.48    0.47
   1  -3   1    9.07    0.50
   1  -3   1    7.71    0.39
  -2   3  -1   71.62    2.74
   2  -3   1   69.37    2.46
  -3   3  -1    1.36    0.27
   3  -3   1    1.27    0.26
  -4   3  -1   21.99    1.08
   4  -3   1   23.00    0.98
  -5   3  -1    6.84    0.58
  -6   3  -1    2.63    0.23
  -6   3  -1    2.17    0.46
  -7   3  -1   26.56    1.41
  -8   3  -1    1.32    0.53
  -9   3  -1    1.35    0.58
   9  -3   1    2.02    0.52
   9  -3   1    0.90    0.58
  10  -3   1   11.15    1.11
  10  -3   1   10.78    0.87
  11  -3   1    0.62    0.70
  12  -3   1    6.74    1.06
  13  -3   1    0.60    0.87
  13   2  -1    0.40    0.82
  12   2  -1    1.16    0.75
 -12  -2   1    1.51    0.68
  11   2  -1    1.79    0.69
 -11  -2   1    1.22    0.61
  10   2  -1    0.04    0.57
 -10  -2   1   -0.36    0.48
   9   2  -1    3.41    0.65
  -9  -2   1    1.87    0.51
   8   2  -1    2.71    0.55
  -8  -2   1    3.20    0.55
   7   2  -1    5.51    0.62
  -7  -2   1    4.55    0.56
  -7  -2   1    5.44    0.41
   6   2  -1    8.09    0.66
  -6  -2   1    8.64    0.48
  -6  -2   1    7.54    0.63
   5   2  -1   18.59    0.96
  -5  -2   1   19.35    0.76
  -5  -2   1   19.49    0.95
   4   2  -1   39.83    1.70
  -4  -2   1   42.20    1.47
  -4  -2   1   43.63    1.70
   3   2  -1   39.93    1.56
  -3  -2   1   38.44    1.55
  -3  -2   1   38.94    1.36
   2   2  -1   22.23    0.92
  -2  -2   1   22.91    0.81
  -2  -2   1   22.05    0.93
   1   2  -1   55.55    2.11
  -1  -2   1   55.42    2.07
  -1  -2   1   56.08    1.90
   0   2  -1   18.30    0.76
   0  -2   1   19.67    0.74
   0  -2   1   18.31    0.71
  -1   2  -1   27.77    1.09
   1  -2   1   26.48    0.99
   1  -2   1   26.76    1.00
  -2   2  -1   10.63    0.55
  -3   2  -1  146.93    5.57
  -4   2  -1    6.38    0.50
  -4   2  -1    6.60    0.33
  -5   2  -1  119.87    4.24
  -5   2  -1  114.54    4.58
  -6   2  -1    5.68    0.42
  -6   2  -1    5.25    0.57
  -7   2  -1   24.66    1.30
  -7   2  -1   23.42    1.05
  -8   2  -1    1.22    0.33
  -8   2  -1    1.22    0.51
  -9   2  -1    2.37    0.60
   9  -2   1    4.29    0.70
  10  -2   1    1.10    0.67
  11  -2   1    2.58    0.77
  12  -2   1    0.77    0.74
  13  -2   1    0.69    0.82
  13   1  -1    0.40    0.81
  12   1  -1    1.08    0.76
  11   1  -1    0.79    0.70
 -11  -1   1    0.17    0.55
  10   1  -1    1.04    0.64
 -10  -1   1    1.58    0.53
   9   1  -1    1.96    0.57
  -9  -1   1    0.21    0.43
   8   1  -1    0.85    0.50
  -8  -1   1    0.57    0.41
   7   1  -1   19.53    1.04
  -7  -1   1   15.85    0.93
   6   1  -1    7.96    0.62
  -6  -1   1    8.06    0.61
   5   1  -1   18.61    0.90
  -5  -1   1   16.77    0.84
  -5  -1   1   15.93    0.68
   4   1  -1   70.57    2.72
  -4  -1   1   67.04    2.60
  -4  -1   1   69.85    2.34
   3   1  -1   78.42    2.99
  -3  -1   1   77.02    2.60
  -3  -1   1   77.75    2.88
   2   1  -1   74.15    2.79
  -2  -1   1   72.81    2.44
  -2  -1   1   74.10    2.70
   1   1  -1   65.26    2.44
  -1  -1   1   64.69    2.15
  -1  -1   1   64.50    2.35
   0   1  -1  137.40    5.16
   0  -1   1  140.59    4.95
  -1   1  -1    1.73    0.16
  -2   1  -1    8.39    0.46
  -2   1  -1    8.53    0.37
  -3   1  -1  142.16    5.09
  -4   1  -1    0.67    0.24
  -4   1  -1    0.39    0.16
  -5   1  -1   57.53    2.17
  -6   1  -1    5.79    0.57
  -6   1  -1    5.17    0.42
  -7   1  -1    8.45    0.76
  -7   1  -1    9.40    0.63
  -8   1  -1    4.96    0.67
  -8   1  -1    4.54    0.50
   8  -1   1    3.15    0.60
  -9   1  -1    2.27    0.44
   9  -1   1    0.98    0.56
  10  -1   1    0.16    0.59
  11  -1   1    0.43    0.73
  12  -1   1    2.12    0.83
  13  -1   1   -0.66    0.82
  14   0  -1    0.37    0.84
  13   0  -1    5.23    1.02
  12   0  -1    2.07    0.86
  11   0  -1    6.13    0.92
  10   0  -1    7.13    0.90
 -10   0   1    8.73    0.79
   9   0  -1    5.43    0.75
  -9   0   1    6.95    0.66
   8   0  -1   24.38    1.37
  -8   0   1   26.50    1.26
   7   0  -1    5.82    0.66
  -7   0   1    7.18    0.58
   6   0  -1   86.14    3.59
  -6   0   1   94.09    3.40
   5   0  -1   23.88    1.05
  -5   0   1   18.17    0.91
   4   0  -1  194.18    7.47
  -4   0   1  202.18    7.13
   3   0  -1  138.33    5.11
  -3   0   1  131.67    4.86
   2   0  -1  352.97   13.43
  -2   0   1  372.08   12.87
   1   0  -1    8.39    0.35
   1   0  -1    8.07    0.28
  -1   0   1    7.56    0.28
   0   0  -1   16.37    0.64
  -1   0  -1   26.98    1.04
  -1   0  -1   26.45    0.92
  -1   0  -1   26.65    1.00
  -2   0  -1   13.66    0.54
  -2   0  -1   14.41    0.63
  -2   0  -1   13.44    0.59
  -3   0  -1   15.08    0.72
  -3   0  -1   15.93    0.68
  -3   0  -1   15.72    0.62
  -4   0  -1   14.26    0.75
  -4   0  -1   15.10    0.69
  -4   0  -1   14.75    0.64
  -5   0  -1    7.09    0.45
  -5   0  -1    6.82    0.48
  -5   0  -1    6.32    0.52
  -6   0  -1    1.15    0.37
  -6   0  -1    1.44    0.31
  -6   0  -1    1.32    0.28
  -7   0  -1    3.16    0.51
  -7   0  -1    3.44    0.44
   7   0   1    2.82    0.50
  -8   0  -1    8.37    0.71
   8   0   1   12.91    0.97
  -9   0  -1    1.94    0.46
   9   0   1    1.99    0.62
 -10   0  -1    2.65    0.55
  10   0   1    3.89    0.77
  11   0   1    1.32    0.67
  12   0   1    1.18    0.74
  13   0   1    0.68    0.88
  14  -1  -1   -0.23    0.86
  13  -1  -1    0.76    0.85
  12  -1  -1    0.57    0.73
  11  -1  -1    0.24    0.66
  10  -1  -1    1.32    0.67
   9  -1  -1    3.52    0.47
   9  -1  -1    1.36    0.58
  -9   1   1    2.89    0.47
   8  -1  -1    8.51    0.84
  -8   1   1    9.54    0.68
   7  -1  -1    3.08    0.54
  -7   1   1    3.06    0.39
   6  -1  -1    5.63    0.56
  -6   1   1    3.38    0.36
   5  -1  -1   42.61    1.82
  -5   1   1   42.15    1.64
   4  -1  -1   19.82    0.84
   4  -1  -1   20.93    1.00
  -4   1   1   23.36    0.88
   3  -1  -1    1.03    0.18
   3  -1  -1    1.47    0.26
  -3   1   1    2.00    0.18
   2  -1  -1   94.51    3.18
   2  -1  -1   95.28    3.60
   1  -1  -1    5.69    0.29
   1  -1  -1    5.15    0.27
   0  -1  -1   52.87    1.74
   0  -1  -1   50.04    1.92
  -1  -1  -1   74.64    2.51
  -1  -1  -1   74.04    2.77
  -1  -1  -1   74.72    2.71
  -2  -1  -1   36.15    1.42
  -2  -1  -1   37.06    1.44
  -2  -1  -1   37.63    1.30
  -3  -1  -1   15.17    0.69
  -3  -1  -1   15.27    0.63
  -3  -1  -1   14.72    0.71
  -4  -1  -1   13.04    0.68
  -4  -1  -1   13.24    0.69
  -4  -1  -1   13.99    0.61
  -5  -1  -1   29.52    1.15
  -5  -1  -1   30.07    1.32
  -5  -1  -1   29.13    1.27
  -6  -1  -1   24.96    1.17
  -6  -1  -1   24.17    1.03
  -6  -1  -1   24.76    1.22
   6   1   1   25.58    1.22
  -7  -1  -1   15.30    0.80
  -7  -1  -1   16.03    0.95
   7   1   1   16.56    1.00
  -8  -1  -1   21.70    0.99
  -8  -1  -1   21.74    1.17
   8   1   1   19.69    1.19
  -9  -1  -1    9.74    0.81
   9   1   1    9.22    0.91
 -10  -1  -1    1.38    0.56
  10   1   1    0.88    0.61
 -11  -1  -1    0.70    0.55
  11   1   1    1.03    0.70
  12   1   1    2.44    0.82
  13   1   1    0.37    0.86
  14  -2  -1   -0.07    0.88
  13  -2  -1    0.18    0.83
  12  -2  -1    2.22    0.82
  11  -2  -1    0.23    0.68
  10  -2  -1    0.51    0.61
   9  -2  -1    1.42    0.44
   9  -2  -1    1.64    0.61
   8  -2  -1    0.46    0.39
   8  -2  -1   -0.01    0.49
  -8   2   1    0.76    0.32
   7  -2  -1   16.00    1.01
   7  -2  -1   14.71    0.81
  -7   2   1   15.19    0.76
   6  -2  -1   15.27    0.98
   6  -2  -1   16.83    0.83
  -6   2   1   18.05    0.78
   5  -2  -1   27.48    1.30
   5  -2  -1   27.33    1.11
  -5   2   1   28.19    1.10
   4  -2  -1   34.33    1.46
   4  -2  -1   33.04    1.27
  -4   2   1   33.84    1.28
   3  -2  -1   36.22    1.33
   3  -2  -1   35.76    1.49
   2  -2  -1  144.12    4.87
   2  -2  -1  146.44    5.46
   1  -2  -1  344.93   12.72
   1  -2  -1  342.64   11.36
   0  -2  -1  685.12   22.47
   0  -2  -1  696.00   24.16
   0  -2  -1  665.54   25.15
  -1  -2  -1   88.45    3.05
  -1  -2  -1   91.23    3.30
  -2  -2  -1    7.04    0.34
  -2  -2  -1    6.58    0.37
  -2  -2  -1    6.16    0.42
  -3  -2  -1   66.35    2.26
  -3  -2  -1   63.39    2.47
  -4  -2  -1   23.79    1.07
  -4  -2  -1   24.12    1.04
  -4  -2  -1   22.98    0.94
   4   2   1   23.37    1.02
  -5  -2  -1   34.21    1.32
  -5  -2  -1   34.49    1.50
   5   2   1   34.18    1.48
  -6  -2  -1    1.47    0.40
  -6  -2  -1    1.19    0.30
   6   2   1    0.85    0.36
  -7  -2  -1    6.44    0.66
  -7  -2  -1    6.93    0.52
   7   2   1    7.06    0.67
  -8  -2  -1    0.83    0.45
  -8  -2  -1    0.33    0.34
   8   2   1    1.14    0.49
  -9  -2  -1    2.12    0.45
  -9  -2  -1    2.37    0.58
   9   2   1    2.16    0.57
 -10  -2  -1    3.23    0.64
  10   2   1    4.07    0.73
 -11  -2  -1    1.19    0.61
  11   2   1    0.18    0.64
 -12  -2  -1    0.94    0.67
  12   2   1    0.74    0.77
  13  -3  -1    0.17    0.81
  12  -3  -1    0.58    0.77
  11  -3  -1    2.27    0.78
  10  -3  -1    2.88    0.74
   9  -3  -1    3.23    0.55
   9  -3  -1    2.73    0.67
   8  -3  -1    7.02    0.81
   8  -3  -1    7.32    0.68
   7  -3  -1   12.44    0.79
   7  -3  -1   11.64    0.91
  -7   3   1   10.51    0.59
   6  -3  -1    2.80    0.42
   6  -3  -1    2.49    0.48
  -6   3   1    2.12    0.24
   5  -3  -1   34.92    1.61
   5  -3  -1   37.56    1.44
  -5   3   1   35.93    1.36
   4  -3  -1    7.05    0.52
   4  -3  -1    6.42    0.48
  -4   3   1    5.62    0.32
  -4   3   1    5.59    0.51
   3  -3  -1   77.13    2.68
   3  -3  -1   75.85    2.99
   2  -3  -1    7.28    0.42
   2  -3  -1    7.07    0.46
  -2   3   1    6.58    0.43
   1  -3  -1  113.84    3.94
   1  -3  -1  118.20    4.36
   1  -3  -1  115.83    4.19
   0  -3  -1   11.80    0.58
   0  -3  -1   11.68    0.49
   0  -3  -1   11.78    0.56
  -1  -3  -1  110.33    4.04
  -1  -3  -1  110.12    3.75
  -2  -3  -1   34.82    1.30
  -2  -3  -1   34.80    1.42
  -3  -3  -1   57.83    2.19
  -3  -3  -1   56.30    1.99
   3   3   1   53.37    2.13
  -4  -3  -1    7.05    0.57
  -4  -3  -1    7.65    0.49
   4   3   1    6.15    0.43
  -5  -3  -1    1.43    0.29
  -5  -3  -1    1.31    0.37
   5   3   1    1.15    0.30
  -6  -3  -1    0.63    0.38
  -6  -3  -1    0.37    0.30
   6   3   1   -0.10    0.30
  -7  -3  -1    3.94    0.44
  -7  -3  -1    3.63    0.56
   7   3   1    2.66    0.49
  -8  -3  -1    7.10    0.59
  -8  -3  -1    6.45    0.73
   8   3   1    7.12    0.71
  -9  -3  -1    2.07    0.46
  -9  -3  -1    1.88    0.57
   9   3   1    1.69    0.57
 -10  -3  -1    2.03    0.65
  10   3   1    2.66    0.66
 -11  -3  -1    0.10    0.59
 -12  -3  -1    0.00    0.66
  13  -4  -1    1.06    0.85
  12  -4  -1    0.65    0.77
  11  -4  -1    2.80    0.77
  10  -4  -1    0.38    0.56
  10  -4  -1    0.29    0.62
   9  -4  -1    3.12    0.71
   9  -4  -1    4.93    0.64
   8  -4  -1    6.02    0.67
   8  -4  -1    5.86    0.77
   7  -4  -1   10.85    0.81
   7  -4  -1   12.01    0.95
   6  -4  -1    4.29    0.53
   6  -4  -1    4.42    0.59
   5  -4  -1   13.51    0.76
   5  -4  -1   11.89    0.80
  -5   4   1   11.57    0.80
   4  -4  -1    7.02    0.59
   4  -4  -1    6.77    0.55
  -4   4   1    6.79    0.57
   3  -4  -1    5.89    0.48
   3  -4  -1    5.11    0.43
  -3   4   1    4.36    0.43
   2  -4  -1   21.76    0.93
   2  -4  -1   21.08    0.93
  -2   4   1   18.82    0.93
   1  -4  -1    9.15    0.47
   1  -4  -1    8.79    0.56
   1  -4  -1    9.14    0.49
   0  -4  -1   11.33    0.58
   0  -4  -1   10.82    0.47
   0  -4  -1   10.31    0.56
  -1  -4  -1   16.45    0.80
  -1  -4  -1   16.64    0.77
  -2  -4  -1   57.09    2.21
  -2  -4  -1   54.82    2.02
  -3  -4  -1    4.09    0.39
  -3  -4  -1    5.11    0.48
   3   4   1    4.22    0.27
  -4  -4  -1   17.45    0.95
  -4  -4  -1   16.69    0.80
   4   4   1   16.82    0.76
  -5  -4  -1    0.64    0.39
  -5  -4  -1    0.22    0.29
   5   4   1    0.69    0.27
  -6  -4  -1    4.66    0.61
  -6  -4  -1    4.13    0.47
   6   4   1    6.72    0.53
  -7  -4  -1   -0.25    0.32
  -7  -4  -1   -0.20    0.43
   7   4   1   -0.28    0.37
  -8  -4  -1    2.02    0.43
  -8  -4  -1    1.72    0.57
   8   4   1    2.59    0.51
  -9  -4  -1   -0.65    0.51
 -10  -4  -1    2.01    0.66
 -11  -4  -1    0.95    0.71
 -12  -4  -1    2.95    0.83
  13  -5  -1    0.92    0.92
  12  -5  -1    0.78    0.80
  11  -5  -1    0.34    0.68
  10  -5  -1    2.33    0.64
  10  -5  -1    1.66    0.74
   9  -5  -1    0.98    0.56
   9  -5  -1    0.72    0.60
   8  -5  -1    6.81    0.74
   8  -5  -1    7.62    0.85
   7  -5  -1   13.23    0.97
   7  -5  -1   13.59    1.02
   6  -5  -1    6.25    0.69
   6  -5  -1    6.61    0.68
   5  -5  -1   18.84    1.06
   5  -5  -1   16.84    0.98
   4  -5  -1    9.33    0.71
   4  -5  -1   10.60    0.71
  -4   5   1    8.25    0.69
   3  -5  -1   30.35    1.26
   3  -5  -1   27.59    1.28
  -3   5   1   28.65    1.30
   2  -5  -1   20.26    1.00
   2  -5  -1   19.76    0.95
  -2   5   1   22.62    0.98
   1  -5  -1   21.26    0.95
   1  -5  -1   20.98    0.91
   1  -5  -1   21.27    0.99
   0  -5  -1   11.97    0.70
   0  -5  -1   11.32    0.64
   0  -5  -1   11.49    0.52
  -1  -5  -1   12.85    0.70
  -1  -5  -1   11.28    0.69
  -2  -5  -1    4.41    0.47
  -2  -5  -1    3.71    0.41
  -3  -5  -1    1.57    0.34
  -3  -5  -1    1.16    0.37
  -4  -5  -1    5.19    0.59
  -4  -5  -1    5.65    0.50
  -5  -5  -1    0.60    0.36
  -5  -5  -1    0.41    0.42
  -6  -5  -1    0.49    0.36
  -6  -5  -1    0.89    0.47
  -7  -5  -1    1.17    0.52
  -7  -5  -1    1.41    0.41
  -8  -5  -1    1.81    0.45
  -8  -5  -1    0.86    0.58
  -9  -5  -1    0.22    0.57
 -10  -5  -1    6.02    0.90
 -11  -5  -1    0.35    0.67
 -12  -5  -1    4.73    0.99
  13  -6  -1    0.82    0.89
  12  -6  -1    0.78    0.80
  11  -6  -1    0.31    0.70
  10  -6  -1    0.14    0.62
  10  -6  -1    1.49    0.72
   9  -6  -1    1.33    0.64
   9  -6  -1    1.54    0.66
   8  -6  -1    3.74    0.69
   8  -6  -1    3.48    0.71
   7  -6  -1    1.51    0.56
   7  -6  -1    2.38    0.56
   6  -6  -1    8.34    0.77
   6  -6  -1    6.91    0.76
   5  -6  -1    4.21    0.59
   5  -6  -1    4.66    0.64
   4  -6  -1    9.57    0.73
   4  -6  -1    9.65    0.77
   3  -6  -1   47.09    1.98
   3  -6  -1   47.76    1.92
   2  -6  -1   14.99    0.89
   2  -6  -1   14.88    0.78
   1  -6  -1   23.99    1.12
   1  -6  -1   23.17    1.01
   1  -6  -1   22.86    1.07
   0  -6  -1    3.76    0.44
   0  -6  -1    3.88    0.29
   0  -6  -1    4.05    0.49
  -1  -6  -1   29.25    1.34
  -1  -6  -1   27.85    1.25
  -2  -6  -1    0.33    0.36
  -2  -6  -1    0.65    0.36
  -3  -6  -1   15.01    0.86
  -3  -6  -1   16.24    0.97
  -4  -6  -1   -0.03    0.36
  -4  -6  -1   -0.30    0.41
  -5  -6  -1   21.45    1.08
  -5  -6  -1   21.46    1.25
  -6  -6  -1    1.87    0.58
  -6  -6  -1    1.15    0.42
  -7  -6  -1    6.36    0.82
  -7  -6  -1    6.48    0.64
  -8  -6  -1    1.25    0.62
  -8  -6  -1    0.03    0.43
  -9  -6  -1    2.02    0.72
 -10  -6  -1    1.79    0.77
 -11  -6  -1    1.04    0.78
  12  -7  -1    0.48    0.82
  11  -7  -1    1.02    0.77
  10  -7  -1    0.44    0.69
  10  -7  -1    0.66    0.74
   9  -7  -1    2.07    0.72
   9  -7  -1    1.41    0.69
   8  -7  -1    1.11    0.64
   8  -7  -1    0.60    0.59
   7  -7  -1    4.21    0.69
   7  -7  -1    4.85    0.73
   6  -7  -1    0.60    0.52
   6  -7  -1   -0.09    0.52
   5  -7  -1    8.18    0.82
   5  -7  -1    9.64    0.83
   4  -7  -1    4.57    0.67
   4  -7  -1    3.42    0.53
   3  -7  -1   22.78    1.19
   3  -7  -1   21.66    1.12
   2  -7  -1    2.70    0.53
   2  -7  -1    2.34    0.38
   1  -7  -1   51.35    2.07
   1  -7  -1   53.23    2.12
   1  -7  -1   52.76    2.10
   0  -7  -1    1.27    0.46
   0  -7  -1    1.96    0.42
  -1  -7  -1   39.45    1.71
  -1  -7  -1   40.64    1.76
  -2  -7  -1   10.75    0.80
  -2  -7  -1   10.14    0.82
  -3  -7  -1   24.73    1.32
  -3  -7  -1   24.44    1.20
  -4  -7  -1   13.09    0.83
  -4  -7  -1    9.93    0.91
  -5  -7  -1   15.34    1.09
  -5  -7  -1   15.09    0.91
  -6  -7  -1    1.57    0.49
  -6  -7  -1    1.85    0.61
  -7  -7  -1   -0.21    0.55
  -7  -7  -1   -0.26    0.44
  -8  -7  -1    0.50    0.64
  -9  -7  -1   -0.16    0.66
 -10  -7  -1    0.21    0.73
 -11  -7  -1   -0.38    0.75
  12  -8  -1    1.20    0.90
  11  -8  -1    1.00    0.84
  11  -8  -1    1.61    0.83
  10  -8  -1    1.39    0.81
  10  -8  -1    2.22    0.83
   9  -8  -1    3.35    0.83
   9  -8  -1    4.20    0.82
   8  -8  -1    4.49    0.80
   8  -8  -1    4.44    0.83
   7  -8  -1    1.78    0.64
   7  -8  -1    1.75    0.69
   6  -8  -1    9.85    0.94
   6  -8  -1    9.76    0.92
   5  -8  -1    0.49    0.47
   5  -8  -1   -0.15    0.54
   4  -8  -1   16.45    1.10
   4  -8  -1   17.97    1.07
   3  -8  -1    0.44    0.50
   3  -8  -1    0.47    0.38
   2  -8  -1    6.15    0.71
   2  -8  -1    5.63    0.52
   1  -8  -1    1.76    0.55
   1  -8  -1    1.91    0.43
   0  -8  -1    0.16    0.40
   0  -8  -1   -0.25    0.45
  -1  -8  -1    0.70    0.48
  -1  -8  -1    1.29    0.49
  -2  -8  -1    1.77    0.53
  -2  -8  -1    1.22    0.48
  -3  -8  -1    2.21    0.52
  -3  -8  -1    1.11    0.51
  -4  -8  -1    3.41    0.59
  -4  -8  -1    3.24    0.66
  -5  -8  -1    2.21    0.64
  -5  -8  -1    3.48    0.59
  -6  -8  -1    1.74    0.67
  -6  -8  -1    2.76    0.58
  -7  -8  -1    3.22    0.75
  -7  -8  -1    4.17    0.66
  -8  -8  -1    1.04    0.71
  -9  -8  -1    1.59    0.83
 -10  -8  -1    0.17    0.77
  11  -9  -1    0.94    0.90
  11  -9  -1   -1.13    0.83
  10  -9  -1    0.34    0.82
  10  -9  -1    0.58    0.79
   9  -9  -1    1.78    0.80
   9  -9  -1    1.97    0.79
   8  -9  -1    0.08    0.66
   8  -9  -1    1.93    0.77
   7  -9  -1    0.19    0.72
   7  -9  -1    0.59    0.62
   6  -9  -1    4.82    0.74
   6  -9  -1    4.41    0.81
   5  -9  -1    0.15    0.60
   5  -9  -1    1.29    0.56
   4  -9  -1    3.21    0.58
   4  -9  -1    4.15    0.73
   3  -9  -1    2.95    0.66
   2  -9  -1    0.06    0.51
   1  -9  -1    4.59    0.58
   1  -9  -1    5.07    0.70
   0  -9  -1    1.29    0.48
   0  -9  -1    1.13    0.54
  -1  -9  -1    0.33    0.49
  -1  -9  -1    0.18    0.47
  -2  -9  -1    1.13    0.56
  -2  -9  -1    1.27    0.56
  -3  -9  -1    0.34    0.55
  -3  -9  -1   -0.11    0.51
  -4  -9  -1    2.70    0.67
  -4  -9  -1    3.28    0.62
  -5  -9  -1    1.11    0.62
  -5  -9  -1    1.03    0.53
  -6  -9  -1    1.97    0.74
  -6  -9  -1    1.81    0.59
  -7  -9  -1    0.96    0.72
  -8  -9  -1    2.01    0.79
  -9  -9  -1    0.77    0.80
  10 -10  -1    1.55    0.86
  10 -10  -1    2.60    0.96
   9 -10  -1    1.69    0.87
   9 -10  -1    4.03    0.93
   8 -10  -1    1.50    0.75
   8 -10  -1    0.39    0.75
   7 -10  -1    9.50    1.02
   7 -10  -1    9.93    1.06
   6 -10  -1    1.09    0.68
   5 -10  -1   13.35    1.14
   4 -10  -1   -0.68    0.62
   3 -10  -1   20.73    1.34
   2 -10  -1    0.80    0.60
   1 -10  -1   26.52    1.52
   1 -10  -1   28.42    1.46
   0 -10  -1    0.76    0.51
   0 -10  -1    0.26    0.56
  -1 -10  -1   14.87    1.13
  -1 -10  -1   16.03    1.13
  -2 -10  -1    0.89    0.58
  -2 -10  -1    0.20    0.54
  -3 -10  -1    6.14    0.86
  -3 -10  -1    7.47    0.84
  -4 -10  -1    0.88    0.60
  -4 -10  -1    1.05    0.64
  -5 -10  -1    2.92    0.77
  -5 -10  -1    2.24    0.68
  -6 -10  -1   -0.47    0.56
  -6 -10  -1    0.10    0.66
  -7 -10  -1    1.18    0.78
  -8 -10  -1    0.46    0.82
   9 -11  -1    0.47    0.81
   8 -11  -1    0.52    0.77
   7 -11  -1    2.03    0.85
   6 -11  -1    1.35    0.75
   5 -11  -1    4.49    0.85
   4 -11  -1   -0.31    0.64
   3 -11  -1   15.65    1.26
   2 -11  -1    1.47    0.70
   1 -11  -1   14.17    1.20
   0 -11  -1    1.37    0.68
   0 -11  -1    1.94    0.63
  -1 -11  -1    4.81    0.82
  -1 -11  -1    4.97    0.79
  -2 -11  -1    2.98    0.77
  -2 -11  -1    3.53    0.76
  -3 -11  -1    0.48    0.62
  -3 -11  -1    1.05    0.70
  -4 -11  -1    2.53    0.71
  -4 -11  -1    2.94    0.82
  -5 -11  -1    0.15    0.75
  -5 -11  -1   -0.32    0.63
  -6 -11  -1    1.20    0.79
  -6 -11  -1    0.94    0.69
  -7 -11  -1    0.97    0.81
   7 -12  -1   -0.31    0.79
   6 -12  -1    0.32    0.77
   5 -12  -1    0.20    0.74
   4 -12  -1    1.07    0.77
   3 -12  -1    9.21    1.09
   2 -12  -1    3.17    0.83
   1 -12  -1    3.91    0.85
   0 -12  -1    0.87    0.72
  -1 -12  -1    1.04    0.75
  -1 -12  -1    0.14    0.64
  -2 -12  -1    3.46    0.81
  -2 -12  -1    2.26    0.76
  -3 -12  -1   -0.21    0.68
  -3 -12  -1    0.53    0.73
  -4 -12  -1    1.62    0.70
  -4 -12  -1    0.89    0.75
  -5 -12  -1    1.14    0.79
  -5 -12  -1    1.51    0.75
   5 -13  -1    2.87    0.90
   4 -13  -1   -0.52    0.79
   3 -13  -1    2.00    0.84
   2 -13  -1    0.47    0.76
   1 -13  -1    0.90    0.78
   0 -13  -1   -0.55    0.77
  -1 -13  -1    1.25    0.84
  -2 -13  -1   -0.32    0.72
  -3 -13  -1    0.77    0.80
  -3 -13  -1    0.07    0.77
  -1 -14   2   -0.36    0.78
   0 -14   2    2.08    0.87
   1 -14   2    1.83    0.95
   2 -14   2    1.60    0.90
   3 -14   2    2.03    0.97
  -4 -13   2    0.18    0.76
  -4 -13   2   -0.12    0.67
  -3 -13   2    2.51    0.81
  -3 -13   2    2.38    0.81
  -2 -13   2   -0.62    0.69
  -2 -13   2    0.05    0.67
  -1 -13   2    2.10    0.77
   0 -13   2    0.12    0.79
   1 -13   2    5.66    1.01
   2 -13   2   -0.39    0.75
   3 -13   2    5.35    0.99
   4 -13   2   -0.45    0.77
   5 -13   2    0.35    0.86
   6 -13   2   -0.78    0.84
  -6 -12   2   -0.10    0.75
  -5 -12   2    2.04    0.79
  -4 -12   2   -0.72    0.70
  -4 -12   2   -0.07    0.62
  -3 -12   2    6.04    0.84
  -3 -12   2    5.65    0.91
  -2 -12   2    0.77    0.64
  -2 -12   2    0.75    0.65
  -1 -12   2    5.52    0.81
  -1 -12   2    4.68    0.81
   0 -12   2   -0.34    0.68
   1 -12   2    9.43    1.05
   2 -12   2   -0.07    0.73
   3 -12   2    2.12    0.80
   4 -12   2    1.32    0.78
   5 -12   2    0.29    0.74
   6 -12   2    1.94    0.91
   7 -12   2    1.64    0.94
   8 -12   2    0.84    1.00
  -8 -11   2    1.76    0.85
  -7 -11   2    0.30    0.77
  -6 -11   2    1.45    0.80
  -5 -11   2   -0.34    0.68
  -5 -11   2    0.14    0.57
  -4 -11   2    2.82    0.68
  -4 -11   2    2.86    0.78
  -3 -11   2    0.31    0.58
  -3 -11   2    0.37    0.59
  -2 -11   2    1.80    0.66
  -2 -11   2    2.46    0.68
  -1 -11   2    0.16    0.53
  -1 -11   2   -0.13    0.60
   0 -11   2    1.16    0.56
   0 -11   2    0.01    0.63
   1 -11   2    0.80    0.64
   2 -11   2    0.48    0.64
   3 -11   2    1.39    0.71
   4 -11   2    5.45    0.90
   5 -11   2    0.27    0.71
  -6  11  -2    3.12    0.76
   6 -11   2    1.76    0.82
  -7  11  -2   -0.10    0.65
   7 -11   2    0.37    0.78
   7 -11   2    0.52    0.67
   8 -11   2    2.70    0.94
   8 -11   2   -0.03    0.74
   9 -11   2   -0.15    0.82
   9 -11   2   -0.46    0.85
  -9 -10   2    2.59    0.95
  -8 -10   2    1.16    0.82
  -7 -10   2    2.25    0.79
  -6 -10   2    0.93    0.67
  -5 -10   2    0.93    0.52
  -5 -10   2    1.44    0.66
  -4 -10   2    0.34    0.51
  -4 -10   2    0.44    0.59
  -3 -10   2    0.62    0.58
  -3 -10   2    1.11    0.54
  -2 -10   2   -0.27    0.48
  -2 -10   2    0.73    0.52
  -1 -10   2    3.03    0.59
  -1 -10   2    3.47    0.64
   0 -10   2    0.79    0.58
   0 -10   2    0.23    0.45
   1 -10   2    0.30    0.58
   1 -10   2    0.02    0.43
   2 -10   2    0.88    0.64
   3 -10   2    6.62    0.86
  -4  10  -2    5.95    0.74
   4 -10   2    6.25    0.87
  -5  10  -2    7.83    0.85
   5 -10   2    8.01    0.96
  -6  10  -2    1.27    0.61
   6 -10   2    1.70    0.72
  -7  10  -2    3.77    0.78
   7 -10   2    3.32    0.83
  -8  10  -2    1.48    0.75
   8 -10   2    1.18    0.73
   8 -10   2    1.87    0.81
   9 -10   2    0.05    0.77
   9 -10   2    1.33    0.90
  10 -10   2    1.60    0.91
  10 -10   2    1.94    0.95
 -10  -9   2    0.83    0.81
  -9  -9   2    1.18    0.76
  -8  -9   2    1.03    0.71
  -7  -9   2    2.82    0.77
  -6  -9   2    2.91    0.73
  -5  -9   2    9.23    0.98
  -5  -9   2   11.98    0.88
  -4  -9   2   -0.15    0.45
  -4  -9   2   -0.11    0.51
  -3  -9   2   50.15    2.08
  -3  -9   2   51.15    2.27
  -2  -9   2    0.62    0.50
  -2  -9   2    1.04    0.49
  -1  -9   2   72.10    2.97
  -1  -9   2   74.25    2.83
   0  -9   2    3.83    0.57
   0  -9   2    4.00    0.64
   1  -9   2   37.69    1.68
   1  -9   2   38.74    1.76
  -2   9  -2    4.13    0.52
   2  -9   2    3.62    0.66
   2  -9   2    3.86    0.47
  -3   9  -2   18.25    1.04
   3  -9   2   16.14    1.14
  -4   9  -2    1.40    0.49
   4  -9   2    2.26    0.63
  -5   9  -2    7.23    0.80
   5  -9   2    6.30    0.85
  -6   9  -2    3.38    0.68
   6  -9   2    3.56    0.77
  -7   9  -2    2.81    0.72
   7  -9   2    3.43    0.80
  -8   9  -2    6.93    0.96
   8  -9   2    6.16    0.94
  -9   9  -2   -0.78    0.67
   9  -9   2   -0.27    0.75
   9  -9   2   -0.08    0.70
  10  -9   2    3.27    0.89
  10  -9   2    2.51    0.87
  11  -9   2    0.13    0.83
  11  -9   2   -0.49    0.85
 -11  -8   2   -0.43    0.78
 -10  -8   2    1.43    0.85
  -9  -8   2    1.47    0.75
  -8  -8   2    2.67    0.75
  -7  -8   2    2.12    0.70
  -6  -8   2    0.79    0.59
  -6  -8   2    0.44    0.43
  -5  -8   2    3.80    0.54
  -5  -8   2    3.34    0.68
  -4  -8   2    8.98    0.71
  -4  -8   2    6.90    0.79
  -3  -8   2   17.94    1.03
  -3  -8   2   19.23    1.18
  -2  -8   2    4.90    0.61
  -2  -8   2    4.07    0.59
  -1  -8   2   47.04    1.96
  -1  -8   2   49.15    2.07
   0   8  -2    6.82    0.55
   0  -8   2    6.94    0.63
   0  -8   2    6.92    0.72
  -1   8  -2   68.90    2.80
   1  -8   2   70.29    2.70
   1  -8   2   69.92    2.72
  -2   8  -2    3.33    0.46
   2  -8   2    2.47    0.39
   2  -8   2    2.34    0.56
  -3   8  -2   16.51    0.98
   3  -8   2   18.04    1.13
  -4   8  -2    7.00    0.71
   4  -8   2    8.29    0.83
  -5   8  -2    6.49    0.75
   5  -8   2    8.53    0.85
  -6   8  -2   27.56    1.47
   6  -8   2   23.48    1.42
  -7   8  -2    7.26    0.89
   7  -8   2    7.00    0.86
  -8   8  -2    7.97    0.97
   8  -8   2    8.88    0.96
  -9   8  -2    2.42    0.77
   9  -8   2    3.45    0.77
 -10   8  -2    0.79    0.79
  10  -8   2    2.62    0.86
  10  -8   2    2.42    0.79
  11  -8   2    1.27    0.83
  11  -8   2    2.01    0.87
  12  -8   2    0.49    0.83
  12  -8   2    2.00    0.95
 -11  -7   2    0.30    0.76
 -10  -7   2    2.11    0.78
  -9  -7   2   -0.27    0.61
  -8  -7   2    2.82    0.71
  -7  -7   2    0.46    0.57
  -6  -7   2    7.24    0.83
  -6  -7   2    7.87    0.63
  -5  -7   2    0.50    0.49
  -5  -7   2    0.96    0.36
  -4  -7   2    3.94    0.62
  -4  -7   2    4.76    0.51
  -3  -7   2   -0.14    0.35
  -3  -7   2   -0.23    0.38
   2   7  -2    9.79    0.55
  -2  -7   2    7.46    0.70
  -2  -7   2    9.06    0.68
   1   7  -2   19.52    0.91
  -1  -7   2   19.85    1.05
  -1  -7   2   19.76    1.05
   0  -7   2    0.19    0.32
   0  -7   2    0.29    0.40
  -1   7  -2    6.90    0.55
   1  -7   2    6.61    0.53
   1  -7   2    7.33    0.65
  -2   7  -2    9.37    0.71
   2  -7   2    9.68    0.59
   2  -7   2   10.69    0.80
  -3   7  -2    1.44    0.39
   3  -7   2    1.05    0.24
   3  -7   2    0.52    0.46
  -4   7  -2   18.84    1.08
   4  -7   2   18.00    1.10
  -5   7  -2    3.58    0.60
   5  -7   2    5.14    0.72
  -6   7  -2    7.64    0.83
   6  -7   2   11.69    0.94
  -7   7  -2    4.33    0.71
   7  -7   2    4.12    0.70
  -8   7  -2    8.79    0.98
   8  -7   2    7.93    0.89
  -9   7  -2    0.68    0.65
   9  -7   2    1.77    0.70
 -10   7  -2    1.27    0.78
  10  -7   2    0.57    0.65
  10  -7   2    0.26    0.71
  11  -7   2    1.24    0.78
  11  -7   2    0.69    0.80
  12  -7   2    0.12    0.79
  12  -7   2    0.60    0.83
 -12  -6   2    0.09    0.83
 -11  -6   2   -0.13    0.70
 -10  -6   2    1.00    0.69
  -9  -6   2    3.19    0.74
  -8  -6   2    3.80    0.72
  -7  -6   2    2.96    0.63
  -6  -6   2   11.24    0.72
  -6  -6   2   11.15    0.93
   5   6  -2   12.71    0.80
  -5  -6   2   13.25    0.75
  -5  -6   2   13.76    0.95
   4   6  -2   14.89    0.78
  -4  -6   2   14.32    0.78
  -4  -6   2   13.55    0.93
   3   6  -2    7.23    0.51
  -3  -6   2    8.40    0.69
  -3  -6   2    7.79    0.59
   2   6  -2   17.01    0.78
  -2  -6   2   16.15    0.83
  -2  -6   2   16.82    0.92
   1   6  -2    7.96    0.51
  -1  -6   2    8.56    0.66
  -1  -6   2    9.02    0.61
   0   6  -2   49.18    2.01
   0  -6   2   52.33    1.99
   0  -6   2   49.10    1.92
  -1   6  -2   56.30    2.26
   1  -6   2   56.43    2.16
   1  -6   2   55.08    2.12
  -2   6  -2   32.31    1.37
   2  -6   2   28.42    1.32
   2  -6   2   29.60    1.22
  -3   6  -2   47.64    2.03
   3  -6   2   49.03    1.92
   3  -6   2   46.33    1.76
  -4   6  -2    7.20    0.66
   4  -6   2    8.28    0.72
  -5   6  -2    7.20    0.73
   5  -6   2    8.29    0.74
  -6   6  -2    1.35    0.51
   6  -6   2    2.15    0.57
  -7   6  -2    2.17    0.60
   7  -6   2    2.64    0.63
  -8   6  -2    3.44    0.72
   8  -6   2    5.71    0.74
  -9   6  -2    0.99    0.65
   9  -6   2    0.80    0.59
 -10   6  -2    2.68    0.80
  10  -6   2    2.28    0.75
  10  -6   2    2.77    0.72
  11  -6   2    2.10    0.82
  11  -6   2    2.30    0.76
  12  -6   2    0.17    0.81
  13  -6   2    0.11    0.85
 -12  -5   2    1.45    0.77
 -11  -5   2    1.71    0.72
 -10  -5   2    1.64    0.70
  -9  -5   2    4.82    0.77
   8   5  -2    4.95    0.67
  -8  -5   2    5.53    0.75
   7   5  -2    9.18    0.77
  -7  -5   2    7.07    0.79
   6   5  -2   10.32    0.78
  -6  -5   2    9.45    0.61
  -6  -5   2    8.62    0.81
   5   5  -2   42.36    1.86
  -5  -5   2   46.52    1.96
  -5  -5   2   44.47    1.64
   4   5  -2    4.49    0.42
  -4  -5   2    3.44    0.36
  -4  -5   2    3.53    0.50
   3   5  -2   27.17    1.22
  -3  -5   2   28.56    1.14
  -3  -5   2   30.59    1.33
   2   5  -2   15.79    0.73
  -2  -5   2   14.30    0.73
  -2  -5   2   14.73    0.81
   1   5  -2   13.47    0.63
  -1  -5   2   11.70    0.67
  -1  -5   2   11.10    0.69
   0   5  -2    5.77    0.44
   0  -5   2    6.57    0.46
   0  -5   2    6.37    0.48
  -1   5  -2    1.51    0.28
   1  -5   2    2.20    0.36
   1  -5   2    2.76    0.28
  -2   5  -2    2.09    0.33
   2  -5   2    2.19    0.37
   2  -5   2    2.25    0.23
  -3   5  -2   62.39    2.57
   3  -5   2   63.71    2.35
  -4   5  -2    6.01    0.57
   4  -5   2    6.44    0.57
  -5   5  -2   27.23    1.35
   5  -5   2   26.39    1.25
  -6   5  -2    1.34    0.46
   6  -5   2    0.42    0.43
  -7   5  -2   14.05    1.01
   7  -5   2   11.65    0.92
  -8   5  -2    2.10    0.60
   8  -5   2    1.86    0.54
  -9   5  -2    5.44    0.81
   9  -5   2    4.82    0.71
 -10   5  -2    1.70    0.70
  10  -5   2    2.88    0.74
  10  -5   2    2.32    0.65
  11  -5   2    2.83    0.71
  11  -5   2    2.34    0.79
  12  -5   2    2.75    0.93
  13  -5   2    0.54    0.87
 -13  -4   2    0.39    0.75
 -12  -4   2    1.38    0.76
  11   4  -2    0.97    0.69
 -11  -4   2    1.73    0.71
  10   4  -2    1.98    0.71
 -10  -4   2    1.12    0.62
   9   4  -2    0.38    0.57
  -9  -4   2   -0.08    0.51
   8   4  -2    1.03    0.50
  -8  -4   2    0.46    0.47
   7   4  -2    2.99    0.54
  -7  -4   2    3.26    0.57
  -7  -4   2    2.89    0.34
   6   4  -2    3.05    0.48
  -6  -4   2    1.54    0.28
  -6  -4   2    1.78    0.47
   5   4  -2    7.40    0.57
  -5  -4   2    7.08    0.65
  -5  -4   2    7.73    0.47
   4   4  -2    1.35    0.29
  -4  -4   2    0.37    0.19
  -4  -4   2    0.82    0.32
   3   4  -2   35.91    1.53
  -3  -4   2   37.44    1.36
  -3  -4   2   38.72    1.57
   2   4  -2   15.91    0.76
  -2  -4   2   17.37    0.82
  -2  -4   2   16.72    0.71
   1   4  -2  187.62    7.15
  -1  -4   2  194.10    6.41
  -1  -4   2  192.22    6.92
   0   4  -2    4.06    0.34
   0  -4   2    3.23    0.33
   0  -4   2    3.24    0.30
  -1   4  -2   72.38    2.76
   1  -4   2   69.45    2.50
   1  -4   2   70.69    2.61
  -2   4  -2   53.42    2.11
   2  -4   2   53.66    1.92
   2  -4   2   50.06    1.91
  -3   4  -2   34.96    1.50
   3  -4   2   33.64    1.36
  -4   4  -2   10.37    0.66
   4  -4   2    8.54    0.63
  -5   4  -2   12.55    0.82
   5  -4   2   13.25    0.81
  -6   4  -2    2.51    0.49
  -7   4  -2   16.31    1.08
   8  -4   2    6.63    0.71
  -9   4  -2    0.79    0.55
   9  -4   2    1.81    0.53
 -10   4  -2    0.70    0.66
  10  -4   2    0.65    0.55
  10  -4   2    0.59    0.64
  11  -4   2    0.43    0.70
  11  -4   2    1.22    0.60
  12  -4   2    1.56    0.86
  13  -4   2    1.57    0.90
  12   3  -2    2.69    0.84
 -12  -3   2    0.98    0.71
  11   3  -2    1.47    0.71
 -11  -3   2    0.09    0.55
  10   3  -2    6.58    0.83
 -10  -3   2    3.97    0.72
   9   3  -2    0.36    0.54
  -9  -3   2    0.57    0.51
   8   3  -2   10.40    0.87
  -8  -3   2    7.41    0.77
   7   3  -2    0.95    0.46
  -7  -3   2    0.92    0.26
  -7  -3   2    0.88    0.46
   6   3  -2   11.13    0.75
  -6  -3   2    8.91    0.74
  -6  -3   2    9.31    0.50
   5   3  -2    5.42    0.50
  -5  -3   2    5.27    0.52
  -5  -3   2    5.20    0.34
  -4  -3   2   16.13    0.63
  -4  -3   2   14.36    0.82
   3   3  -2   21.25    0.95
  -3  -3   2   21.29    0.80
  -3  -3   2   21.14    0.98
   2   3  -2   67.33    2.67
  -2  -3   2   69.89    2.63
  -2  -3   2   71.11    2.37
   1   3  -2   39.54    1.58
  -1  -3   2   39.88    1.42
  -1  -3   2   39.68    1.55
   0   3  -2  295.74   11.55
   0  -3   2  321.74   11.09
   0  -3   2  316.16   10.30
  -1   3  -2    1.10    0.22
   1  -3   2    1.41    0.24
   1  -3   2    1.03    0.16
  -2   3  -2   71.72    2.77
   2  -3   2   69.89    2.55
  -3   3  -2   10.07    0.61
  -4   3  -2   16.29    0.88
  -5   3  -2    1.76    0.38
  -6   3  -2    6.35    0.64
  -7   3  -2   15.71    1.03
  -8   3  -2    7.57    0.82
  -9   3  -2    3.84    0.71
 -10   3  -2    2.85    0.73
  10  -3   2    0.75    0.64
  11  -3   2    2.47    0.79
  12  -3   2   -0.01    0.76
  13  -3   2    1.54    0.96
  13   2  -2    0.07    0.82
  12   2  -2    0.49    0.75
 -12  -2   2    0.43    0.63
  11   2  -2    0.36    0.66
 -11  -2   2    0.47    0.56
  10   2  -2    0.01    0.57
 -10  -2   2    0.18    0.47
   9   2  -2    0.23    0.51
  -9  -2   2    0.07    0.46
   8   2  -2    8.30    0.78
  -8  -2   2    8.39    0.74
   7   2  -2    3.34    0.54
  -7  -2   2    3.90    0.53
   6   2  -2   10.00    0.71
  -6  -2   2    8.33    0.45
  -6  -2   2    8.87    0.69
   5   2  -2   22.81    1.11
  -5  -2   2   23.24    1.10
  -5  -2   2   24.51    0.87
  -4  -2   2    1.46    0.15
  -4  -2   2    1.17    0.29
   3   2  -2  103.08    3.95
  -3  -2   2  104.33    3.83
  -3  -2   2  103.26    3.44
  -2  -2   2    4.93    0.26
  -2  -2   2    4.97    0.38
   1   2  -2   43.13    1.64
  -1  -2   2   40.44    1.58
  -1  -2   2   40.91    1.43
   0   2  -2   69.07    2.58
   0  -2   2   65.21    2.46
  -1   2  -2   23.31    0.99
  -2   2  -2   18.12    0.83
  -3   2  -2   44.73    1.84
  -4   2  -2    4.17    0.43
  -5   2  -2    8.90    0.65
  -5   2  -2    9.42    0.49
  -6   2  -2    1.14    0.25
  -6   2  -2    1.68    0.41
  -7   2  -2    4.99    0.61
  -7   2  -2    4.23    0.41
  -8   2  -2    3.00    0.42
  -8   2  -2    2.49    0.58
  -9   2  -2    1.30    0.54
 -10   2  -2    1.21    0.64
  10  -2   2    0.81    0.68
  11  -2   2    4.14    0.86
  12  -2   2    1.57    0.86
  13  -2   2    1.63    0.86
  13   1  -2    0.13    0.84
  12   1  -2   -0.35    0.71
  11   1  -2    0.36    0.61
 -11  -1   2    0.22    0.51
  10   1  -2    1.13    0.63
 -10  -1   2    1.90    0.54
   9   1  -2    3.18    0.64
  -9  -1   2    2.84    0.54
   8   1  -2    0.79    0.51
  -8  -1   2    0.05    0.39
   7   1  -2   11.38    0.87
  -7  -1   2   12.93    0.82
   6   1  -2   13.52    0.86
  -6  -1   2   14.65    0.79
   5   1  -2  156.35    6.16
  -5  -1   2  165.83    5.90
   4   1  -2   22.96    1.04
  -4  -1   2   22.96    1.01
   3   1  -2  217.84    8.27
  -3  -1   2  224.25    7.94
   2   1  -2   33.44    1.36
  -2  -1   2   33.69    1.31
   1   1  -2   36.77    1.42
  -1  -1   2   35.20    1.36
   0   1  -2  201.28    6.37
   0   1  -2  184.65    7.18
  -1   1  -2  118.25    4.41
  -1   1  -2  116.32    3.91
  -2   1  -2   17.31    0.79
  -3   1  -2   40.56    1.66
  -3   1  -2   39.66    1.45
  -3   1  -2   40.75    1.52
  -4   1  -2   21.30    0.88
  -4   1  -2   21.19    0.86
  -4   1  -2   20.97    0.99
  -5   1  -2   27.26    1.26
  -5   1  -2   26.56    1.12
  -6   1  -2   13.53    0.72
  -6   1  -2   13.65    0.84
  -7   1  -2   11.36    0.84
  -7   1  -2   11.20    0.69
  -8   1  -2    2.07    0.53
  -8   1  -2    2.68    0.42
  -9   1  -2    3.68    0.52
  -9   1  -2    3.89    0.68
   9  -1   2    3.91    0.69
  10  -1   2    2.13    0.69
  11  -1   2    5.19    0.92
  12  -1   2    0.65    0.78
  13  -1   2    1.28    0.89
  14   0  -2   -0.21    0.84
  13   0  -2    2.13    0.90
  12   0  -2    0.53    0.76
  11   0  -2    1.50    0.73
  10   0  -2   12.53    1.12
 -10   0   2   12.06    0.92
   9   0  -2    1.46    0.59
  -9   0   2    1.43    0.44
   8   0  -2    9.32    0.64
   8   0  -2    9.67    0.87
  -8   0   2   10.04    0.74
   7   0  -2    3.92    0.56
  -7   0   2    1.87    0.38
   6   0  -2    3.79    0.51
  -6   0   2    3.16    0.40
   5   0  -2   13.81    0.82
  -5   0   2   16.21    0.76
   4   0  -2   63.50    2.36
   4   0  -2   58.62    1.98
  -4   0   2   53.33    2.20
   3   0  -2   37.85    1.39
   3   0  -2   40.31    1.66
  -3   0   2   44.54    1.57
   2   0  -2    2.44    0.27
   2   0  -2    2.45    0.16
   1   0  -2   52.46    1.74
   1   0  -2   51.61    2.00
   0   0  -2   36.50    1.24
   0   0  -2   35.86    1.40
  -1   0  -2   82.74    2.79
  -1   0  -2   83.54    3.14
  -2   0  -2   54.88    2.09
  -2   0  -2   52.34    1.86
  -2   0  -2   54.03    2.00
  -3   0  -2  113.09    4.34
  -3   0  -2  113.83    3.86
  -3   0  -2  115.50    4.15
  -4   0  -2   85.33    3.31
  -4   0  -2   85.36    3.16
  -4   0  -2   84.45    2.93
  -5   0  -2   40.74    1.55
  -5   0  -2   41.46    1.66
  -5   0  -2   41.37    1.76
  -6   0  -2   18.96    0.94
  -6   0  -2   19.62    0.89
  -6   0  -2   17.64    1.01
  -7   0  -2    0.25    0.37
  -7   0  -2    0.45    0.32
  -7   0  -2    0.44    0.34
  -8   0  -2    1.77    0.52
  -8   0  -2    2.03    0.44
  -9   0  -2   -0.05    0.42
   9   0   2   -0.04    0.52
 -10   0  -2    1.79    0.54
  10   0   2    0.98    0.65
  11   0   2    0.96    0.70
  12   0   2   -0.32    0.73
  13   0   2    1.29    0.89
  14  -1  -2   -0.31    0.82
  13  -1  -2    1.75    0.90
  11  -1  -2    2.93    0.84
  10  -1  -2    6.57    0.88
   9  -1  -2    5.54    0.79
  -9   1   2    8.14    0.65
   8  -1  -2   15.92    0.80
   8  -1  -2   14.96    1.04
  -8   1   2   11.87    0.81
   7  -1  -2    7.43    0.71
   7  -1  -2    7.21    0.56
  -7   1   2    7.84    0.58
   6  -1  -2    7.57    0.63
   6  -1  -2    6.90    0.47
  -6   1   2    4.92    0.44
   5  -1  -2   62.42    2.19
   5  -1  -2   62.93    2.57
  -5   1   2   63.23    2.37
   4  -1  -2   38.28    1.65
   4  -1  -2   37.93    1.40
  -4   1   2   41.43    1.52
   3  -1  -2   20.49    0.80
   3  -1  -2   21.16    0.96
  -3   1   2   21.45    0.86
   2  -1  -2  349.65   12.77
   2  -1  -2  338.34   11.33
   1  -1  -2   22.29    0.95
   1  -1  -2   23.70    0.85
   0  -1  -2   85.62    3.23
   0  -1  -2   86.50    2.90
  -1  -1  -2   54.43    1.89
  -1  -1  -2   55.54    2.04
  -1  -1  -2   53.87    2.08
  -2  -1  -2  140.47    4.68
  -2  -1  -2  140.79    5.22
  -2  -1  -2  137.42    5.06
  -3  -1  -2    6.88    0.47
  -3  -1  -2    6.82    0.41
  -3  -1  -2    6.45    0.40
  -4  -1  -2   71.25    2.76
  -4  -1  -2   74.09    2.54
  -4  -1  -2   73.11    2.85
  -5  -1  -2    3.21    0.39
  -5  -1  -2    3.10    0.34
  -5  -1  -2    3.17    0.39
  -6  -1  -2   26.71    1.24
  -6  -1  -2   26.59    1.14
  -6  -1  -2   27.21    1.28
  -7  -1  -2    4.25    0.55
  -7  -1  -2    4.64    0.48
  -7  -1  -2    4.75    0.55
  -8  -1  -2   13.28    0.78
  -8  -1  -2   11.70    0.88
   8   1   2    9.56    0.88
  -9  -1  -2    1.33    0.41
  -9  -1  -2    0.95    0.48
   9   1   2    1.36    0.56
 -10  -1  -2    1.60    0.57
  10   1   2    1.44    0.65
 -11  -1  -2    0.34    0.56
  11   1   2   -0.03    0.64
  12   1   2    0.76    0.76
  13   1   2    1.41    0.88
  14  -2  -2    1.15    0.89
  13  -2  -2    0.03    0.81
  12  -2  -2    3.14    0.93
  11  -2  -2    0.44    0.73
  10  -2  -2    2.29    0.72
   9  -2  -2    0.45    0.42
   9  -2  -2    0.85    0.59
   8  -2  -2    4.75    0.67
   8  -2  -2    3.82    0.50
  -8   2   2    4.19    0.45
   7  -2  -2    7.27    0.57
   7  -2  -2    6.58    0.72
  -7   2   2    8.28    0.56
   6  -2  -2    9.51    0.72
   6  -2  -2   10.13    0.60
  -6   2   2    6.37    0.50
   5  -2  -2   17.88    0.79
   5  -2  -2   16.43    0.93
  -5   2   2   16.96    0.75
   4  -2  -2   25.47    0.92
   4  -2  -2   24.40    1.07
  -4   2   2   17.75    0.89
   3  -2  -2   15.26    0.74
   3  -2  -2   14.26    0.64
   2  -2  -2  152.72    5.23
   2  -2  -2  159.54    5.88
   1  -2  -2  161.24    5.41
   1  -2  -2  162.00    6.03
   0  -2  -2   44.88    1.58
   0  -2  -2   43.75    1.69
  -1  -2  -2    1.93    0.23
  -1  -2  -2    1.64    0.15
  -1  -2  -2    1.65    0.23
  -2  -2  -2   10.03    0.49
  -2  -2  -2    9.41    0.45
  -2  -2  -2    9.28    0.55
  -3  -2  -2   26.26    1.13
  -3  -2  -2   24.62    1.00
  -3  -2  -2   25.74    1.06
  -4  -2  -2    6.12    0.47
  -4  -2  -2    6.54    0.44
  -4  -2  -2    5.94    0.50
  -5  -2  -2   21.20    0.92
  -5  -2  -2   20.50    0.99
  -5  -2  -2   20.24    1.03
  -6  -2  -2    0.58    0.37
  -6  -2  -2    1.22    0.33
  -6  -2  -2    1.07    0.34
   6   2   2    1.54    0.37
  -7  -2  -2   10.39    0.84
  -7  -2  -2   10.75    0.74
   7   2   2   11.98    0.82
  -8  -2  -2   10.95    0.79
  -8  -2  -2   10.87    0.88
   8   2   2   14.01    0.97
  -9  -2  -2    6.25    0.63
  -9  -2  -2    5.36    0.71
   9   2   2    5.37    0.73
 -10  -2  -2    0.41    0.55
  10   2   2   -0.22    0.55
 -11  -2  -2    2.49    0.71
  11   2   2    3.93    0.79
 -12  -2  -2    1.18    0.71
  13  -3  -2    0.33    0.88
  12  -3  -2    1.48    0.85
  11  -3  -2    2.03    0.79
  10  -3  -2    0.25    0.60
   9  -3  -2    3.91    0.70
   9  -3  -2    5.47    0.61
   8  -3  -2    1.28    0.54
   8  -3  -2    2.35    0.48
   7  -3  -2   35.98    1.80
   7  -3  -2   36.96    1.56
  -7   3   2   39.54    1.50
   6  -3  -2    8.38    0.64
   6  -3  -2    9.57    0.78
  -6   3   2    8.18    0.49
   5  -3  -2   79.02    3.21
   5  -3  -2   77.24    2.81
  -5   3   2   81.14    2.91
   4  -3  -2    2.48    0.38
   4  -3  -2    2.55    0.34
   3  -3  -2   14.64    0.69
   3  -3  -2   12.99    0.73
   2  -3  -2    9.43    0.53
   2  -3  -2    9.57    0.53
   1  -3  -2    2.25    0.22
   1  -3  -2    1.85    0.25
   0  -3  -2   76.35    2.64
   0  -3  -2   75.79    2.82
   0  -3  -2   75.24    2.85
  -1  -3  -2    2.97    0.33
  -1  -3  -2    3.77    0.33
  -2  -3  -2    0.33    0.21
  -2  -3  -2    0.39    0.21
  -3  -3  -2    1.78    0.20
  -3  -3  -2    1.47    0.27
  -3  -3  -2    1.30    0.32
  -4  -3  -2    0.47    0.26
  -4  -3  -2    0.28    0.20
  -4  -3  -2    0.50    0.31
   4   3   2    0.45    0.21
  -5  -3  -2   12.66    0.80
  -5  -3  -2   12.20    0.70
   5   3   2   11.03    0.67
  -6  -3  -2    4.58    0.47
  -6  -3  -2    5.12    0.60
   6   3   2    4.64    0.50
  -7  -3  -2   15.33    1.06
  -7  -3  -2   15.18    0.86
   7   3   2   14.28    0.93
  -8  -3  -2    3.64    0.62
  -8  -3  -2    2.67    0.49
   8   3   2    2.99    0.54
  -9  -3  -2    3.86    0.68
  -9  -3  -2    4.00    0.56
   9   3   2    3.03    0.58
 -10  -3  -2   -0.32    0.57
 -11  -3  -2    2.04    0.72
 -12  -3  -2    2.93    0.82
  13  -4  -2   -0.55    0.80
  12  -4  -2    1.93    0.85
  11  -4  -2    1.71    0.75
  10  -4  -2   -0.12    0.59
   9  -4  -2    4.91    0.76
   9  -4  -2    4.31    0.62
   8  -4  -2    6.74    0.80
   8  -4  -2    8.32    0.72
   7  -4  -2   28.84    1.32
   7  -4  -2   27.01    1.49
   6  -4  -2    4.40    0.61
   6  -4  -2    3.86    0.52
  -6   4   2    4.29    0.32
   5  -4  -2   20.05    1.09
   5  -4  -2   21.07    1.01
  -5   4   2   19.43    0.84
   4  -4  -2   21.16    0.99
   4  -4  -2   21.83    1.08
   3  -4  -2   10.51    0.65
   3  -4  -2   11.27    0.67
   2  -4  -2   45.72    1.74
   2  -4  -2   46.47    1.86
   1  -4  -2   53.51    2.09
   1  -4  -2   53.88    1.98
   0  -4  -2   26.09    1.06
   0  -4  -2   26.76    1.10
   0  -4  -2   27.93    1.16
  -1  -4  -2   30.24    1.29
  -1  -4  -2   29.72    1.21
  -2  -4  -2   86.33    3.32
  -2  -4  -2   88.27    3.08
  -3  -4  -2    7.99    0.56
  -3  -4  -2    7.70    0.62
  -4  -4  -2   35.51    1.41
  -4  -4  -2   38.33    1.61
   4   4   2   33.63    1.41
  -5  -4  -2    3.63    0.54
  -5  -4  -2    3.17    0.44
   5   4   2    3.32    0.35
  -6  -4  -2    1.36    0.40
  -6  -4  -2    1.65    0.50
   6   4   2    1.88    0.38
  -7  -4  -2    0.31    0.46
  -7  -4  -2   -0.03    0.35
   7   4   2    0.43    0.38
  -8  -4  -2    2.43    0.62
  -8  -4  -2    1.26    0.43
  -9  -4  -2   -0.05    0.54
  -9  -4  -2   -0.23    0.42
 -10  -4  -2    2.60    0.72
 -11  -4  -2    0.16    0.65
 -12  -4  -2    2.07    0.84
  13  -5  -2    0.58    0.88
  12  -5  -2    0.01    0.78
  11  -5  -2    0.57    0.70
  10  -5  -2    7.16    0.83
  10  -5  -2    5.16    0.90
   9  -5  -2   -0.18    0.52
   9  -5  -2    0.64    0.57
   8  -5  -2    2.40    0.57
   8  -5  -2    1.69    0.62
   7  -5  -2    5.58    0.67
   7  -5  -2    5.85    0.74
   6  -5  -2    3.21    0.54
   6  -5  -2    4.73    0.65
   5  -5  -2    9.04    0.73
   5  -5  -2    8.06    0.69
   4  -5  -2   15.77    0.89
   4  -5  -2   14.49    0.89
   3  -5  -2   24.03    1.11
   3  -5  -2   24.16    1.13
   2  -5  -2   18.50    0.89
   2  -5  -2   19.57    0.94
   1  -5  -2   15.83    0.83
   1  -5  -2   14.94    0.71
   0  -5  -2   66.93    2.47
   0  -5  -2   66.71    2.54
   0  -5  -2   68.39    2.61
  -1  -5  -2   21.61    1.02
  -1  -5  -2   22.60    1.07
  -2  -5  -2   25.47    1.14
  -2  -5  -2   26.13    1.23
  -3  -5  -2    4.29    0.47
  -3  -5  -2    3.38    0.51
  -4  -5  -2    7.86    0.74
  -4  -5  -2    9.70    0.66
  -5  -5  -2    1.61    0.50
  -5  -5  -2    1.54    0.42
  -6  -5  -2    2.45    0.58
  -6  -5  -2    3.27    0.48
  -7  -5  -2    2.70    0.60
  -7  -5  -2    1.38    0.48
  -8  -5  -2    2.37    0.51
  -8  -5  -2    2.35    0.68
  -9  -5  -2    0.83    0.61
 -10  -5  -2    2.84    0.80
 -11  -5  -2    0.26    0.69
 -12  -5  -2    2.43    0.89
  13  -6  -2    0.79    0.92
  12  -6  -2   -0.13    0.80
  11  -6  -2    0.33    0.71
  10  -6  -2   -0.15    0.60
  10  -6  -2    0.43    0.67
   9  -6  -2   -0.09    0.58
   9  -6  -2   -0.06    0.57
   8  -6  -2    4.75    0.77
   8  -6  -2    3.98    0.69
   7  -6  -2    2.08    0.60
   7  -6  -2    2.79    0.58
   6  -6  -2    7.43    0.76
   6  -6  -2    6.59    0.74
   5  -6  -2    2.62    0.56
   5  -6  -2    3.06    0.55
   4  -6  -2    8.27    0.70
   4  -6  -2    7.53    0.70
   3  -6  -2    0.75    0.33
   3  -6  -2    0.81    0.43
   2  -6  -2    2.82    0.49
   2  -6  -2    3.24    0.39
   1  -6  -2    1.99    0.44
   1  -6  -2    1.96    0.27
   0  -6  -2    0.65    0.38
   0  -6  -2    1.23    0.37
  -1  -6  -2    6.68    0.62
  -1  -6  -2    6.69    0.60
  -2  -6  -2    5.29    0.55
  -2  -6  -2    5.00    0.59
  -3  -6  -2    9.13    0.77
  -3  -6  -2    8.59    0.68
  -4  -6  -2    0.37    0.43
  -4  -6  -2    0.40    0.41
  -5  -6  -2    3.75    0.51
  -5  -6  -2    2.50    0.59
  -6  -6  -2    5.91    0.64
  -6  -6  -2    5.76    0.77
  -7  -6  -2    2.29    0.66
  -7  -6  -2    2.20    0.53
  -8  -6  -2   -0.40    0.49
  -8  -6  -2   -0.21    0.57
  -9  -6  -2    2.27    0.72
 -10  -6  -2    0.75    0.77
 -11  -6  -2    1.49    0.81
  12  -7  -2    0.48    0.85
  11  -7  -2    0.52    0.82
  10  -7  -2    0.21    0.73
  10  -7  -2    0.25    0.68
   9  -7  -2    3.98    0.79
   9  -7  -2    3.85    0.78
   8  -7  -2    2.99    0.72
   8  -7  -2    3.47    0.71
   7  -7  -2    8.49    0.90
   7  -7  -2   10.00    0.92
   6  -7  -2   -0.28    0.51
   6  -7  -2    0.38    0.49
   5  -7  -2   23.01    1.25
   5  -7  -2   23.28    1.27
   4  -7  -2    1.85    0.54
   4  -7  -2    1.86    0.47
   3  -7  -2   37.65    1.67
   3  -7  -2   38.07    1.67
   2  -7  -2    6.78    0.70
   2  -7  -2    7.38    0.60
   1  -7  -2   23.24    1.20
   1  -7  -2   22.94    1.02
   0  -7  -2   16.95    1.01
   0  -7  -2   18.23    1.03
  -1  -7  -2    6.55    0.67
  -1  -7  -2    6.35    0.66
  -2  -7  -2    5.60    0.66
  -2  -7  -2    6.34    0.65
  -3  -7  -2    4.13    0.59
  -3  -7  -2    3.69    0.62
  -4  -7  -2    0.17    0.41
  -4  -7  -2   -0.17    0.46
  -5  -7  -2    6.94    0.82
  -5  -7  -2    6.13    0.66
  -6  -7  -2    0.43    0.55
  -6  -7  -2    0.68    0.50
  -7  -7  -2    1.73    0.55
  -7  -7  -2    2.34    0.68
  -8  -7  -2    0.36    0.63
  -8  -7  -2   -0.14    0.50
  -9  -7  -2    1.02    0.73
 -10  -7  -2    2.02    0.82
  11  -8  -2    1.78    0.91
  10  -8  -2    1.46    0.82
  10  -8  -2    1.63    0.82
   9  -8  -2   -0.34    0.71
   9  -8  -2    1.44    0.70
   8  -8  -2    1.33    0.73
   8  -8  -2    2.66    0.72
   7  -8  -2    3.66    0.78
   7  -8  -2    2.75    0.65
   6  -8  -2    9.47    0.89
   6  -8  -2    7.54    0.82
   5  -8  -2    3.68    0.66
   5  -8  -2    4.32    0.62
   4  -8  -2   14.28    1.03
   4  -8  -2   15.75    0.98
   3  -8  -2    9.96    0.86
   3  -8  -2    8.25    0.72
   2  -8  -2   10.03    0.86
   1  -8  -2    1.25    0.53
   0  -8  -2   31.26    1.53
   0  -8  -2   33.22    1.55
  -1  -8  -2    8.39    0.77
  -1  -8  -2    7.27    0.76
  -2  -8  -2   13.61    1.03
  -2  -8  -2   14.44    1.03
  -3  -8  -2    2.37    0.60
  -3  -8  -2    3.09    0.59
  -4  -8  -2   14.91    1.09
  -4  -8  -2   14.19    1.00
  -5  -8  -2    1.10    0.60
  -5  -8  -2    0.52    0.49
  -6  -8  -2    4.42    0.80
  -6  -8  -2    5.12    0.72
  -7  -8  -2    1.06    0.57
  -7  -8  -2    0.79    0.66
  -8  -8  -2    2.87    0.82
  -9  -8  -2    1.05    0.79
 -10  -8  -2    1.58    0.90
  11  -9  -2    0.55    0.92
  10  -9  -2    1.23    0.79
  10  -9  -2    0.47    0.80
   9  -9  -2    0.41    0.73
   9  -9  -2    1.08    0.77
   8  -9  -2    2.56    0.73
   8  -9  -2    1.88    0.74
   7  -9  -2    7.57    0.93
   7  -9  -2    7.90    0.93
   6  -9  -2    3.73    0.70
   6  -9  -2    2.95    0.72
   5  -9  -2   10.60    0.92
   5  -9  -2    9.16    0.94
   4  -9  -2    9.75    0.96
   3  -9  -2    9.54    0.92
   2  -9  -2   15.43    1.14
   1  -9  -2    5.56    0.74
   0  -9  -2   14.29    1.00
   0  -9  -2   13.45    1.04
  -1  -9  -2   -0.18    0.49
  -1  -9  -2   -0.25    0.50
  -2  -9  -2   18.74    1.22
  -2  -9  -2   17.13    1.15
  -3  -9  -2    0.20    0.53
  -3  -9  -2    0.95    0.54
  -4  -9  -2   10.90    1.07
  -4  -9  -2   13.68    1.04
  -5  -9  -2    2.74    0.74
  -5  -9  -2    2.53    0.62
  -6  -9  -2    2.26    0.74
  -6  -9  -2    2.09    0.65
  -7  -9  -2    0.40    0.73
  -7  -9  -2    0.11    0.60
  -8  -9  -2    0.37    0.74
  -9  -9  -2    0.04    0.82
  10 -10  -2    3.47    0.93
  10 -10  -2    2.75    0.98
   9 -10  -2    0.89    0.81
   9 -10  -2    0.55    0.80
   8 -10  -2    1.27    0.79
   8 -10  -2    2.24    0.80
   7 -10  -2    2.00    0.78
   6 -10  -2    0.76    0.68
   5 -10  -2    2.67    0.77
   4 -10  -2    1.12    0.66
   3 -10  -2    1.14    0.64
   2 -10  -2    0.03    0.58
   1 -10  -2    0.87    0.61
   0 -10  -2    2.52    0.66
  -1 -10  -2   -0.05    0.60
  -1 -10  -2    0.10    0.55
  -2 -10  -2    8.00    0.91
  -2 -10  -2    8.50    0.94
  -3 -10  -2    0.41    0.58
  -3 -10  -2    1.55    0.65
  -4 -10  -2    5.56    0.88
  -4 -10  -2    5.10    0.80
  -5 -10  -2    1.30    0.74
  -5 -10  -2    1.86    0.67
  -6 -10  -2    0.98    0.66
  -6 -10  -2    0.88    0.74
  -7 -10  -2    0.37    0.79
  -8 -10  -2    0.76    0.80
   8 -11  -2    1.55    0.85
   7 -11  -2    0.12    0.73
   6 -11  -2    0.68    0.73
   5 -11  -2    0.28    0.71
   4 -11  -2    0.50    0.69
   3 -11  -2    1.95    0.74
   2 -11  -2    9.32    1.00
   1 -11  -2    4.12    0.78
   0 -11  -2    5.32    0.85
  -1 -11  -2    0.90    0.69
  -1 -11  -2   -0.44    0.59
  -2 -11  -2    1.15    0.67
  -2 -11  -2    0.85    0.67
  -3 -11  -2    0.14    0.63
  -3 -11  -2    0.39    0.65
  -4 -11  -2    0.74    0.70
  -4 -11  -2    0.14    0.71
  -5 -11  -2    0.32    0.67
  -5 -11  -2   -0.19    0.69
  -6 -11  -2    0.40    0.69
  -6 -11  -2   -0.09    0.74
   7 -12  -2    4.66    0.99
   6 -12  -2    1.25    0.87
   5 -12  -2    2.74    0.92
   4 -12  -2    2.04    0.80
   3 -12  -2    0.18    0.75
   2 -12  -2    3.64    0.87
   1 -12  -2    1.15    0.76
   0 -12  -2    1.55    0.82
  -1 -12  -2   -0.21    0.69
  -2 -12  -2    0.27    0.73
  -2 -12  -2    1.27    0.76
  -3 -12  -2   -1.19    0.63
  -3 -12  -2    0.63    0.71
  -4 -12  -2    0.47    0.78
  -4 -12  -2    1.63    0.75
   4 -13  -2    0.16    0.81
   3 -13  -2    2.31    0.87
   2 -13  -2    0.31    0.76
   1 -13  -2   -0.59    0.79
   0 -13  -2    2.27    0.89
  -1 -13  -2   -1.01    0.78
  -2 -14   3    2.34    0.86
  -1 -14   3   -0.30    0.74
   0 -14   3    4.78    1.03
   1 -14   3    0.89    0.81
   2 -14   3    1.04    0.86
   3 -14   3   -0.30    0.84
   4 -14   3   -0.06    0.82
  -5 -13   3    2.08    0.88
  -4 -13   3    0.49    0.73
  -3 -13   3    0.64    0.69
  -3 -13   3    0.69    0.68
  -2 -13   3    1.08    0.75
  -2 -13   3   -0.33    0.70
  -1 -13   3    0.67    0.75
   0 -13   3    1.66    0.82
   1 -13   3    2.46    0.84
   2 -13   3    1.64    0.83
   3 -13   3    2.30    0.93
   4 -13   3    1.17    0.86
   5 -13   3    3.02    0.92
   6 -13   3    2.13    1.00
   7 -13   3    1.43    0.97
  -6 -12   3    2.25    0.90
  -5 -12   3    1.67    0.82
  -4 -12   3    2.25    0.73
  -4 -12   3    1.95    0.78
  -3 -12   3    0.22    0.63
  -3 -12   3    0.72    0.64
  -2 -12   3    0.39    0.64
  -2 -12   3    1.16    0.65
  -1 -12   3    3.27    0.80
  -1 -12   3    3.72    0.74
   0 -12   3    0.35    0.67
   1 -12   3    6.35    0.95
   2 -12   3    0.38    0.70
   3 -12   3    7.57    1.02
   4 -12   3    1.06    0.81
   5 -12   3    0.86    0.79
   6 -12   3   -0.30    0.78
   7 -12   3    1.58    0.96
  -8  12  -3    2.97    0.89
   8 -12   3    2.61    1.00
  -8 -11   3    0.48    0.78
  -7 -11   3    0.01    0.73
  -6 -11   3    0.82    0.71
  -5 -11   3    1.17    0.72
  -4 -11   3    3.54    0.77
  -4 -11   3    3.58    0.68
  -3 -11   3    4.16    0.71
  -3 -11   3    3.73    0.74
  -2 -11   3    1.74    0.62
  -2 -11   3    2.37    0.66
  -1 -11   3    6.10    0.77
  -1 -11   3    5.57    0.82
   0 -11   3    4.80    0.68
   0 -11   3    4.62    0.79
   1 -11   3    2.16    0.69
   2 -11   3   24.09    1.48
   3 -11   3    3.98    0.83
   4 -11   3    6.98    0.94
  -5  11  -3    0.10    0.58
   5 -11   3    0.07    0.68
  -6  11  -3    6.84    0.91
   6 -11   3    5.09    0.93
  -7  11  -3    0.86    0.68
   7 -11   3   -0.48    0.80
  -8  11  -3    1.68    0.81
   8 -11   3    2.17    0.89
  -9  11  -3    0.13    0.80
   9 -11   3    1.25    0.96
   9 -11   3    1.67    0.86
  -9 -10   3    0.59    0.83
  -8 -10   3    1.36    0.78
  -7 -10   3    1.50    0.79
  -6 -10   3    3.47    0.80
  -5 -10   3    3.50    0.60
  -5 -10   3    2.60    0.71
  -4 -10   3    4.17    0.64
  -4 -10   3    3.86    0.73
  -3 -10   3    7.04    0.75
  -3 -10   3    5.86    0.79
  -2 -10   3    1.84    0.59
  -2 -10   3    2.27    0.61
  -1 -10   3    0.70    0.56
  -1 -10   3    0.38    0.49
   0 -10   3    3.45    0.57
   0 -10   3    2.81    0.66
   1 -10   3   -0.01    0.41
   1 -10   3   -0.75    0.52
   2 -10   3   15.75    1.19
  -3  10  -3    1.96    0.53
   3 -10   3    1.54    0.65
  -4  10  -3   14.48    1.06
   4 -10   3   14.80    1.17
  -5  10  -3    2.32    0.62
   5 -10   3    1.98    0.72
  -6  10  -3    8.34    0.93
   6 -10   3    6.83    0.96
  -7  10  -3    1.00    0.69
   7 -10   3    2.45    0.82
  -8  10  -3    1.74    0.76
   8 -10   3    1.35    0.81
  -9  10  -3    0.80    0.74
   9 -10   3    0.30    0.85
 -10  10  -3    1.75    0.87
  10 -10   3    2.53    0.90
  10 -10   3    2.43    0.93
 -10  -9   3    0.95    0.80
  -9  -9   3    3.71    0.90
  -8  -9   3    1.71    0.79
  -7  -9   3    1.07    0.68
  -6  -9   3    0.65    0.60
  -5  -9   3    1.38    0.46
  -5  -9   3    1.16    0.60
  -4  -9   3    0.88    0.59
  -4  -9   3    0.76    0.46
  -3  -9   3    6.73    0.80
  -3  -9   3    6.60    0.69
  -2  -9   3    0.16    0.44
  -2  -9   3    0.85    0.49
  -1  -9   3    6.36    0.70
  -1  -9   3    6.16    0.70
   0  -9   3   -0.27    0.50
   0  -9   3    0.77    0.42
  -1   9  -3    0.20    0.37
   1  -9   3   -0.02    0.51
   1  -9   3   -0.12    0.37
  -2   9  -3    0.65    0.41
   2  -9   3    0.27    0.33
   2  -9   3   -0.23    0.51
  -3   9  -3    1.99    0.49
   3  -9   3    1.15    0.58
  -4   9  -3   10.06    0.86
   4  -9   3    9.95    0.95
  -5   9  -3   -0.21    0.49
   5  -9   3    0.96    0.63
  -6   9  -3    5.39    0.76
   6  -9   3    4.83    0.82
  -7   9  -3    1.86    0.64
   7  -9   3    2.91    0.75
  -8   9  -3    0.39    0.67
   8  -9   3   -0.10    0.64
  -9   9  -3   -0.50    0.64
   9  -9   3    0.05    0.69
 -10   9  -3   -0.44    0.78
  10  -9   3    0.06    0.78
  10  -9   3   -0.88    0.77
  11  -9   3    1.24    0.83
  11  -9   3   -0.01    0.80
 -11  -8   3    0.11    0.79
 -10  -8   3    2.42    0.83
  -9  -8   3    0.54    0.71
  -8  -8   3    0.62    0.65
  -7  -8   3    2.79    0.72
  -6  -8   3   -0.08    0.56
  -5  -8   3    3.53    0.67
  -5  -8   3    4.01    0.52
  -4  -8   3    1.54    0.45
  -4  -8   3    1.81    0.55
  -3  -8   3   11.34    0.84
  -3  -8   3   12.56    0.93
  -2  -8   3   13.91    0.96
  -2  -8   3   11.84    0.89
   1   8  -3   25.92    1.17
  -1  -8   3   25.17    1.28
  -1  -8   3   24.08    1.25
   0   8  -3   24.77    1.25
   0  -8   3   28.57    1.29
   0  -8   3   27.79    1.36
  -1   8  -3    8.90    0.70
   1  -8   3    9.68    0.81
   1  -8   3    9.36    0.66
  -2   8  -3   29.21    1.40
   2  -8   3   28.00    1.41
   2  -8   3   27.31    1.23
  -3   8  -3   10.17    0.83
   3  -8   3   14.11    1.00
  -4   8  -3   19.80    1.15
   4  -8   3   17.90    1.16
  -5   8  -3    9.73    0.90
   5  -8   3   11.39    0.96
  -6   8  -3   25.93    1.48
   6  -8   3   24.61    1.42
  -7   8  -3    4.92    0.78
   7  -8   3    6.00    0.85
  -8   8  -3    5.59    0.89
   8  -8   3    8.39    0.93
  -9   8  -3    2.94    0.80
   9  -8   3    2.65    0.76
 -10   8  -3    3.84    0.90
  10  -8   3    3.03    0.83
 -11   8  -3   -0.72    0.74
  11  -8   3    0.22    0.79
  11  -8   3    0.61    0.76
  12  -8   3    0.82    0.95
  12  -8   3    0.78    0.84
 -11  -7   3    0.01    0.74
 -10  -7   3    1.17    0.77
  -9  -7   3    1.68    0.72
  -8  -7   3    2.57    0.72
  -7  -7   3    3.00    0.68
  -6  -7   3    8.40    0.88
  -5  -7   3   12.88    0.99
  -5  -7   3   14.06    0.79
   4   7  -3   19.45    1.00
  -4  -7   3   19.45    0.95
  -4  -7   3   19.48    1.16
   3   7  -3   25.39    1.23
  -3  -7   3   28.54    1.25
  -3  -7   3   29.60    1.39
   2   7  -3   33.80    1.47
  -2  -7   3   33.66    1.44
  -2  -7   3   36.56    1.61
   1   7  -3    9.03    0.59
  -1  -7   3    7.77    0.65
  -1  -7   3    7.61    0.65
   0   7  -3   19.01    0.96
   0  -7   3   19.35    0.99
   0  -7   3   20.46    1.04
  -1   7  -3    1.19    0.35
   1  -7   3    0.70    0.31
  -2   7  -3   15.21    0.89
   2  -7   3   15.14    0.77
   2  -7   3   15.10    0.97
  -3   7  -3    1.49    0.41
   3  -7   3    0.91    0.23
   3  -7   3    1.60    0.51
  -4   7  -3    7.04    0.71
   4  -7   3    6.64    0.72
  -5   7  -3    2.15    0.53
   5  -7   3    1.06    0.55
  -6   7  -3   15.39    1.07
   6  -7   3   14.32    1.05
  -7   7  -3    0.70    0.54
   7  -7   3    1.79    0.59
  -8   7  -3   16.77    1.23
   8  -7   3   13.72    1.12
  -9   7  -3    5.71    0.93
   9  -7   3    5.29    0.83
 -10   7  -3    1.01    0.73
  10  -7   3    1.78    0.70
 -11   7  -3    2.86    0.94
  11  -7   3    3.36    0.91
  11  -7   3    3.79    0.85
  12  -7   3    0.86    0.79
  12  -7   3    0.72    0.86
 -12  -6   3   -0.12    0.82
 -11  -6   3    0.18    0.71
 -10  -6   3    3.38    0.81
  -9  -6   3    3.01    0.73
  -8  -6   3    5.67    0.80
   7   6  -3    0.61    0.49
  -7  -6   3    0.32    0.50
   6   6  -3   29.79    1.55
  -6  -6   3   34.91    1.31
  -6  -6   3   32.71    1.65
   5   6  -3    8.91    0.70
  -5  -6   3    6.98    0.53
  -5  -6   3    7.16    0.74
   4   6  -3   24.65    1.20
  -4  -6   3   25.93    1.33
  -4  -6   3   26.73    1.11
   3   6  -3   -0.08    0.28
  -3  -6   3    0.10    0.30
  -3  -6   3   -0.39    0.33
   2   6  -3   32.31    1.42
  -2  -6   3   33.51    1.35
  -2  -6   3   34.00    1.48
   1   6  -3    2.60    0.34
  -1  -6   3    1.69    0.36
  -1  -6   3    2.85    0.39
   0   6  -3  128.79    5.00
   0  -6   3  131.98    4.82
   0  -6   3  131.14    4.53
  -1   6  -3    5.78    0.49
   1  -6   3    5.25    0.52
   1  -6   3    5.09    0.42
  -2   6  -3   71.65    2.83
   2  -6   3   68.22    2.60
   2  -6   3   69.61    2.59
  -3   6  -3    5.57    0.56
   3  -6   3    5.08    0.36
   3  -6   3    5.86    0.59
  -4   6  -3   23.03    1.24
   4  -6   3   25.27    1.21
  -5   6  -3    7.63    0.75
   5  -6   3    7.63    0.72
  -6   6  -3   27.01    1.45
   6  -6   3   25.24    1.33
  -7   6  -3    2.06    0.56
   7  -6   3    0.54    0.52
  -8   6  -3    3.03    0.68
   8  -6   3    2.68    0.63
  -9   6  -3    0.07    0.61
   9  -6   3   -0.05    0.58
 -10   6  -3    0.10    0.68
  10  -6   3    0.54    0.63
 -11   6  -3    0.08    0.75
  11  -6   3   -0.23    0.65
  11  -6   3    0.43    0.71
  12  -6   3    2.25    0.79
  12  -6   3    1.03    0.83
  13  -6   3    0.29    0.91
 -12  -5   3    1.46    0.82
 -11  -5   3    0.21    0.65
 -10  -5   3    5.24    0.85
   9   5  -3    2.47    0.68
  -9  -5   3    1.23    0.62
   8   5  -3    7.82    0.80
  -8  -5   3    6.26    0.80
   7   5  -3    4.85    0.62
  -7  -5   3    3.57    0.63
   6   5  -3    3.68    0.54
  -6  -5   3    3.68    0.37
  -6  -5   3    4.36    0.63
   5   5  -3   19.95    0.96
  -5  -5   3   14.78    0.74
  -5  -5   3   15.00    1.00
   4   5  -3    7.57    0.61
  -4  -5   3    8.80    0.52
  -4  -5   3    9.48    0.71
  -3  -5   3    3.18    0.45
  -3  -5   3    4.97    0.39
   2   5  -3   59.30    2.37
  -2  -5   3   59.16    2.36
  -2  -5   3   60.65    2.14
   1   5  -3    4.35    0.38
  -1  -5   3    2.34    0.34
  -1  -5   3    2.26    0.35
   0   5  -3    2.89    0.35
   0  -5   3    3.78    0.39
   0  -5   3    2.98    0.34
  -1   5  -3  116.90    4.39
   1  -5   3  111.72    3.95
   1  -5   3  112.90    4.16
  -2   5  -3   14.30    0.80
   2  -5   3   15.69    0.68
   2  -5   3   15.05    0.81
  -3   5  -3   50.96    2.11
   3  -5   3   52.22    1.93
   3  -5   3   47.02    1.83
  -4   5  -3    0.39    0.34
   4  -5   3    1.25    0.38
  -5   5  -3   13.40    0.89
   5  -5   3   14.06    0.88
  -6   5  -3    1.26    0.47
   6  -5   3    2.07    0.50
  -7   5  -3    5.86    0.75
   7  -5   3    7.41    0.74
  -8   5  -3    0.75    0.54
   8  -5   3    0.53    0.52
  -9   5  -3    3.87    0.78
   9  -5   3    3.90    0.67
 -10   5  -3    2.20    0.73
  10  -5   3    3.08    0.67
 -11   5  -3    1.13    0.75
  11  -5   3    0.71    0.64
  11  -5   3    1.15    0.74
  12  -5   3    2.34    0.88
  12  -5   3    3.29    0.81
  13  -5   3   -1.04    0.80
 -13  -4   3    0.28    0.75
 -12  -4   3    0.06    0.71
  11   4  -3    1.16    0.73
 -11  -4   3    0.73    0.62
  10   4  -3    4.76    0.81
 -10  -4   3    3.57    0.73
   9   4  -3    1.01    0.57
  -9  -4   3   -0.03    0.53
   8   4  -3    5.95    0.74
  -8  -4   3    6.52    0.75
   7   4  -3    4.18    0.61
  -7  -4   3    3.83    0.64
   6   4  -3   11.46    0.82
  -6  -4   3   10.65    0.54
  -6  -4   3   11.06    0.83
   5   4  -3   17.50    0.95
  -5  -4   3   17.60    0.72
  -5  -4   3   17.08    0.99
   4   4  -3    8.54    0.63
  -4  -4   3   10.01    0.67
  -4  -4   3    8.17    0.44
   3   4  -3   28.53    1.20
  -3  -4   3   25.94    1.01
  -3  -4   3   25.41    1.21
   2   4  -3    5.22    0.41
  -2  -4   3    3.92    0.33
  -2  -4   3    3.35    0.38
  -1  -4   3    9.47    0.53
  -1  -4   3    9.52    0.57
   0   4  -3   46.43    1.90
   0  -4   3   47.35    1.82
   0  -4   3   47.77    1.71
  -1   4  -3   97.75    3.71
   1  -4   3   95.01    3.32
   1  -4   3   94.93    3.50
  -2   4  -3   20.31    1.01
   2  -4   3   22.06    0.93
   2  -4   3   20.80    0.85
  -3   4  -3   56.07    2.35
   3  -4   3   58.27    2.10
  -4   4  -3    0.30    0.30
  -5   4  -3   16.20    0.98
  -6   4  -3    0.87    0.41
  -7   4  -3   16.28    1.09
  -8   4  -3    9.33    0.91
  -9   4  -3    6.06    0.85
 -10   4  -3   -0.34    0.56
 -11   4  -3    3.42    0.85
  11  -4   3    4.35    0.74
  11  -4   3    3.01    0.81
  12  -4   3    1.63    0.84
  13  -4   3    0.77    0.88
  13   3  -3   -0.30    0.82
  12   3  -3    0.33    0.78
 -12  -3   3   -0.96    0.61
  11   3  -3    1.12    0.71
 -11  -3   3    1.40    0.65
  10   3  -3    0.93    0.63
 -10  -3   3    0.38    0.57
   9   3  -3    1.66    0.63
  -9  -3   3    2.50    0.60
   8   3  -3    1.51    0.54
  -8  -3   3    1.96    0.53
   7   3  -3    2.57    0.56
  -7  -3   3    2.65    0.51
   6   3  -3   30.71    1.54
  -6  -3   3   34.48    1.54
  -6  -3   3   33.38    1.17
   5   3  -3    6.00    0.55
  -5  -3   3    6.47    0.59
  -5  -3   3    7.09    0.34
   4   3  -3   21.89    1.01
  -4  -3   3   21.36    0.78
  -4  -3   3   20.87    1.04
   3   3  -3    0.89    0.27
  -3  -3   3    1.26    0.29
  -3  -3   3    1.03    0.15
   2   3  -3   35.05    1.46
  -2  -3   3   35.53    1.26
  -2  -3   3   35.52    1.44
   1   3  -3    0.41    0.22
  -1  -3   3    0.47    0.18
  -1  -3   3    0.08    0.19
   0   3  -3  118.69    4.41
   0  -3   3  113.47    3.91
   0  -3   3  115.54    4.22
  -1   3  -3   -0.30    0.20
   1  -3   3    0.36    0.16
  -2   3  -3  103.89    4.01
  -3   3  -3   22.53    1.07
  -4   3  -3   36.38    1.62
  -5   3  -3    0.57    0.33
  -6   3  -3   21.91    1.19
  -7   3  -3    4.22    0.62
  -8   3  -3    6.00    0.75
  -9   3  -3    3.29    0.69
 -10   3  -3    1.27    0.65
 -11   3  -3    5.16    0.90
  11  -3   3    3.46    0.85
  12  -3   3    0.78    0.86
  13  -3   3   -0.82    0.90
  13   2  -3    0.74    0.88
  12   2  -3    2.03    0.83
 -12  -2   3    1.39    0.69
  11   2  -3    1.02    0.71
 -11  -2   3    1.65    0.63
  10   2  -3    1.85    0.66
 -10  -2   3    0.84    0.54
   9   2  -3    0.71    0.54
  -9  -2   3    0.98    0.50
   8   2  -3    8.41    0.85
  -8  -2   3   10.44    0.80
   7   2  -3    0.61    0.47
  -7  -2   3    0.67    0.39
   6   2  -3    7.18    0.67
  -6  -2   3    8.30    0.66
   5   2  -3    6.54    0.57
  -5  -2   3    6.07    0.55
   4   2  -3   16.20    0.84
  -4  -2   3   16.82    0.84
   3   2  -3    6.59    0.49
  -3  -2   3    7.03    0.48
   2   2  -3   83.98    3.20
  -2  -2   3   81.69    2.76
  -2  -2   3   83.51    3.08
   1   2  -3    6.67    0.45
  -1  -2   3    6.78    0.44
   0   2  -3   59.04    2.31
  -1   2  -3    4.17    0.36
  -2   2  -3  170.73    6.45
  -3   2  -3    1.03    0.27
  -4   2  -3   28.21    1.30
  -5   2  -3    0.61    0.32
  -6   2  -3    7.80    0.71
  -7   2  -3    0.34    0.41
  -8   2  -3    4.27    0.65
  -9   2  -3    1.77    0.57
 -10   2  -3    1.51    0.63
 -11   2  -3    0.88    0.66
  11  -2   3    1.09    0.73
  12  -2   3    0.62    0.79
  13  -2   3   -0.86    0.79
  13   1  -3    3.07    0.94
  12   1  -3   -0.26    0.75
  11   1  -3    0.59    0.69
 -11  -1   3    0.94    0.55
  10   1  -3    4.01    0.73
 -10  -1   3    2.97    0.59
   9   1  -3    2.61    0.61
  -9  -1   3    2.30    0.52
   8   1  -3   14.57    1.00
  -8  -1   3   11.99    0.87
   7   1  -3   14.44    0.93
   7   1  -3   13.43    0.62
  -7  -1   3   14.39    0.85
   6   1  -3    5.70    0.33
   6   1  -3    6.40    0.59
  -6  -1   3    4.28    0.49
   5   1  -3   43.22    1.73
  -5  -1   3   35.55    1.61
   4   1  -3    9.48    0.59
  -4  -1   3    7.29    0.52
  -3  -1   3   13.78    0.68
   2   1  -3   39.45    1.68
  -2  -1   3   44.14    1.62
   1   1  -3   35.32    1.43
   1   1  -3   34.66    1.20
   0   1  -3  243.46    7.82
   0   1  -3  229.79    8.82
  -1   1  -3   54.06    2.10
  -1   1  -3   52.31    1.85
  -2   1  -3    2.39    0.28
  -2   1  -3    1.96    0.24
  -3   1  -3   36.13    1.53
  -3   1  -3   36.45    1.35
  -4   1  -3    8.55    0.59
  -4   1  -3    9.07    0.53
  -5   1  -3   21.73    1.12
  -5   1  -3   22.63    0.98
  -5   1  -3   23.06    1.01
  -6   1  -3   13.47    0.74
  -6   1  -3   13.01    0.84
  -6   1  -3   13.91    0.74
  -7   1  -3   11.30    0.75
  -7   1  -3   11.85    0.88
  -8   1  -3    2.01    0.43
  -8   1  -3    2.00    0.55
  -9   1  -3    1.95    0.57
  -9   1  -3    2.39    0.47
 -10   1  -3    1.38    0.64
  10  -1   3    1.43    0.67
  11  -1   3    1.86    0.80
  12  -1   3    1.22    0.82
  13  -1   3    0.69    0.89
  14   0  -3    0.26    0.90
  13   0  -3    2.00    0.89
  12   0  -3    0.23    0.77
  11   0  -3    1.51    0.73
  10   0  -3    0.88    0.61
 -10   0   3    1.72    0.50
   9   0  -3    0.67    0.53
  -9   0   3    1.01    0.45
   8   0  -3    6.09    0.74
  -8   0   3    5.16    0.58
   7   0  -3    4.59    0.38
   7   0  -3    4.60    0.62
  -7   0   3    6.65    0.57
   6   0  -3    8.38    0.71
   6   0  -3    8.33    0.47
  -6   0   3    9.68    0.63
   5   0  -3   13.13    0.79
   5   0  -3   12.52    0.55
  -5   0   3   14.07    0.71
   4   0  -3   13.38    0.74
   4   0  -3   13.47    0.53
  -4   0   3   14.09    0.69
   3   0  -3   47.36    1.64
   3   0  -3   47.69    1.96
  -3   0   3   50.69    1.86
   2   0  -3   16.78    0.79
   2   0  -3   17.02    0.62
   1   0  -3   29.57    1.23
   1   0  -3   29.96    1.05
   0   0  -3   92.31    3.53
   0   0  -3   93.22    3.12
  -1   0  -3    3.12    0.25
  -1   0  -3    3.17    0.29
  -2   0  -3   11.37    0.52
  -2   0  -3   10.05    0.55
  -3   0  -3   65.08    2.45
  -3   0  -3   65.11    2.56
  -3   0  -3   64.68    2.28
  -4   0  -3   10.20    0.64
  -4   0  -3    9.94    0.56
  -4   0  -3   11.07    0.59
  -5   0  -3    8.90    0.61
  -5   0  -3    9.05    0.60
  -5   0  -3    9.79    0.59
  -6   0  -3    2.19    0.42
  -6   0  -3    2.03    0.38
  -6   0  -3    2.27    0.40
  -7   0  -3    7.36    0.62
  -7   0  -3    7.00    0.59
  -7   0  -3    6.59    0.68
  -8   0  -3    2.05    0.45
  -8   0  -3    2.71    0.49
  -8   0  -3    2.33    0.55
  -9   0  -3    2.30    0.58
  -9   0  -3    2.67    0.56
 -10   0  -3    5.80    0.73
  10   0   3    7.39    0.90
  11   0   3    1.68    0.77
  12   0   3    2.65    0.89
  13   0   3    0.22    0.84
  14  -1  -3   -0.81    0.90
  13  -1  -3    1.94    0.90
  12  -1  -3    2.58    0.81
  11  -1  -3    3.06    0.82
  10  -1  -3    5.41    0.83
   9  -1  -3    2.74    0.66
  -9   1   3    2.45    0.46
   8  -1  -3   32.46    1.34
   8  -1  -3   31.41    1.72
  -8   1   3   36.92    1.51
   7  -1  -3    5.09    0.66
   7  -1  -3    5.43    0.44
  -7   1   3    4.05    0.45
   6  -1  -3   32.08    1.51
   6  -1  -3   29.84    1.19
  -6   1   3   31.56    1.32
   5  -1  -3   12.53    0.58
   5  -1  -3   13.08    0.79
  -5   1   3   11.16    0.63
   4  -1  -3   78.62    3.19
   4  -1  -3   78.94    2.75
  -4   1   3   84.45    3.00
   3  -1  -3   10.41    0.59
   3  -1  -3    9.03    0.46
   2  -1  -3  303.78   10.27
   2  -1  -3  318.63   11.59
   1  -1  -3  151.18    5.66
   1  -1  -3  150.36    5.03
   0  -1  -3  743.01   27.20
   0  -1  -3  726.98   24.23
  -1  -1  -3   22.60    0.89
  -1  -1  -3   22.92    0.95
  -2  -1  -3   89.87    3.42
  -2  -1  -3   89.56    3.08
  -3  -1  -3    7.33    0.50
  -3  -1  -3    7.28    0.46
  -3  -1  -3    7.88    0.46
  -4  -1  -3   17.11    0.80
  -4  -1  -3   17.13    0.85
  -4  -1  -3   17.39    0.88
  -5  -1  -3    7.86    0.62
  -5  -1  -3    9.04    0.59
  -5  -1  -3    8.96    0.60
  -6  -1  -3    3.31    0.49
  -6  -1  -3    3.45    0.43
  -6  -1  -3    3.30    0.46
  -7  -1  -3    2.29    0.49
  -7  -1  -3    2.21    0.40
  -7  -1  -3    2.83    0.49
  -8  -1  -3    0.60    0.44
  -8  -1  -3   -0.18    0.35
  -8  -1  -3    0.50    0.42
  -9  -1  -3    0.80    0.50
  -9  -1  -3    1.47    0.47
  -9  -1  -3    0.43    0.49
   9   1   3    0.75    0.56
 -10  -1  -3    1.21    0.56
  10   1   3    1.70    0.67
 -11  -1  -3    2.14    0.69
  11   1   3    1.42    0.74
  12   1   3    0.59    0.75
  13  -2  -3    0.48    0.85
  12  -2  -3    1.15    0.77
  11  -2  -3    4.04    0.83
  10  -2  -3    7.58    0.95
   9  -2  -3   10.56    1.02
   8  -2  -3    5.02    0.73
   8  -2  -3    5.60    0.54
  -8   2   3    6.03    0.53
   7  -2  -3   17.25    1.11
   7  -2  -3   18.72    0.89
  -7   2   3   17.73    0.90
   6  -2  -3   31.78    1.31
   6  -2  -3   31.61    1.58
  -6   2   3   35.80    1.38
   5  -2  -3   22.09    0.93
   5  -2  -3   21.55    1.11
  -5   2   3   20.61    0.93
   4  -2  -3  115.69    4.45
   4  -2  -3  113.16    3.90
   3  -2  -3   16.17    0.81
   3  -2  -3   16.44    0.70
   2  -2  -3  146.45    5.49
   2  -2  -3  143.47    4.88
   1  -2  -3  166.99    5.62
   1  -2  -3  168.06    6.28
   0  -2  -3   70.02    2.42
   0  -2  -3   69.31    2.66
  -1  -2  -3   26.32    1.06
  -1  -2  -3   25.97    1.02
  -2  -2  -3    1.14    0.19
  -2  -2  -3    1.39    0.27
  -2  -2  -3    1.67    0.25
  -3  -2  -3    3.86    0.40
  -3  -2  -3    3.59    0.32
  -3  -2  -3    3.63    0.35
  -4  -2  -3   35.05    1.51
  -4  -2  -3   38.28    1.43
  -4  -2  -3   36.20    1.56
  -5  -2  -3    8.94    0.68
  -5  -2  -3    9.33    0.59
  -5  -2  -3    7.59    0.58
  -6  -2  -3   10.21    0.72
  -6  -2  -3   12.33    0.75
  -6  -2  -3   11.73    0.81
  -7  -2  -3   24.79    1.32
  -7  -2  -3   25.09    1.17
  -7  -2  -3   23.29    1.22
  -8  -2  -3    4.58    0.55
  -8  -2  -3    5.37    0.66
   8   2   3    4.06    0.62
  -9  -2  -3    6.06    0.66
  -9  -2  -3    6.76    0.80
   9   2   3    7.39    0.83
 -10  -2  -3    0.72    0.54
 -10  -2  -3    2.06    0.64
  10   2   3    0.83    0.65
 -11  -2  -3    1.64    0.69
  11   2   3    2.04    0.74
  13  -3  -3    0.23    0.84
  12  -3  -3    0.22    0.75
  11  -3  -3    0.73    0.69
  10  -3  -3    1.81    0.69
   9  -3  -3    2.86    0.68
   8  -3  -3    1.77    0.46
   8  -3  -3    1.34    0.57
   7  -3  -3   10.81    0.75
   7  -3  -3   10.34    0.88
  -7   3   3    7.57    0.58
   6  -3  -3    8.71    0.61
   6  -3  -3    7.58    0.72
  -6   3   3    7.12    0.51
   5  -3  -3   21.77    1.00
   5  -3  -3   22.38    1.15
   4  -3  -3   79.17    2.80
   4  -3  -3   79.72    3.17
   3  -3  -3    2.46    0.35
   3  -3  -3    2.22    0.33
   2  -3  -3  172.37    5.80
   2  -3  -3  171.39    6.47
   1  -3  -3   45.87    1.85
   1  -3  -3   48.03    1.73
   0  -3  -3   24.28    1.00
   0  -3  -3   23.87    0.99
  -1  -3  -3   84.52    3.14
  -1  -3  -3   82.35    2.91
  -1  -3  -3   82.54    3.12
  -2  -3  -3   13.10    0.71
  -2  -3  -3   15.33    0.63
  -2  -3  -3   14.62    0.80
  -3  -3  -3   50.00    1.91
  -3  -3  -3   47.97    1.82
  -3  -3  -3   48.87    1.99
  -4  -3  -3   12.87    0.65
  -4  -3  -3   13.39    0.72
  -4  -3  -3   13.10    0.82
  -5  -3  -3   16.20    0.95
  -5  -3  -3   14.23    0.77
  -5  -3  -3   15.16    0.81
  -6  -3  -3    5.30    0.51
  -6  -3  -3    5.10    0.63
  -6  -3  -3    4.32    0.50
   6   3   3    5.83    0.52
  -7  -3  -3   12.01    0.80
  -7  -3  -3   10.09    0.88
   7   3   3    9.77    0.79
  -8  -3  -3    3.43    0.65
  -8  -3  -3    3.67    0.54
   8   3   3    3.90    0.59
  -9  -3  -3    1.63    0.60
  -9  -3  -3    0.60    0.47
 -10  -3  -3    2.25    0.65
 -11  -3  -3   -0.15    0.65
 -12  -3  -3    3.44    0.87
  13  -4  -3    0.31    0.87
  12  -4  -3    1.16    0.82
  11  -4  -3   -0.20    0.73
  10  -4  -3    1.45    0.69
   9  -4  -3    4.73    0.64
   9  -4  -3    3.55    0.74
   8  -4  -3    1.97    0.60
   8  -4  -3    1.49    0.51
   7  -4  -3   10.59    0.94
   7  -4  -3   11.16    0.83
   6  -4  -3    4.79    0.55
   6  -4  -3    5.59    0.64
  -6   4   3    4.74    0.40
   5  -4  -3   11.65    0.81
   5  -4  -3   11.23    0.79
   4  -4  -3    3.60    0.47
   4  -4  -3    3.42    0.43
   3  -4  -3    8.33    0.63
   3  -4  -3    8.33    0.60
   2  -4  -3   11.98    0.69
   2  -4  -3   11.55    0.63
   1  -4  -3    0.71    0.21
   1  -4  -3    0.58    0.29
   0  -4  -3    0.61    0.28
   0  -4  -3    0.38    0.18
  -1  -4  -3   23.45    1.12
  -1  -4  -3   25.22    1.06
  -2  -4  -3    9.86    0.69
  -2  -4  -3   10.55    0.63
  -3  -4  -3   31.45    1.46
  -3  -4  -3   32.13    1.32
  -4  -4  -3    0.85    0.35
  -4  -4  -3    0.15    0.32
   4   4   3    1.15    0.23
  -5  -4  -3   10.24    0.72
  -5  -4  -3   10.64    0.85
   5   4   3   10.34    0.62
  -6  -4  -3    0.73    0.37
  -6  -4  -3   -0.17    0.47
   6   4   3    1.30    0.36
  -7  -4  -3    4.11    0.55
  -7  -4  -3    2.85    0.61
  -8  -4  -3    2.01    0.50
  -8  -4  -3    0.84    0.55
  -9  -4  -3    1.03    0.50
  -9  -4  -3    0.65    0.60
 -10  -4  -3    2.87    0.74
 -11  -4  -3    0.30    0.71
 -12  -4  -3    4.09    0.95
  13  -5  -3    0.70    0.85
  12  -5  -3    0.52    0.84
  11  -5  -3    1.08    0.77
  10  -5  -3    2.22    0.77
   9  -5  -3    4.26    0.66
   9  -5  -3    4.11    0.78
   8  -5  -3    1.95    0.61
   8  -5  -3    1.25    0.54
   7  -5  -3   10.86    0.95
   7  -5  -3   13.07    0.93
   6  -5  -3   11.32    0.90
   6  -5  -3   12.90    0.93
   5  -5  -3    3.89    0.56
   5  -5  -3    4.01    0.55
   4  -5  -3    9.74    0.72
   4  -5  -3    9.49    0.73
   3  -5  -3    1.44    0.35
   3  -5  -3    0.46    0.36
   2  -5  -3   22.18    1.05
   2  -5  -3   22.13    1.02
   1  -5  -3    0.81    0.24
   1  -5  -3    0.37    0.33
   0  -5  -3   60.10    2.23
   0  -5  -3   58.67    2.27
  -1  -5  -3    0.45    0.33
  -1  -5  -3    0.08    0.31
  -2  -5  -3   14.67    0.89
  -2  -5  -3   15.32    0.85
  -3  -5  -3    3.00    0.47
  -3  -5  -3    3.73    0.54
  -4  -5  -3    7.92    0.75
  -4  -5  -3    9.63    0.71
  -5  -5  -3    4.01    0.63
  -5  -5  -3    3.07    0.51
  -6  -5  -3    1.92    0.56
  -6  -5  -3    2.77    0.51
  -7  -5  -3    2.30    0.60
  -7  -5  -3    1.49    0.50
  -8  -5  -3    0.82    0.61
  -8  -5  -3    2.25    0.53
  -9  -5  -3    1.48    0.68
  -9  -5  -3    0.82    0.53
 -10  -5  -3    3.27    0.80
 -11  -5  -3    0.86    0.75
  12  -6  -3    0.39    0.82
  11  -6  -3    0.45    0.77
  10  -6  -3    0.26    0.68
   9  -6  -3    0.14    0.58
   9  -6  -3   -0.20    0.59
   8  -6  -3   10.62    1.02
   8  -6  -3   12.33    0.97
   7  -6  -3    3.11    0.66
   7  -6  -3    4.21    0.68
   6  -6  -3    9.47    0.88
   6  -6  -3   12.19    0.91
   5  -6  -3    1.22    0.52
   5  -6  -3    0.85    0.44
   4  -6  -3   20.27    1.10
   4  -6  -3   18.74    1.06
   3  -6  -3   14.78    0.96
   3  -6  -3   14.70    0.86
   2  -6  -3   20.78    1.07
   2  -6  -3   19.76    0.98
   1  -6  -3    6.15    0.47
   1  -6  -3    6.94    0.64
   0  -6  -3   10.37    0.77
  -1  -6  -3    0.96    0.40
  -1  -6  -3    0.44    0.39
  -2  -6  -3    9.92    0.81
  -2  -6  -3   10.77    0.78
  -3  -6  -3    1.39    0.44
  -3  -6  -3    1.62    0.50
  -4  -6  -3    4.39    0.57
  -4  -6  -3    4.33    0.64
  -5  -6  -3    1.05    0.47
  -5  -6  -3    1.13    0.53
  -6  -6  -3    2.51    0.63
  -6  -6  -3    3.39    0.56
  -7  -6  -3    1.75    0.65
  -7  -6  -3    1.06    0.51
  -8  -6  -3    2.00    0.59
  -8  -6  -3    2.53    0.71
  -9  -6  -3    0.46    0.68
 -10  -6  -3    0.62    0.73
 -11  -6  -3   -0.25    0.78
  12  -7  -3    0.39    0.83
  11  -7  -3    0.04    0.74
  10  -7  -3    0.56    0.76
  10  -7  -3    0.29    0.63
   9  -7  -3    3.75    0.85
   9  -7  -3    2.75    0.70
   8  -7  -3    1.88    0.64
   8  -7  -3    1.87    0.70
   7  -7  -3    1.89    0.59
   7  -7  -3    1.56    0.61
   6  -7  -3    0.22    0.50
   6  -7  -3    1.05    0.54
   5  -7  -3    4.77    0.65
   5  -7  -3    5.67    0.69
   4  -7  -3    2.99    0.57
   4  -7  -3    2.76    0.53
   3  -7  -3    3.42    0.61
   3  -7  -3    4.44    0.51
   2  -7  -3    9.01    0.64
   2  -7  -3    8.52    0.77
   1  -7  -3    0.22    0.43
   0  -7  -3   39.15    1.70
  -1  -7  -3    0.98    0.45
  -1  -7  -3    1.27    0.47
  -2  -7  -3   11.07    0.88
  -2  -7  -3   10.56    0.84
  -3  -7  -3   10.61    0.92
  -3  -7  -3   11.67    0.86
  -4  -7  -3    3.51    0.58
  -4  -7  -3    5.71    0.73
  -5  -7  -3   10.03    0.97
  -5  -7  -3    9.14    0.82
  -6  -7  -3    1.01    0.55
  -6  -7  -3    1.05    0.61
  -7  -7  -3    2.69    0.74
  -7  -7  -3    2.12    0.61
  -8  -7  -3    0.66    0.68
  -8  -7  -3    0.01    0.55
  -9  -7  -3    1.82    0.80
 -10  -7  -3    1.35    0.86
  11  -8  -3    2.15    0.88
  10  -8  -3    0.58    0.71
  10  -8  -3   -0.27    0.71
   9  -8  -3    0.96    0.70
   9  -8  -3    1.78    0.75
   8  -8  -3   -0.08    0.59
   8  -8  -3    0.67    0.65
   7  -8  -3    3.11    0.73
   7  -8  -3    3.92    0.74
   6  -8  -3    0.77    0.55
   6  -8  -3    0.47    0.54
   5  -8  -3    1.88    0.60
   5  -8  -3    2.01    0.56
   4  -8  -3    0.95    0.44
   4  -8  -3    1.25    0.55
   3  -8  -3    1.18    0.55
   2  -8  -3    5.16    0.69
   1  -8  -3    4.63    0.65
   0  -8  -3    9.17    0.82
  -1  -8  -3    1.08    0.52
  -1  -8  -3    1.17    0.52
  -2  -8  -3    2.60    0.59
  -2  -8  -3    3.31    0.60
  -3  -8  -3    0.15    0.51
  -3  -8  -3    0.14    0.48
  -4  -8  -3    2.12    0.63
  -4  -8  -3    1.38    0.56
  -5  -8  -3    6.94    0.76
  -5  -8  -3    5.43    0.83
  -6  -8  -3    0.60    0.56
  -6  -8  -3    0.60    0.67
  -7  -8  -3   -0.29    0.63
  -7  -8  -3    0.40    0.57
  -8  -8  -3    2.55    0.82
  -8  -8  -3    2.83    0.72
  -9  -8  -3   -0.31    0.72
  10  -9  -3    0.52    0.75
  10  -9  -3    1.57    0.86
   9  -9  -3    0.26    0.77
   9  -9  -3    1.43    0.75
   8  -9  -3    8.23    1.02
   8  -9  -3    5.66    0.88
   7  -9  -3    1.33    0.69
   7  -9  -3    1.40    0.67
   6  -9  -3   10.12    0.99
   6  -9  -3   12.42    1.02
   5  -9  -3    1.44    0.64
   4  -9  -3   12.03    1.04
   3  -9  -3    0.96    0.60
   2  -9  -3    7.11    0.82
   0  -9  -3    5.81    0.78
  -1  -9  -3    0.46    0.54
  -1  -9  -3    0.51    0.55
  -2  -9  -3    6.04    0.79
  -2  -9  -3    6.08    0.80
  -3  -9  -3    2.40    0.70
  -3  -9  -3    1.84    0.62
  -4  -9  -3    2.99    0.71
  -4  -9  -3    1.89    0.62
  -5  -9  -3    6.30    0.92
  -5  -9  -3    4.93    0.78
  -6  -9  -3    1.14    0.65
  -6  -9  -3    2.23    0.75
  -7  -9  -3    1.64    0.69
  -7  -9  -3    1.59    0.77
  -8  -9  -3    0.60    0.76
   9 -10  -3    1.65    0.79
   9 -10  -3    0.89    0.78
   8 -10  -3    4.20    0.88
   7 -10  -3   -0.10    0.67
   6 -10  -3   15.18    1.25
   5 -10  -3   -0.12    0.62
   4 -10  -3   16.20    1.20
   3 -10  -3    4.22    0.78
   2 -10  -3    9.54    0.97
   1 -10  -3    8.69    0.92
   0 -10  -3    9.32    0.98
  -1 -10  -3    2.34    0.69
  -2 -10  -3    0.98    0.64
  -2 -10  -3    1.39    0.63
  -3 -10  -3    0.97    0.64
  -3 -10  -3    1.42    0.69
  -4 -10  -3    0.26    0.65
  -4 -10  -3    0.58    0.66
  -5 -10  -3    0.97    0.74
  -5 -10  -3    0.51    0.65
  -6 -10  -3    0.08    0.69
  -6 -10  -3   -0.47    0.71
  -7 -10  -3    0.01    0.74
  -7 -10  -3    0.57    0.70
   8 -11  -3    0.56    0.83
   7 -11  -3    1.10    0.78
   6 -11  -3    1.28    0.78
   5 -11  -3    1.13    0.73
   4 -11  -3    1.84    0.75
   3 -11  -3    4.51    0.83
   2 -11  -3    3.40    0.78
   1 -11  -3    5.21    0.86
   0 -11  -3    1.47    0.73
  -1 -11  -3    7.87    0.99
  -2 -11  -3    1.91    0.74
  -3 -11  -3    4.82    0.89
  -3 -11  -3    3.56    0.83
  -4 -11  -3    2.44    0.82
  -4 -11  -3    1.70    0.76
  -5 -11  -3    0.33    0.75
  -5 -11  -3   -0.53    0.64
  -6 -11  -3   -0.24    0.72
  -6 -11  -3    0.64    0.77
   6 -12  -3    1.01    0.85
   5 -12  -3    2.13    0.83
   4 -12  -3   -0.89    0.73
   3 -12  -3    4.31    0.89
   2 -12  -3   -0.63    0.69
   1 -12  -3    2.33    0.81
   0 -12  -3    0.46    0.74
  -1 -12  -3   -0.15    0.72
  -2 -12  -3   -0.24    0.76
  -3 -12  -3   -0.07    0.77
  -4 -12  -3    0.75    0.75
   3 -13  -3    0.00    0.81
   2 -13  -3    0.12    0.77
   1 -13  -3   -0.38    0.73
   0 -13  -3    1.35    0.83
  -2 -14   4    0.05    0.75
  -1 -14   4    0.66    0.81
   0 -14   4    0.12    0.79
   1 -14   4    0.96    0.83
   2 -14   4    3.17    0.96
   3 -14   4    0.01    0.85
   4 -14   4    5.41    1.10
  -5 -13   4   -0.61    0.77
  -4 -13   4    3.71    0.92
  -3 -13   4    1.22    0.70
  -3 -13   4    1.36    0.76
  -2 -13   4    7.38    0.98
  -2 -13   4    7.10    0.97
  -1 -13   4    2.20    0.82
   0 -13   4    5.85    0.99
   1 -13   4    4.98    0.93
   2 -13   4    6.57    1.02
   3 -13   4    3.30    0.96
   4 -13   4    6.93    1.05
   5 -13   4    1.23    0.87
   6 -13   4    1.91    0.97
   7 -13   4    0.13    0.90
  -7 -12   4   -0.78    0.81
  -6 -12   4    1.23    0.84
  -5 -12   4    0.18    0.70
  -4 -12   4    0.14    0.68
  -3 -12   4    1.48    0.72
  -3 -12   4    1.80    0.66
  -2 -12   4    2.01    0.68
  -2 -12   4    0.70    0.65
  -1 -12   4    6.87    0.94
  -1 -12   4    8.06    0.89
   0 -12   4    2.78    0.78
   1 -12   4    7.17    0.95
   2 -12   4    4.34    0.86
   3 -12   4    1.36    0.76
   4 -12   4    1.17    0.77
   5 -12   4    1.64    0.81
   6 -12   4    0.67    0.79
  -7  12  -4    0.80    0.73
   7 -12   4    0.41    0.83
  -8  12  -4    1.43    0.83
   8 -12   4   -0.46    0.87
  -8 -11   4   -0.23    0.79
  -7 -11   4    2.48    0.89
  -6 -11   4    0.11    0.68
  -5 -11   4    0.41    0.70
  -4 -11   4    0.86    0.67
  -4 -11   4    0.14    0.57
  -3 -11   4    2.70    0.69
  -3 -11   4    2.97    0.66
  -2 -11   4   -0.33    0.54
  -2 -11   4    0.57    0.58
  -1 -11   4    7.00    0.87
  -1 -11   4    7.06    0.82
   0 -11   4    3.94    0.78
   0 -11   4    5.24    0.71
   1 -11   4   12.68    1.10
   2 -11   4    2.87    0.74
   3 -11   4    1.41    0.69
  -4  11  -4    2.29    0.64
   4 -11   4    2.62    0.78
  -5  11  -4    0.80    0.64
   5 -11   4    2.46    0.77
  -6  11  -4    0.25    0.62
   6 -11   4   -0.12    0.75
  -7  11  -4    1.67    0.74
   7 -11   4    3.73    0.92
  -8  11  -4    1.97    0.81
   8 -11   4    2.48    0.92
  -9  11  -4    0.38    0.81
   9 -11   4    1.09    0.95
  -9 -10   4    0.45    0.79
  -8 -10   4    1.03    0.78
  -7 -10   4   -0.62    0.65
  -6 -10   4   10.40    1.11
  -5 -10   4    0.51    0.62
  -4 -10   4    5.90    0.70
  -4 -10   4    6.88    0.86
  -3 -10   4    4.90    0.77
  -3 -10   4    4.36    0.65
  -2 -10   4    4.19    0.69
  -2 -10   4    5.91    0.73
  -1 -10   4    0.14    0.50
  -1 -10   4    0.82    0.51
   0 -10   4    1.20    0.47
   0 -10   4    0.75    0.54
   1 -10   4   -0.10    0.42
   1 -10   4   -0.24    0.53
  -2  10  -4   10.33    0.87
   2 -10   4   10.75    0.97
  -3  10  -4    0.33    0.47
   3 -10   4    0.37    0.63
  -4  10  -4    7.32    0.81
   4 -10   4    7.76    0.92
  -5  10  -4    0.59    0.57
   5 -10   4    0.67    0.65
  -6  10  -4    2.90    0.71
   6 -10   4    3.17    0.81
  -7  10  -4    1.95    0.72
   7 -10   4    2.24    0.78
  -8  10  -4    2.85    0.86
   8 -10   4    3.19    0.87
  -9  10  -4    0.84    0.76
   9 -10   4    0.92    0.83
 -10  10  -4    0.89    0.86
  10 -10   4    0.64    0.91
 -10  -9   4    0.92    0.86
  -9  -9   4    0.76    0.76
  -8  -9   4    0.77    0.71
  -7  -9   4    0.12    0.63
  -6  -9   4    0.94    0.63
  -5  -9   4    0.01    0.54
  -4  -9   4    9.63    0.96
  -4  -9   4   11.26    0.81
  -3  -9   4    0.96    0.55
  -3  -9   4    0.53    0.45
  -2  -9   4   12.25    0.94
  -2  -9   4   12.91    0.97
  -1  -9   4   -0.16    0.40
  -1  -9   4    0.16    0.48
   0   9  -4   29.99    1.46
   0  -9   4   31.62    1.49
   0  -9   4   31.17    1.52
  -1   9  -4   24.74    1.27
   1  -9   4   25.51    1.32
   1  -9   4   23.70    1.22
  -2   9  -4   87.69    3.56
   2  -9   4   85.15    3.31
   2  -9   4   88.42    3.33
  -3   9  -4   10.75    0.88
   3  -9   4   10.86    0.96
  -4   9  -4   12.53    0.98
   4  -9   4   15.56    1.11
  -5   9  -4   11.24    0.98
   5  -9   4    8.41    0.94
  -6   9  -4    3.05    0.66
   6  -9   4    1.71    0.68
  -7   9  -4    2.60    0.69
   7  -9   4    1.41    0.71
  -8   9  -4    1.05    0.68
   8  -9   4    0.27    0.70
  -9   9  -4    1.53    0.78
   9  -9   4    1.00    0.75
 -10   9  -4    1.09    0.81
  10  -9   4    1.27    0.80
 -11   9  -4    0.92    0.88
  11  -9   4    0.26    0.85
  11  -9   4    0.98    0.84
 -11  -8   4    1.56    0.87
 -10  -8   4    1.92    0.83
  -9  -8   4    4.80    0.95
  -8  -8   4    1.85    0.72
  -7  -8   4    2.94    0.71
  -6  -8   4    2.42    0.66
  -5  -8   4    6.14    0.78
  -5  -8   4    5.67    0.57
  -4  -8   4    1.52    0.40
  -4  -8   4    1.38    0.54
   3   8  -4   16.58    0.93
  -3  -8   4   17.87    1.10
  -3  -8   4   16.14    0.95
   2   8  -4    9.93    0.74
  -2  -8   4   11.06    0.78
  -2  -8   4    9.08    0.80
   1   8  -4   27.29    1.29
  -1  -8   4   26.53    1.33
  -1  -8   4   26.73    1.35
   0   8  -4    7.18    0.62
   0  -8   4    7.74    0.66
   0  -8   4    8.13    0.74
  -1   8  -4   31.33    1.49
   1  -8   4   31.11    1.41
   1  -8   4   32.24    1.49
  -2   8  -4    2.97    0.51
   2  -8   4    4.57    0.66
   2  -8   4    3.33    0.42
  -3   8  -4   24.25    1.32
   3  -8   4   24.77    1.33
  -4   8  -4    1.69    0.53
   4  -8   4    0.76    0.56
  -5   8  -4   28.89    1.52
   5  -8   4   25.99    1.44
  -6   8  -4    3.05    0.67
   6  -8   4    3.44    0.70
  -7   8  -4    3.38    0.75
   7  -8   4    2.13    0.67
  -8   8  -4    2.75    0.76
   8  -8   4    2.71    0.75
  -9   8  -4    3.79    0.85
   9  -8   4    3.93    0.80
 -10   8  -4    0.34    0.78
  10  -8   4    0.50    0.69
 -11   8  -4   -0.67    0.78
  11  -8   4    0.09    0.70
 -12   8  -4    1.18    0.92
  12  -8   4    0.31    0.86
  12  -8   4    0.37    0.82
 -11  -7   4    1.80    0.81
 -10  -7   4    0.84    0.72
  -9  -7   4    1.33    0.71
  -8  -7   4   -0.16    0.58
  -7  -7   4    2.35    0.65
  -6  -7   4    3.89    0.68
   5   7  -4    9.44    0.76
  -5  -7   4    6.92    0.57
  -5  -7   4    8.54    0.84
   4   7  -4    3.28    0.49
  -4  -7   4    2.02    0.41
  -4  -7   4    3.06    0.58
   3   7  -4   24.87    1.20
  -3  -7   4   24.51    1.28
  -3  -7   4   24.63    1.14
   2   7  -4    3.09    0.41
  -2  -7   4    1.63    0.40
  -2  -7   4    1.78    0.45
   1   7  -4   29.51    1.38
  -1  -7   4   30.53    1.34
  -1  -7   4   29.80    1.37
   0   7  -4    0.52    0.34
   0  -7   4   -0.15    0.37
   0  -7   4   -0.35    0.31
  -1   7  -4    9.48    0.71
   1  -7   4   10.98    0.78
   1  -7   4   10.35    0.67
  -2   7  -4    1.55    0.42
   2  -7   4    2.64    0.34
   2  -7   4    2.59    0.52
  -3   7  -4    3.04    0.51
   3  -7   4    3.72    0.34
   3  -7   4    3.21    0.52
  -4   7  -4    0.81    0.47
   4  -7   4    2.51    0.52
  -5   7  -4    1.00    0.49
   5  -7   4    4.88    0.67
  -6   7  -4    5.44    0.75
   6  -7   4    8.08    0.81
  -7   7  -4    2.41    0.65
   7  -7   4    3.22    0.66
  -8   7  -4    5.64    0.86
   8  -7   4    7.92    0.85
  -9   7  -4    3.91    0.82
   9  -7   4    3.35    0.73
 -10   7  -4    1.66    0.77
  10  -7   4    1.80    0.71
 -11   7  -4    3.14    0.90
  11  -7   4    1.41    0.77
 -12   7  -4    0.82    0.90
  12  -7   4    0.13    0.78
  12  -7   4    1.02    0.84
 -12  -6   4    1.95    0.89
 -11  -6   4    0.37    0.76
 -10  -6   4    3.44    0.85
  -9  -6   4    3.15    0.78
   8   6  -4    5.99    0.77
  -8  -6   4    6.28    0.83
   7   6  -4    2.45    0.59
  -7  -6   4    2.34    0.60
   6   6  -4    5.96    0.68
  -6  -6   4    4.43    0.70
   5   6  -4   11.52    0.82
  -5  -6   4   11.13    0.62
  -5  -6   4    9.51    0.86
   4   6  -4   10.35    0.72
  -4  -6   4    8.20    0.59
  -4  -6   4    7.99    0.75
   3   6  -4    1.14    0.38
  -3  -6   4    0.99    0.32
  -3  -6   4    0.82    0.40
   2   6  -4   18.62    0.94
  -2  -6   4   17.43    0.90
  -2  -6   4   17.59    1.01
   1   6  -4    0.89    0.32
  -1  -6   4    0.65    0.34
  -1  -6   4    0.27    0.29
   0   6  -4   60.58    2.55
   0  -6   4   61.13    2.31
   0  -6   4   66.27    2.46
  -1   6  -4    3.49    0.44
   1  -6   4    2.76    0.36
   1  -6   4    2.88    0.44
  -2   6  -4   26.81    1.29
   2  -6   4   26.51    1.11
   2  -6   4   24.93    1.19
  -3   6  -4    5.67    0.58
   3  -6   4    4.90    0.36
   3  -6   4    4.74    0.57
  -4   6  -4   47.89    2.11
   4  -6   4   46.45    1.93
  -5   6  -4    0.15    0.41
   5  -6   4    1.00    0.46
  -6   6  -4   30.48    1.66
   6  -6   4   34.86    1.54
  -7   6  -4    0.25    0.49
   7  -6   4    0.76    0.54
  -8   6  -4    4.92    0.79
   8  -6   4    4.92    0.70
  -9   6  -4    1.80    0.70
   9  -6   4    0.91    0.61
 -10   6  -4    1.58    0.79
  10  -6   4    1.75    0.65
 -11   6  -4    0.73    0.79
  11  -6   4    0.39    0.63
 -12   6  -4    1.85    0.94
  12  -6   4    3.70    0.84
  12  -6   4    3.60    0.96
 -12  -5   4   -0.06    0.74
 -11  -5   4   -0.78    0.66
  10   5  -4    5.36    0.85
 -10  -5   4    4.76    0.82
   9   5  -4    1.23    0.64
  -9  -5   4    1.54    0.66
   8   5  -4   16.86    1.17
  -8  -5   4   19.96    1.26
   7   5  -4    1.10    0.50
  -7  -5   4   -0.08    0.46
   6   5  -4   26.42    1.42
  -6  -5   4   31.50    1.50
   5   5  -4   15.71    0.97
  -5  -5   4   14.02    0.65
  -5  -5   4   13.66    0.95
   4   5  -4   27.78    1.35
  -4  -5   4   29.34    1.11
  -4  -5   4   29.82    1.38
   3   5  -4   42.73    1.80
  -3  -5   4   43.13    1.57
  -3  -5   4   41.77    1.81
  -2  -5   4    6.43    0.49
  -2  -5   4    6.87    0.57
   1   5  -4  146.92    5.71
  -1  -5   4  149.14    5.51
  -1  -5   4  153.17    5.09
   0   5  -4    3.65    0.41
   0  -5   4    3.61    0.38
   0  -5   4    3.22    0.38
  -1   5  -4  132.45    4.98
   1  -5   4  124.91    4.71
   1  -5   4  130.22    4.45
   2  -5   4    3.64    0.32
   2  -5   4    3.66    0.43
  -3   5  -4   20.63    1.07
   3  -5   4   20.78    1.00
   3  -5   4   20.00    0.84
  -4   5  -4    4.88    0.57
   4  -5   4    4.93    0.33
  -5   5  -4    5.30    0.64
  -6   5  -4    4.12    0.62
  -7   5  -4   12.86    1.02
  -8   5  -4    6.74    0.83
  -9   5  -4    4.12    0.77
 -10   5  -4    0.14    0.64
  10  -5   4   -0.09    0.56
 -11   5  -4    0.97    0.73
  11  -5   4    0.52    0.64
 -12   5  -4    2.40    0.90
  12  -5   4    1.83    0.87
  12  -5   4    1.48    0.72
  13  -5   4   -0.54    0.87
 -13  -4   4    0.01    0.74
  12   4  -4   -0.18    0.80
 -12  -4   4    0.10    0.70
  11   4  -4    1.94    0.76
 -11  -4   4    0.90    0.63
  10   4  -4    0.55    0.64
 -10  -4   4    0.12    0.61
   9   4  -4    5.30    0.77
  -9  -4   4    2.02    0.65
   8   4  -4    0.32    0.53
  -8  -4   4    0.84    0.51
   7   4  -4    7.87    0.79
  -7  -4   4    8.23    0.79
   6   4  -4   34.64    1.65
  -6  -4   4   34.87    1.64
   5   4  -4   18.69    0.99
  -5  -4   4   14.95    0.99
  -5  -4   4   17.30    0.67
   4   4  -4   25.66    1.21
  -4  -4   4   25.48    0.93
  -4  -4   4   24.37    1.21
   3   4  -4   43.49    1.82
  -3  -4   4   43.85    1.81
  -3  -4   4   42.28    1.53
   2   4  -4   13.11    0.71
  -2  -4   4   11.58    0.58
  -2  -4   4   12.44    0.70
   1   4  -4  154.32    5.70
  -1  -4   4  146.74    5.04
  -1  -4   4  148.35    5.47
   0   4  -4  115.11    4.36
   0  -4   4  110.44    4.15
   0  -4   4  113.57    3.86
  -1   4  -4  128.80    4.94
   1  -4   4  127.93    4.67
  -2   4  -4   20.18    1.02
  -3   4  -4   33.30    1.51
  -4   4  -4    0.65    0.34
  -5   4  -4   45.10    2.03
  -6   4  -4    1.05    0.47
  -7   4  -4   27.34    1.50
  -8   4  -4    3.73    0.67
  -9   4  -4    4.55    0.81
 -10   4  -4    2.38    0.74
 -11   4  -4    0.84    0.70
 -12   4  -4   -0.23    0.74
  12  -4   4   -0.62    0.75
  13  -4   4    0.29    0.88
  13   3  -4    1.13    0.88
  12   3  -4   -0.09    0.75
 -12  -3   4   -0.34    0.65
  11   3  -4    3.14    0.79
 -11  -3   4    2.14    0.69
  10   3  -4    0.97    0.64
 -10  -3   4    0.94    0.59
   9   3  -4    5.54    0.77
  -9  -3   4    4.13    0.69
   8   3  -4    1.63    0.55
  -8  -3   4    0.94    0.47
   7   3  -4    2.25    0.56
  -7  -3   4    1.58    0.48
   6   3  -4   11.41    0.81
  -6  -3   4   10.32    0.82
   5   3  -4    2.64    0.45
  -5  -3   4    1.13    0.37
   4   3  -4   10.65    0.68
  -4  -3   4    7.64    0.64
   3   3  -4   14.07    0.79
  -3  -3   4   14.85    0.56
  -3  -3   4   14.47    0.77
   2   3  -4    1.68    0.30
  -2  -3   4    0.67    0.24
  -2  -3   4    0.89    0.17
   1   3  -4   15.88    0.78
  -1  -3   4   14.37    0.73
   0   3  -4   97.04    3.75
  -1   3  -4   54.03    2.19
  -2   3  -4    9.29    0.61
  -3   3  -4    0.83    0.28
  -4   3  -4   18.49    1.00
  -5   3  -4    2.53    0.47
  -6   3  -4    2.63    0.53
  -7   3  -4    1.53    0.51
  -8   3  -4    3.68    0.66
  -9   3  -4    6.00    0.83
 -10   3  -4    5.07    0.86
 -11   3  -4    3.02    0.78
 -12   3  -4    2.22    0.87
  12  -3   4    2.37    0.93
  13  -3   4   -0.06    0.85
  13   2  -4    2.45    0.96
  12   2  -4    0.51    0.76
 -12  -2   4    0.58    0.62
  11   2  -4    3.63    0.83
 -11  -2   4    4.01    0.73
  10   2  -4    1.88    0.71
 -10  -2   4    1.58    0.56
   9   2  -4    2.58    0.64
  -9  -2   4    1.92    0.52
   8   2  -4    3.86    0.66
  -8  -2   4    3.68    0.58
   7   2  -4    2.27    0.54
  -7  -2   4    2.00    0.49
   6   2  -4    8.50    0.76
  -6  -2   4    9.03    0.71
   5   2  -4    2.23    0.42
  -5  -2   4    1.89    0.39
   4   2  -4   32.97    1.54
  -4  -2   4   37.88    1.51
   3   2  -4    6.60    0.50
  -3  -2   4    6.17    0.49
   2   2  -4   40.05    1.62
  -2  -2   4   36.91    1.55
   1   2  -4    5.73    0.45
   0   2  -4   20.83    0.97
  -1   2  -4    1.72    0.22
  -1   2  -4    1.71    0.29
  -2   2  -4   19.86    0.83
  -2   2  -4   20.69    0.97
  -3   2  -4    2.96    0.31
  -3   2  -4    2.60    0.36
  -4   2  -4    2.78    0.40
  -5   2  -4    2.31    0.43
  -6   2  -4   13.58    0.89
  -7   2  -4   11.90    0.89
  -8   2  -4    9.59    0.89
  -9   2  -4   -0.22    0.51
 -10   2  -4    3.29    0.72
 -11   2  -4   -0.14    0.62
  12  -2   4    4.71    0.97
  13  -2   4    0.17    0.90
  13   1  -4    0.36    0.88
  12   1  -4    0.73    0.81
  11   1  -4    1.61    0.73
 -11  -1   4    0.63    0.53
  10   1  -4    1.00    0.64
 -10  -1   4    0.39    0.50
   9   1  -4    1.80    0.61
  -9  -1   4    1.17    0.47
   8   1  -4    1.68    0.58
  -8  -1   4    2.27    0.51
   7   1  -4    6.52    0.73
  -7  -1   4    7.62    0.66
   6   1  -4   11.83    0.87
  -6  -1   4   14.38    0.84
   5   1  -4   30.39    1.42
  -5  -1   4   30.07    1.33
   4   1  -4    9.61    0.63
  -4  -1   4    7.75    0.58
   3   1  -4   23.47    1.06
  -3  -1   4   21.80    1.00
   2   1  -4    7.32    0.50
   2   1  -4    7.40    0.32
   1   1  -4   17.86    0.84
   1   1  -4   17.49    0.67
   0   1  -4  135.45    4.55
   0   1  -4  137.10    5.17
  -1   1  -4   39.72    1.42
  -1   1  -4   38.89    1.62
  -2   1  -4   37.13    1.37
  -2   1  -4   37.57    1.56
  -3   1  -4   86.42    3.39
  -3   1  -4   86.75    3.01
  -4   1  -4    1.56    0.29
  -4   1  -4    1.19    0.31
  -5   1  -4   68.81    2.53
  -5   1  -4   71.61    2.88
  -6   1  -4    4.16    0.55
  -6   1  -4    4.14    0.48
  -7   1  -4   27.98    1.43
  -7   1  -4   27.69    1.25
  -8   1  -4    6.08    0.72
  -9   1  -4    1.75    0.58
 -10   1  -4    7.07    0.88
 -11   1  -4    0.15    0.62
  11  -1   4    0.38    0.66
  12  -1   4    0.65    0.82
  13  -1   4    0.89    0.91
  13   0  -4    0.46    0.84
  12   0  -4    1.34    0.79
  11   0  -4    0.47    0.67
  10   0  -4    6.47    0.88
 -10   0   4    6.31    0.72
   9   0  -4    1.36    0.59
  -9   0   4    1.79    0.47
   8   0  -4   26.96    1.54
  -8   0   4   28.60    1.36
   7   0  -4   13.17    0.95
   7   0  -4   12.07    0.61
  -7   0   4   14.49    0.84
   6   0  -4    4.54    0.57
   6   0  -4    4.13    0.29
  -6   0   4    4.11    0.46
   5   0  -4   66.94    2.32
   5   0  -4   69.48    2.81
  -5   0   4   69.44    2.64
   4   0  -4   11.77    0.74
   4   0  -4   12.79    0.50
  -4   0   4   12.36    0.67
   3   0  -4   49.18    2.02
   3   0  -4   49.30    1.68
   2   0  -4   20.76    0.78
   2   0  -4   21.50    0.97
   1   0  -4   47.90    1.92
   1   0  -4   46.98    1.65
   0   0  -4    2.88    0.25
   0   0  -4    2.70    0.30
  -1   0  -4   83.62    2.84
  -1   0  -4   81.65    3.19
  -2   0  -4    2.41    0.30
  -2   0  -4    1.92    0.24
  -3   0  -4   60.43    2.20
  -3   0  -4   63.02    2.47
  -4   0  -4    3.05    0.36
  -4   0  -4    3.12    0.40
  -5   0  -4   20.90    1.04
  -5   0  -4   19.11    0.97
  -5   0  -4   19.45    0.93
  -6   0  -4   -0.32    0.32
  -6   0  -4    0.58    0.34
  -6   0  -4    0.17    0.33
  -7   0  -4   14.97    0.94
  -7   0  -4   13.04    0.83
  -7   0  -4   13.80    0.90
  -8   0  -4   -0.31    0.37
  -8   0  -4    0.32    0.44
  -8   0  -4    0.32    0.41
  -9   0  -4    6.51    0.79
  -9   0  -4    6.26    0.71
 -10   0  -4    1.62    0.56
 -10   0  -4    3.09    0.67
  10   0   4    1.94    0.67
  11   0   4    2.46    0.79
  12   0   4    2.17    0.87
  13   0   4    0.13    0.86
  13  -1  -4    2.43    0.97
  12  -1  -4    1.54    0.81
  11  -1  -4    6.57    0.97
  10  -1  -4    4.97    0.83
   9  -1  -4   11.97    0.99
  -9   1   4    9.75    0.79
   8  -1  -4   11.96    0.97
  -8   1   4   10.97    0.80
   7  -1  -4   10.64    0.86
   7  -1  -4   11.34    0.63
  -7   1   4    9.00    0.72
   6  -1  -4   15.28    0.69
   6  -1  -4   14.27    0.92
  -6   1   4   13.73    0.78
   5  -1  -4    9.52    0.48
   5  -1  -4    9.44    0.69
  -5   1   4    6.89    0.56
   4  -1  -4    1.44    0.35
   4  -1  -4    1.93    0.24
   3  -1  -4    1.61    0.21
   3  -1  -4    1.39    0.31
   2  -1  -4   30.23    1.10
   2  -1  -4   29.18    1.28
   1  -1  -4  183.08    6.05
   1  -1  -4  179.68    6.81
   0  -1  -4   55.11    2.20
   0  -1  -4   56.88    1.97
  -1  -1  -4   75.64    2.96
  -1  -1  -4   78.14    2.67
  -2  -1  -4   15.40    0.73
  -2  -1  -4   14.97    0.70
  -3  -1  -4   28.48    1.23
  -3  -1  -4   28.33    1.14
  -4  -1  -4    6.73    0.55
  -4  -1  -4    6.08    0.53
  -4  -1  -4    6.56    0.49
  -5  -1  -4   12.33    0.71
  -5  -1  -4   12.14    0.76
  -5  -1  -4   11.36    0.71
  -6  -1  -4   10.68    0.75
  -6  -1  -4   11.86    0.78
  -6  -1  -4   11.49    0.79
  -7  -1  -4    2.05    0.48
  -7  -1  -4    3.11    0.52
  -7  -1  -4    2.50    0.46
  -8  -1  -4    3.49    0.56
  -8  -1  -4    2.51    0.55
  -8  -1  -4    1.75    0.46
  -9  -1  -4    4.15    0.59
  -9  -1  -4    1.83    0.57
  -9  -1  -4    2.17    0.57
 -10  -1  -4    1.45    0.52
 -10  -1  -4    0.32    0.55
  10   1   4    1.15    0.65
 -11  -1  -4    4.57    0.78
  11   1   4    5.10    0.92
  12   1   4    0.69    0.79
  13  -2  -4    0.03    0.80
  12  -2  -4    1.61    0.84
  11  -2  -4    0.46    0.67
  10  -2  -4    3.33    0.74
   9  -2  -4    5.01    0.78
   8  -2  -4    0.29    0.36
   8  -2  -4    0.72    0.54
  -8   2   4    0.43    0.35
   7  -2  -4    7.75    0.56
   7  -2  -4    7.24    0.77
  -7   2   4    6.93    0.57
   6  -2  -4    6.69    0.48
   6  -2  -4    6.56    0.66
  -6   2   4    4.32    0.46
   5  -2  -4   32.84    1.27
   5  -2  -4   32.87    1.51
  -5   2   4   31.74    1.36
   4  -2  -4   25.92    1.26
   4  -2  -4   27.34    1.07
   3  -2  -4   20.66    0.98
   3  -2  -4   19.65    0.85
   2  -2  -4    5.33    0.39
   2  -2  -4    6.03    0.43
   1  -2  -4   24.54    0.99
   1  -2  -4   24.26    1.07
   0  -2  -4   29.32    1.22
   0  -2  -4   28.90    1.13
  -1  -2  -4    0.01    0.16
  -1  -2  -4   -0.10    0.20
  -2  -2  -4   33.58    1.28
  -2  -2  -4   31.83    1.33
  -3  -2  -4    3.32    0.33
  -3  -2  -4    3.15    0.41
  -3  -2  -4    3.35    0.37
  -4  -2  -4   11.64    0.77
  -4  -2  -4   12.29    0.69
  -4  -2  -4   11.64    0.68
  -5  -2  -4   26.06    1.12
  -5  -2  -4   24.34    1.24
  -5  -2  -4   24.14    1.15
  -6  -2  -4    3.76    0.48
  -6  -2  -4    3.75    0.50
  -6  -2  -4    2.94    0.53
  -7  -2  -4    7.19    0.68
  -7  -2  -4    8.33    0.68
  -7  -2  -4    7.16    0.74
  -8  -2  -4    3.93    0.55
  -8  -2  -4    3.63    0.56
  -8  -2  -4    4.61    0.66
  -9  -2  -4    1.12    0.58
  -9  -2  -4    0.90    0.49
   9   2   4    0.56    0.57
 -10  -2  -4    4.72    0.68
 -10  -2  -4    3.44    0.74
  10   2   4    5.32    0.83
 -11  -2  -4    0.30    0.65
  13  -3  -4    0.10    0.79
  12  -3  -4    2.50    0.83
  11  -3  -4    1.40    0.71
  10  -3  -4    1.75    0.67
   9  -3  -4    3.62    0.73
   8  -3  -4    9.03    0.70
   8  -3  -4    9.30    0.93
   7  -3  -4    6.81    0.58
   7  -3  -4    5.46    0.72
  -7   3   4    6.63    0.53
   6  -3  -4   12.62    0.74
   6  -3  -4   13.28    0.92
  -6   3   4   12.83    0.73
   5  -3  -4   16.17    0.81
   5  -3  -4   14.78    0.93
   4  -3  -4   63.48    2.25
   4  -3  -4   59.89    2.53
   3  -3  -4   79.43    2.76
   3  -3  -4   76.60    3.09
   2  -3  -4   58.01    2.34
   2  -3  -4   58.96    2.12
   1  -3  -4  166.65    6.32
   1  -3  -4  169.10    5.69
   0  -3  -4   41.44    1.59
   0  -3  -4   42.01    1.67
  -1  -3  -4    5.09    0.36
  -1  -3  -4    5.03    0.43
  -2  -3  -4    5.47    0.52
  -2  -3  -4    5.24    0.46
  -2  -3  -4    6.11    0.38
  -3  -3  -4    7.40    0.47
  -3  -3  -4    8.35    0.66
  -3  -3  -4    7.58    0.58
  -4  -3  -4    4.71    0.41
  -4  -3  -4    5.34    0.57
  -4  -3  -4    4.67    0.50
  -5  -3  -4    9.31    0.69
  -5  -3  -4   10.22    0.82
  -5  -3  -4    9.31    0.60
  -6  -3  -4    2.59    0.41
  -6  -3  -4    2.10    0.55
  -6  -3  -4    1.54    0.45
  -7  -3  -4    2.94    0.61
  -7  -3  -4    3.10    0.48
  -7  -3  -4    2.70    0.48
  -8  -3  -4   -0.09    0.52
  -8  -3  -4    0.31    0.45
  -9  -3  -4    0.27    0.48
  -9  -3  -4    0.19    0.59
 -10  -3  -4    2.01    0.63
 -10  -3  -4    0.74    0.62
 -11  -3  -4    0.02    0.66
 -12  -3  -4    2.07    0.83
  13  -4  -4    0.89    0.82
  12  -4  -4    1.36    0.85
  11  -4  -4    0.57    0.70
  10  -4  -4    2.12    0.70
   9  -4  -4    2.59    0.71
   8  -4  -4    2.43    0.50
   8  -4  -4    2.27    0.64
   7  -4  -4    9.01    0.88
   7  -4  -4    8.29    0.69
   6  -4  -4    8.08    0.66
   6  -4  -4    7.83    0.78
  -6   4   4    8.43    0.59
   5  -4  -4   34.20    1.42
   5  -4  -4   32.39    1.59
   4  -4  -4   12.77    0.75
   4  -4  -4   12.64    0.82
   3  -4  -4   57.24    2.34
   3  -4  -4   55.98    2.12
   2  -4  -4    0.17    0.27
   2  -4  -4   -0.01    0.29
   1  -4  -4  105.89    3.62
   1  -4  -4   99.90    3.93
   0  -4  -4    0.30    0.26
   0  -4  -4    0.40    0.21
  -1  -4  -4   26.44    1.07
  -1  -4  -4   26.62    1.16
  -2  -4  -4    1.88    0.40
  -2  -4  -4    2.15    0.40
  -3  -4  -4   21.45    1.05
  -3  -4  -4   23.81    1.19
  -3  -4  -4   22.74    0.94
  -4  -4  -4    4.80    0.60
  -4  -4  -4    5.55    0.55
  -4  -4  -4    5.60    0.40
  -5  -4  -4   26.84    1.41
  -5  -4  -4   26.33    1.24
  -6  -4  -4    1.13    0.51
  -6  -4  -4    1.12    0.42
  -7  -4  -4   23.52    1.39
  -7  -4  -4   23.15    1.23
  -8  -4  -4    0.99    0.49
  -8  -4  -4    0.58    0.56
  -9  -4  -4    2.49    0.71
  -9  -4  -4    1.83    0.57
 -10  -4  -4    0.67    0.70
 -11  -4  -4    0.32    0.76
 -12  -4  -4    0.65    0.82
  13  -5  -4    0.24    0.91
  12  -5  -4   -0.26    0.74
  11  -5  -4    4.21    0.89
  10  -5  -4    0.96    0.75
   9  -5  -4    6.56    0.89
   9  -5  -4    5.74    0.73
   8  -5  -4    7.95    0.91
   8  -5  -4    7.94    0.77
   7  -5  -4    6.05    0.66
   7  -5  -4    6.12    0.77
   6  -5  -4    4.30    0.66
   6  -5  -4    4.29    0.59
   5  -5  -4    1.36    0.47
   5  -5  -4    1.82    0.48
   4  -5  -4    1.74    0.43
   4  -5  -4    1.10    0.43
   3  -5  -4    9.50    0.72
   3  -5  -4    8.85    0.71
   2  -5  -4   11.42    0.76
   2  -5  -4   11.90    0.71
   1  -5  -4   15.47    0.78
   1  -5  -4   15.01    0.87
   0  -5  -4   38.93    1.57
   0  -5  -4   39.42    1.61
  -1  -5  -4    2.91    0.46
  -2  -5  -4   13.56    0.84
  -2  -5  -4   13.41    0.89
  -3  -5  -4    1.41    0.42
  -3  -5  -4    2.04    0.48
  -4  -5  -4    1.47    0.44
  -4  -5  -4    1.88    0.52
  -5  -5  -4    0.24    0.46
  -5  -5  -4    0.60    0.44
  -6  -5  -4    0.56    0.46
  -6  -5  -4    0.26    0.51
  -7  -5  -4    0.78    0.49
  -7  -5  -4    0.85    0.59
  -8  -5  -4    0.30    0.50
  -8  -5  -4    1.26    0.64
  -9  -5  -4    1.32    0.71
  -9  -5  -4    0.80    0.55
 -10  -5  -4   -0.51    0.66
 -11  -5  -4    0.94    0.77
  12  -6  -4    1.03    0.82
  11  -6  -4    0.72    0.75
  10  -6  -4    0.88    0.68
   9  -6  -4    0.11    0.58
   9  -6  -4    0.53    0.64
   8  -6  -4    4.29    0.68
   8  -6  -4    5.06    0.77
   7  -6  -4    3.84    0.70
   7  -6  -4    3.33    0.61
   6  -6  -4    3.77    0.63
   6  -6  -4    2.58    0.55
   5  -6  -4    2.26    0.55
   5  -6  -4    2.10    0.52
   4  -6  -4    2.98    0.55
   4  -6  -4    3.36    0.52
   3  -6  -4   -0.07    0.34
   3  -6  -4    0.19    0.43
   2  -6  -4    6.54    0.66
   2  -6  -4    6.35    0.54
   1  -6  -4    7.54    0.67
   1  -6  -4    6.12    0.52
   0  -6  -4    6.89    0.65
  -1  -6  -4    2.41    0.49
  -2  -6  -4   15.14    1.00
  -2  -6  -4   15.74    0.96
  -3  -6  -4    3.17    0.54
  -3  -6  -4    3.01    0.58
  -4  -6  -4    2.56    0.59
  -4  -6  -4    2.67    0.54
  -5  -6  -4    0.88    0.47
  -5  -6  -4    0.84    0.54
  -6  -6  -4    5.49    0.79
  -6  -6  -4    5.13    0.68
  -7  -6  -4   -0.63    0.54
  -7  -6  -4    0.58    0.49
  -8  -6  -4    7.21    0.93
  -8  -6  -4    3.93    0.70
  -9  -6  -4    1.42    0.75
  -9  -6  -4    1.25    0.66
 -10  -6  -4    2.58    0.85
  12  -7  -4   -0.03    0.83
  11  -7  -4    1.10    0.82
  10  -7  -4   -0.30    0.68
   9  -7  -4    0.74    0.61
   9  -7  -4    1.11    0.70
   8  -7  -4    0.79    0.60
   8  -7  -4    0.02    0.57
   7  -7  -4    0.67    0.57
   7  -7  -4    0.86    0.59
   6  -7  -4    6.83    0.78
   6  -7  -4    7.63    0.79
   5  -7  -4    4.05    0.59
   5  -7  -4    2.98    0.60
   4  -7  -4    6.28    0.71
   4  -7  -4    5.93    0.66
   3  -7  -4   14.98    1.05
   3  -7  -4   15.82    0.95
   2  -7  -4    9.39    0.81
   1  -7  -4   13.14    0.88
   0  -7  -4    1.04    0.48
  -1  -7  -4   20.02    1.14
  -2  -7  -4    0.89    0.47
  -2  -7  -4    0.56    0.48
  -3  -7  -4   16.40    1.13
  -3  -7  -4   18.13    1.10
  -4  -7  -4    2.81    0.58
  -4  -7  -4    3.02    0.65
  -5  -7  -4   11.02    1.04
  -5  -7  -4   10.65    0.91
  -6  -7  -4    0.67    0.51
  -6  -7  -4    0.82    0.62
  -7  -7  -4    0.82    0.65
  -7  -7  -4    0.44    0.56
  -8  -7  -4    1.09    0.74
  -8  -7  -4    2.96    0.70
  -9  -7  -4    0.25    0.73
 -10  -7  -4    1.49    0.84
  11  -8  -4    1.46    0.89
  10  -8  -4    2.18    0.79
   9  -8  -4    2.04    0.74
   9  -8  -4    2.39    0.78
   8  -8  -4    3.69    0.76
   8  -8  -4    3.82    0.76
   7  -8  -4    4.51    0.75
   7  -8  -4    3.17    0.71
   6  -8  -4    0.20    0.54
   6  -8  -4    1.34    0.58
   5  -8  -4    7.07    0.80
   5  -8  -4    6.90    0.77
   4  -8  -4    2.39    0.62
   3  -8  -4   12.43    0.98
   2  -8  -4    2.40    0.58
   1  -8  -4    8.07    0.81
   0  -8  -4   -0.51    0.46
  -1  -8  -4    4.22    0.66
  -2  -8  -4   -0.33    0.52
  -2  -8  -4    1.50    0.56
  -3  -8  -4    7.47    0.81
  -3  -8  -4    8.84    0.89
  -4  -8  -4    0.20    0.55
  -4  -8  -4   -0.30    0.57
  -5  -8  -4   11.48    1.00
  -5  -8  -4    9.98    1.05
  -6  -8  -4    0.82    0.67
  -6  -8  -4   -0.09    0.58
  -7  -8  -4    1.89    0.68
  -7  -8  -4    1.16    0.72
  -8  -8  -4    1.88    0.80
  -8  -8  -4    1.83    0.71
  -9  -8  -4   -0.21    0.74
  10  -9  -4   -0.06    0.79
   9  -9  -4    0.80    0.74
   9  -9  -4    2.65    0.83
   8  -9  -4    5.15    0.88
   8  -9  -4    3.21    0.82
   7  -9  -4    1.79    0.68
   7  -9  -4    0.99    0.70
   6  -9  -4    4.33    0.80
   5  -9  -4    1.13    0.64
   4  -9  -4    2.75    0.67
   3  -9  -4    1.97    0.66
   2  -9  -4    0.25    0.58
   1  -9  -4    4.65    0.73
   0  -9  -4    0.51    0.59
  -1  -9  -4    0.71    0.59
  -2  -9  -4    4.03    0.72
  -3  -9  -4    1.40    0.66
  -3  -9  -4    0.89    0.61
  -4  -9  -4    1.38    0.70
  -4  -9  -4    1.36    0.65
  -5  -9  -4    1.09    0.66
  -5  -9  -4    1.38    0.70
  -6  -9  -4    0.42    0.71
  -6  -9  -4    1.55    0.69
  -7  -9  -4    0.33    0.74
  -7  -9  -4    0.64    0.68
  -8  -9  -4    0.20    0.76
   9 -10  -4   -0.52    0.73
   8 -10  -4    0.49    0.75
   7 -10  -4    0.10    0.73
   6 -10  -4    1.40    0.71
   5 -10  -4    0.29    0.64
   4 -10  -4    0.53    0.64
   3 -10  -4    1.08    0.64
   2 -10  -4   -0.21    0.57
   1 -10  -4    0.42    0.61
   0 -10  -4    0.03    0.59
  -1 -10  -4    0.65    0.63
  -2 -10  -4    0.39    0.63
  -3 -10  -4    1.77    0.74
  -4 -10  -4    0.67    0.67
  -4 -10  -4    0.29    0.69
  -5 -10  -4    0.36    0.64
  -5 -10  -4    1.65    0.82
  -6 -10  -4   -0.37    0.68
  -6 -10  -4    0.73    0.80
   8 -11  -4    1.08    0.86
   7 -11  -4    1.59    0.79
   6 -11  -4   -0.06    0.75
   5 -11  -4    1.53    0.78
   4 -11  -4    0.75    0.69
   3 -11  -4    4.75    0.86
   2 -11  -4    0.76    0.70
   1 -11  -4    3.10    0.80
   0 -11  -4    0.97    0.70
  -1 -11  -4    2.93    0.79
  -2 -11  -4    1.27    0.75
  -3 -11  -4    0.45    0.73
  -4 -11  -4    1.08    0.78
  -5 -11  -4    0.27    0.75
   5 -12  -4    3.98    0.91
   4 -12  -4   -0.09    0.77
   3 -12  -4    7.60    1.04
   2 -12  -4    2.29    0.82
   1 -12  -4    1.57    0.78
   0 -12  -4    0.36    0.75
  -1 -12  -4    0.18    0.73
  -2 -12  -4    3.19    0.88
  -3 -12  -4    0.71    0.78
  -2 -14   5    0.91    0.77
  -1 -14   5    3.36    0.93
   0 -14   5    7.63    1.12
   1 -14   5    4.03    0.98
   2 -14   5    8.76    1.19
   3 -14   5    0.99    0.93
   4 -14   5    3.63    1.02
  -5 -13   5    0.59    0.80
  -4 -13   5    3.01    0.83
  -3 -13   5    0.51    0.72
  -2 -13   5    2.76    0.80
  -2 -13   5    2.97    0.79
  -1 -13   5   -0.11    0.66
   0 -13   5    0.91    0.77
   1 -13   5    0.22    0.72
   2 -13   5    1.95    0.83
   3 -13   5   -0.48    0.79
   4 -13   5    0.72    0.82
   5 -13   5   -1.26    0.82
   6 -13   5    2.25    0.94
   7 -13   5    0.40    0.90
  -7 -12   5    0.33    0.84
  -6 -12   5    0.05    0.78
  -5 -12   5    0.45    0.71
  -4 -12   5    1.14    0.74
  -3 -12   5    2.16    0.66
  -3 -12   5    2.14    0.75
  -2 -12   5    0.05    0.58
  -2 -12   5   -0.18    0.56
  -1 -12   5    4.78    0.76
  -1 -12   5    4.18    0.79
   0 -12   5    1.01    0.66
   1 -12   5    3.36    0.85
   2 -12   5    1.74    0.73
   3 -12   5    5.52    0.91
   4 -12   5    0.99    0.75
   5 -12   5    3.71    0.90
  -6  12  -5    1.06    0.71
   6 -12   5   -0.02    0.78
  -7  12  -5    3.11    0.86
   7 -12   5    2.07    0.91
  -8  12  -5    0.53    0.81
   8 -12   5    2.13    0.96
  -8 -11   5    1.22    0.80
  -7 -11   5    0.33    0.79
  -6 -11   5    0.32    0.70
  -5 -11   5    0.94    0.69
  -4 -11   5    0.27    0.62
  -3 -11   5    8.22    0.96
  -3 -11   5    9.14    0.89
  -2 -11   5    0.10    0.55
  -2 -11   5   -0.29    0.54
  -1 -11   5   14.88    1.11
  -1 -11   5   15.49    1.11
   0 -11   5    0.36    0.63
   0 -11   5    1.33    0.57
   1 -11   5   16.57    1.18
   2 -11   5   -0.09    0.60
  -3  11  -5   11.85    0.95
   3 -11   5   11.67    1.11
  -4  11  -5   -0.20    0.52
   4 -11   5    0.33    0.67
  -5  11  -5   10.48    1.03
   5 -11   5    7.77    1.02
  -6  11  -5    2.72    0.76
   6 -11   5    4.01    0.88
  -7  11  -5    5.47    0.95
   7 -11   5    6.26    1.00
  -8  11  -5    2.79    0.88
   8 -11   5    2.12    0.89
  -9  11  -5    2.00    0.87
   9 -11   5    1.55    0.94
  -9 -10   5   -0.50    0.74
  -8 -10   5    0.54    0.75
  -7 -10   5    1.29    0.73
  -6 -10   5    1.97    0.77
  -5 -10   5    0.23    0.60
  -4 -10   5    0.72    0.62
  -4 -10   5    2.30    0.52
  -3 -10   5    5.16    0.67
  -3 -10   5    5.18    0.76
  -2 -10   5    1.21    0.55
  -2 -10   5    0.22    0.48
  -1 -10   5   11.24    0.93
  -1 -10   5   11.20    0.95
   0 -10   5    0.00    0.44
   0 -10   5    0.11    0.52
  -1  10  -5    9.68    0.82
   1 -10   5   10.11    0.80
   1 -10   5    9.35    0.89
  -2  10  -5    0.99    0.47
   2 -10   5    1.54    0.63
  -3  10  -5    0.50    0.49
   3 -10   5   -0.05    0.59
  -4  10  -5    2.34    0.61
   4 -10   5    1.90    0.68
  -5  10  -5    3.46    0.71
   5 -10   5    2.24    0.72
  -6  10  -5    4.22    0.80
   6 -10   5    5.27    0.86
  -7  10  -5    3.02    0.76
   7 -10   5    1.95    0.81
  -8  10  -5    5.89    0.98
   8 -10   5    6.08    0.99
  -9  10  -5    0.69    0.80
   9 -10   5    0.13    0.78
 -10  10  -5    1.00    0.88
  10 -10   5    1.27    0.90
 -10  -9   5   -0.29    0.76
  -9  -9   5    0.91    0.77
  -8  -9   5    1.42    0.74
  -7  -9   5    0.56    0.65
  -6  -9   5    4.55    0.81
  -5  -9   5    1.00    0.62
  -4  -9   5    6.52    0.81
  -4  -9   5    6.95    0.66
  -3  -9   5    0.93    0.51
  -3  -9   5    0.63    0.47
  -2  -9   5    4.24    0.66
  -2  -9   5    4.61    0.59
   1   9  -5    0.62    0.42
  -1  -9   5   -0.04    0.44
  -1  -9   5    0.98    0.46
   0   9  -5   33.05    1.52
   0  -9   5   31.30    1.50
   0  -9   5   29.74    1.48
  -1   9  -5    0.06    0.43
   1  -9   5    0.68    0.56
   1  -9   5   -0.01    0.39
  -2   9  -5    6.78    0.70
   2  -9   5    6.94    0.80
   2  -9   5    6.42    0.59
  -3   9  -5    9.42    0.87
   3  -9   5    9.91    0.91
  -4   9  -5    7.84    0.85
   4  -9   5   10.35    0.96
  -5   9  -5    3.14    0.66
   5  -9   5    3.36    0.71
  -6   9  -5    3.81    0.73
   6  -9   5    4.60    0.79
  -7   9  -5    0.79    0.65
   7  -9   5    1.63    0.69
  -8   9  -5    0.20    0.64
   8  -9   5    1.17    0.75
  -9   9  -5    1.45    0.77
   9  -9   5    1.67    0.78
 -10   9  -5    2.04    0.95
  10  -9   5    3.70    0.89
 -11   9  -5    0.51    0.83
  11  -9   5    1.44    0.88
 -11  -8   5    2.08    0.89
 -10  -8   5    1.03    0.83
  -9  -8   5    2.65    0.83
  -8  -8   5    1.01    0.69
  -7  -8   5    2.54    0.70
  -6  -8   5    0.33    0.58
  -5  -8   5   10.86    0.99
   4   8  -5    7.84    0.66
  -4  -8   5    5.48    0.73
  -4  -8   5    5.67    0.56
   3   8  -5   33.42    1.54
  -3  -8   5   32.27    1.41
  -3  -8   5   32.36    1.61
   2   8  -5    3.39    0.50
  -2  -8   5    3.55    0.53
  -2  -8   5    2.40    0.55
   1   8  -5   19.90    1.12
  -1  -8   5   19.67    1.13
  -1  -8   5   21.81    1.14
   0   8  -5    0.85    0.41
   0  -8   5    1.18    0.51
   0  -8   5    1.40    0.42
  -1   8  -5   25.22    1.31
   1  -8   5   25.34    1.22
   1  -8   5   25.04    1.29
  -2   8  -5    0.86    0.44
   2  -8   5    2.23    0.38
   2  -8   5    2.46    0.59
  -3   8  -5   24.74    1.31
   3  -8   5   23.39    1.30
  -4   8  -5    1.87    0.53
   4  -8   5    2.65    0.61
  -5   8  -5   -0.28    0.45
   5  -8   5    1.11    0.57
  -6   8  -5    9.84    1.00
   6  -8   5   10.54    0.96
  -7   8  -5    0.29    0.58
   7  -8   5    3.20    0.69
  -8   8  -5    1.85    0.71
   8  -8   5    1.59    0.70
  -9   8  -5    3.75    0.88
   9  -8   5    4.33    0.81
 -10   8  -5    0.52    0.76
  10  -8   5    0.63    0.71
 -11   8  -5    2.51    0.98
  11  -8   5    2.38    0.82
 -11  -7   5    1.51    0.82
 -10  -7   5    2.44    0.82
  -9  -7   5    1.22    0.68
  -8  -7   5    0.48    0.62
  -7  -7   5    2.99    0.73
   6   7  -5   -0.67    0.46
  -6  -7   5    0.44    0.53
   5   7  -5   23.34    1.29
  -5  -7   5   25.65    1.38
   4   7  -5    0.69    0.44
  -4  -7   5    0.03    0.45
  -4  -7   5    0.56    0.33
   3   7  -5   34.32    1.59
  -3  -7   5   34.82    1.42
  -3  -7   5   34.12    1.63
   2   7  -5    2.58    0.46
  -2  -7   5    2.67    0.50
  -2  -7   5    2.07    0.43
   1   7  -5   38.86    1.76
  -1  -7   5   39.89    1.64
  -1  -7   5   39.66    1.75
   0   7  -5    0.38    0.36
   0  -7   5    0.26    0.39
   0  -7   5    0.66    0.36
  -1   7  -5   84.48    3.31
   1  -7   5   77.08    2.98
   1  -7   5   81.45    3.11
  -2   7  -5    4.32    0.58
   2  -7   5    5.07    0.61
   2  -7   5    6.11    0.49
  -3   7  -5   27.44    1.43
   3  -7   5   29.91    1.38
   3  -7   5   27.71    1.19
  -4   7  -5   12.77    0.94
   4  -7   5   11.94    0.92
  -5   7  -5   11.66    0.96
   5  -7   5   13.14    0.98
  -6   7  -5   32.12    1.69
   6  -7   5   31.36    1.56
  -7   7  -5    6.69    0.86
   7  -7   5    5.50    0.76
  -8   7  -5   14.89    1.24
   8  -7   5   15.18    1.11
  -9   7  -5    2.14    0.75
   9  -7   5    1.99    0.67
 -10   7  -5    4.86    0.95
  10  -7   5    4.38    0.83
 -11   7  -5    3.29    0.95
  11  -7   5    3.45    0.81
 -12   7  -5    3.42    1.02
  12  -7   5    3.23    0.88
 -12  -6   5    0.90    0.82
 -11  -6   5   -0.30    0.74
 -10  -6   5    7.27    0.99
   9   6  -5   -0.23    0.65
  -9  -6   5    0.53    0.62
   8   6  -5   12.38    1.04
  -8  -6   5    8.71    1.00
   7   6  -5    2.46    0.62
  -7  -6   5    3.78    0.67
   6   6  -5    1.50    0.52
  -6  -6   5    0.77    0.52
   5   6  -5   15.87    1.06
  -5  -6   5   16.96    0.78
  -5  -6   5   17.17    1.11
   4   6  -5   20.96    1.11
  -4  -6   5   19.46    1.16
  -4  -6   5   20.04    0.89
   3   6  -5   33.29    1.51
  -3  -6   5   32.71    1.54
  -3  -6   5   32.23    1.31
   2   6  -5   54.89    2.29
  -2  -6   5   53.77    2.25
  -2  -6   5   55.06    2.03
   1   6  -5   43.18    1.91
  -1  -6   5   44.25    1.86
  -1  -6   5   46.16    1.73
   0   6  -5   55.42    2.37
   0  -6   5   59.52    2.16
   0  -6   5   56.17    2.26
  -1   6  -5   26.14    1.29
   1  -6   5   26.80    1.20
   1  -6   5   27.75    1.20
  -2   6  -5   31.21    1.42
   2  -6   5   27.50    1.30
   2  -6   5   29.43    1.24
  -3   6  -5   19.27    1.09
   3  -6   5   18.74    0.85
   3  -6   5   18.62    1.01
  -4   6  -5   53.16    2.36
   4  -6   5   55.68    2.15
   4  -6   5   52.38    2.01
  -5   6  -5   11.74    0.93
   5  -6   5    9.69    0.82
  -6   6  -5   26.82    1.51
  -7   6  -5   -0.15    0.50
  -8   6  -5    3.80    0.75
   8  -6   5    4.59    0.70
  -9   6  -5    1.25    0.68
   9  -6   5    1.32    0.62
 -10   6  -5    1.27    0.73
  10  -6   5    2.57    0.70
 -11   6  -5   -0.38    0.71
  11  -6   5    0.61    0.67
 -12   6  -5   -0.54    0.84
  12  -6   5    0.31    0.74
 -12  -5   5    0.96    0.80
  11   5  -5   -0.40    0.71
 -11  -5   5    0.11    0.67
  10   5  -5    2.07    0.74
 -10  -5   5    1.29    0.68
   9   5  -5    5.39    0.86
  -9  -5   5    4.65    0.79
   8   5  -5    7.65    0.87
  -8  -5   5    6.35    0.83
   7   5  -5    3.45    0.65
  -7  -5   5    3.96    0.66
   6   5  -5   37.54    1.74
  -6  -5   5   33.55    1.73
   5   5  -5    1.24    0.48
  -5  -5   5    1.68    0.48
  -5  -5   5    1.50    0.23
  -4  -5   5    6.23    0.65
  -4  -5   5    6.78    0.45
   3   5  -5    6.99    0.60
  -3  -5   5    6.04    0.60
  -3  -5   5    5.82    0.42
   2   5  -5   24.41    1.15
  -2  -5   5   23.24    1.13
  -2  -5   5   21.90    0.96
   1   5  -5    2.80    0.41
  -1  -5   5    2.26    0.33
  -1  -5   5    2.32    0.36
   0   5  -5   21.77    1.10
   0  -5   5   23.54    0.97
   0  -5   5   20.58    1.01
  -1   5  -5   10.65    0.76
   1  -5   5   10.47    0.65
   1  -5   5   10.70    0.64
  -2   5  -5   26.85    1.35
   2  -5   5   29.44    1.19
  -3   5  -5    5.73    0.60
   3  -5   5    5.09    0.42
  -4   5  -5   16.52    1.02
  -5   5  -5    0.50    0.44
  -6   5  -5    9.55    0.89
  -7   5  -5    2.06    0.58
  -8   5  -5    2.44    0.65
  -9   5  -5    1.78    0.67
 -10   5  -5    0.37    0.65
 -11   5  -5    1.52    0.79
 -12   5  -5    0.43    0.83
  12  -5   5    0.96    0.72
 -13  -4   5    0.73    0.78
  12   4  -5   -0.58    0.77
 -12  -4   5    0.18    0.73
  11   4  -5    1.63    0.78
 -11  -4   5    1.62    0.68
  10   4  -5    2.70    0.77
 -10  -4   5    1.62    0.69
   9   4  -5    2.47    0.71
  -9  -4   5    2.23    0.65
   8   4  -5    2.57    0.63
  -8  -4   5    2.87    0.60
   7   4  -5    6.25    0.77
  -7  -4   5    6.22    0.72
   6   4  -5   13.72    0.96
  -6  -4   5   10.49    0.90
   5   4  -5   18.33    1.09
  -5  -4   5   18.90    1.08
   4   4  -5    9.19    0.70
  -4  -4   5    6.62    0.62
  -4  -4   5    6.65    0.36
   3   4  -5   26.52    1.20
  -3  -4   5   23.92    0.95
  -3  -4   5   25.43    1.19
   2   4  -5    4.90    0.50
  -2  -4   5    5.26    0.39
  -2  -4   5    5.43    0.48
   1   4  -5   71.45    2.76
  -1  -4   5   65.43    2.38
  -1  -4   5   68.21    2.63
   0   4  -5   22.24    1.13
   0  -4   5   24.92    1.07
  -1   4  -5   65.82    2.69
  -2   4  -5    6.65    0.58
  -3   4  -5   70.04    2.87
  -4   4  -5    1.29    0.41
  -5   4  -5   14.89    0.98
  -6   4  -5    1.20    0.50
  -7   4  -5    6.80    0.79
  -8   4  -5    5.01    0.75
  -9   4  -5    4.13    0.76
 -10   4  -5    0.96    0.67
 -11   4  -5    1.91    0.78
 -12   4  -5    0.54    0.81
  13  -4   5    2.58    1.01
  13   3  -5    1.49    0.92
  12   3  -5   -0.13    0.79
 -12  -3   5   -0.06    0.67
  11   3  -5    2.77    0.79
 -11  -3   5    2.03    0.70
  10   3  -5    2.57    0.75
 -10  -3   5    1.61    0.64
   9   3  -5    2.69    0.67
  -9  -3   5    3.76    0.64
   8   3  -5    1.84    0.62
  -8  -3   5    2.48    0.56
   7   3  -5    5.27    0.75
  -7  -3   5    7.62    0.75
   6   3  -5    2.33    0.52
  -6  -3   5    2.61    0.49
   5   3  -5   18.03    1.10
  -5  -3   5   22.14    1.10
   4   3  -5    7.03    0.61
  -4  -3   5    6.98    0.59
   3   3  -5   25.16    1.24
  -3  -3   5   27.47    1.21
  -3  -3   5   26.72    0.95
   2   3  -5   24.65    1.18
  -2  -3   5   25.07    1.12
   1   3  -5  128.34    4.93
  -1  -3   5  128.12    4.72
   0   3  -5   13.89    0.78
  -1   3  -5   60.77    2.47
  -2   3  -5    6.21    0.54
  -3   3  -5   45.26    1.95
  -4   3  -5    0.55    0.34
  -5   3  -5   25.88    1.34
  -6   3  -5    4.52    0.63
  -7   3  -5   28.65    1.53
  -8   3  -5    0.57    0.51
  -9   3  -5    6.64    0.86
 -10   3  -5    2.18    0.71
 -11   3  -5    2.20    0.76
 -12   3  -5    1.89    0.81
  12  -3   5   -0.19    0.78
  13  -3   5    2.87    1.03
  13   2  -5    0.70    0.88
  12   2  -5    0.57    0.77
 -12  -2   5    1.90    0.69
  11   2  -5    0.35    0.74
 -11  -2   5    0.50    0.55
  10   2  -5    1.22    0.73
 -10  -2   5    1.24    0.58
   9   2  -5    1.56    0.66
  -9  -2   5    1.18    0.50
   8   2  -5    3.50    0.69
  -8  -2   5    2.78    0.55
   7   2  -5   10.77    0.93
  -7  -2   5   11.80    0.86
   6   2  -5    6.91    0.68
  -6  -2   5    4.03    0.55
   5   2  -5   29.17    1.39
  -5  -2   5   27.31    1.30
   4   2  -5    6.79    0.60
  -4  -2   5    7.12    0.57
   3   2  -5   21.39    1.07
  -3  -2   5   22.97    1.05
   2   2  -5   40.66    1.72
   1   2  -5   66.38    2.62
   1   2  -5   64.86    2.24
   0   2  -5    0.48    0.17
   0   2  -5    0.78    0.27
  -1   2  -5   57.03    1.97
  -1   2  -5   53.77    2.25
  -2   2  -5   22.11    1.07
  -2   2  -5   21.84    0.92
  -3   2  -5   18.44    1.01
  -3   2  -5   21.39    0.90
  -4   2  -5   36.84    1.66
  -5   2  -5   10.51    0.79
  -5   2  -5   11.03    0.70
  -6   2  -5   39.45    1.86
  -7   2  -5   11.44    0.89
  -8   2  -5    6.83    0.79
  -9   2  -5    0.06    0.54
 -10   2  -5    2.87    0.75
 -11   2  -5    0.64    0.68
 -12   2  -5    0.28    0.74
  12  -2   5    0.85    0.82
  13  -2   5    1.00    0.95
  13   1  -5    1.06    0.88
  12   1  -5    0.37    0.82
  11   1  -5    0.55    0.70
 -11  -1   5    0.06    0.53
  10   1  -5    4.57    0.86
 -10  -1   5    5.27    0.70
   9   1  -5    0.24    0.57
  -9  -1   5   -0.09    0.44
   8   1  -5    7.80    0.85
  -8  -1   5    5.87    0.66
   7   1  -5    2.11    0.57
  -7  -1   5    1.75    0.44
   6   1  -5    5.16    0.63
  -6  -1   5    2.70    0.45
   5   1  -5    6.03    0.60
  -5  -1   5    4.73    0.49
   4   1  -5   10.35    0.69
  -4  -1   5    7.47    0.59
   3   1  -5   10.59    0.67
   3   1  -5   10.77    0.43
   2   1  -5   28.31    1.31
   2   1  -5   30.25    1.05
   1   1  -5   35.37    1.50
   1   1  -5   34.81    1.26
   0   1  -5   34.72    1.28
   0   1  -5   35.58    1.51
  -1   1  -5   23.35    0.94
  -1   1  -5   24.15    1.10
  -2   1  -5    7.09    0.47
  -2   1  -5    8.01    0.59
  -3   1  -5    4.81    0.41
  -3   1  -5    4.90    0.48
  -4   1  -5    7.77    0.57
  -4   1  -5    7.15    0.60
  -5   1  -5   11.77    0.80
  -5   1  -5   11.62    0.73
  -6   1  -5   10.34    0.74
  -6   1  -5   10.64    0.82
  -7   1  -5   12.90    0.87
  -7   1  -5   13.26    0.92
  -8   1  -5    3.24    0.61
  -9   1  -5    4.53    0.74
 -10   1  -5    2.96    0.72
 -11   1  -5    0.86    0.66
  12  -1   5   -0.01    0.79
  13  -1   5   -0.02    0.82
  13   0  -5    2.83    0.98
  12   0  -5    2.35    0.86
  11   0  -5    2.78    0.81
  10   0  -5    0.64    0.64
 -10   0   5    0.71    0.47
   9   0  -5    2.30    0.66
  -9   0   5    2.03    0.53
   8   0  -5    1.45    0.62
  -8   0   5    0.74    0.43
   7   0  -5   11.51    0.97
  -7   0   5   11.85    0.81
   6   0  -5    0.93    0.46
   6   0  -5    2.00    0.21
  -6   0   5    0.85    0.37
   5   0  -5   24.13    0.92
   5   0  -5   26.20    1.30
  -5   0   5   26.53    1.17
   4   0  -5    9.73    0.44
   4   0  -5    9.88    0.69
   3   0  -5   16.92    0.90
   3   0  -5   17.50    0.68
   2   0  -5    7.15    0.52
   2   0  -5    6.49    0.36
   1   0  -5   22.64    0.87
   1   0  -5   21.96    1.03
   0   0  -5   33.55    1.23
   0   0  -5   31.88    1.40
  -1   0  -5   35.22    1.49
  -1   0  -5   34.84    1.32
  -2   0  -5   17.36    0.77
  -2   0  -5   16.11    0.85
  -3   0  -5    6.80    0.52
  -3   0  -5    8.26    0.58
  -4   0  -5   19.17    0.92
  -4   0  -5   19.85    1.01
  -5   0  -5    1.21    0.39
  -5   0  -5    0.74    0.33
  -6   0  -5   19.43    1.01
  -6   0  -5   19.72    1.10
  -7   0  -5    2.13    0.47
  -7   0  -5    1.84    0.50
  -8   0  -5    1.31    0.46
  -8   0  -5    0.92    0.48
  -9   0  -5    8.65    0.78
  -9   0  -5    6.71    0.83
 -10   0  -5   -1.05    0.52
 -11   0  -5    8.15    1.01
  11   0   5   10.46    1.14
  12   0   5    1.09    0.84
  13  -1  -5   -0.78    0.83
  12  -1  -5    1.45    0.82
  11  -1  -5    1.50    0.75
  10  -1  -5    2.19    0.72
   9  -1  -5    7.35    0.91
  -9   1   5   10.09    0.78
   8  -1  -5    0.27    0.53
  -8   1   5    0.59    0.40
   7  -1  -5   28.77    1.16
  -7   1   5   31.65    1.39
   6  -1  -5    5.23    0.65
   6  -1  -5    5.27    0.40
  -6   1   5    6.34    0.55
   5  -1  -5   54.70    2.33
   5  -1  -5   52.95    1.91
  -5   1   5   55.34    2.16
   4  -1  -5    6.73    0.41
   4  -1  -5    6.33    0.59
   3  -1  -5   22.52    0.88
   3  -1  -5   21.47    1.08
   2  -1  -5    7.80    0.44
   2  -1  -5    7.54    0.54
   1  -1  -5   36.24    1.53
   1  -1  -5   36.37    1.34
   0  -1  -5   11.02    0.56
   0  -1  -5   10.54    0.62
  -1  -1  -5  114.43    3.91
  -1  -1  -5  113.53    4.36
  -2  -1  -5   36.53    1.43
  -2  -1  -5   37.79    1.57
  -3  -1  -5   87.19    3.11
  -3  -1  -5   89.24    3.44
  -4  -1  -5   41.17    1.64
  -4  -1  -5   42.85    1.79
  -5  -1  -5   31.77    1.50
  -5  -1  -5   32.99    1.39
  -6  -1  -5   16.13    0.91
  -6  -1  -5   15.87    0.95
  -7  -1  -5    3.73    0.56
  -7  -1  -5    3.35    0.57
  -7  -1  -5    4.49    0.55
  -8  -1  -5    9.66    0.82
  -8  -1  -5    9.50    0.81
  -8  -1  -5    9.66    0.87
  -9  -1  -5    3.92    0.66
  -9  -1  -5    4.17    0.64
 -10  -1  -5    1.56    0.62
 -10  -1  -5    1.51    0.58
  10   1   5    1.45    0.66
  11   1   5    2.44    0.83
  13  -2  -5    0.50    0.84
  12  -2  -5    3.51    0.93
  11  -2  -5    1.78    0.77
  10  -2  -5    8.84    1.04
   9  -2  -5    3.04    0.73
   8  -2  -5   17.84    1.17
  -8   2   5   15.15    0.93
   7  -2  -5    8.71    0.65
   7  -2  -5   10.20    0.91
  -7   2   5   11.46    0.73
   6  -2  -5   10.36    0.87
   6  -2  -5    9.25    0.63
  -6   2   5    9.40    0.66
   5  -2  -5   49.03    1.82
   5  -2  -5   49.70    2.17
   4  -2  -5   33.99    1.31
   4  -2  -5   34.22    1.57
   3  -2  -5    6.43    0.54
   3  -2  -5    5.74    0.44
   2  -2  -5  125.05    4.74
   2  -2  -5  121.45    4.21
   1  -2  -5    0.86    0.28
   1  -2  -5    0.82    0.25
   0  -2  -5  134.07    4.55
   0  -2  -5  132.59    5.07
  -1  -2  -5    1.20    0.29
  -1  -2  -5    1.04    0.26
  -2  -2  -5   38.10    1.49
  -2  -2  -5   38.38    1.59
  -3  -2  -5    0.64    0.29
  -3  -2  -5    0.28    0.24
  -4  -2  -5   14.89    0.84
  -4  -2  -5   16.73    0.89
  -5  -2  -5    1.33    0.43
  -5  -2  -5    1.15    0.37
  -5  -2  -5    1.76    0.40
  -6  -2  -5    5.95    0.60
  -6  -2  -5    6.05    0.62
  -6  -2  -5    7.24    0.73
  -7  -2  -5    2.37    0.57
  -7  -2  -5    1.89    0.49
  -7  -2  -5    1.29    0.43
  -8  -2  -5    2.31    0.58
  -8  -2  -5    1.91    0.53
  -8  -2  -5    2.56    0.55
  -9  -2  -5    0.51    0.51
  -9  -2  -5    0.57    0.55
  -9  -2  -5    0.92    0.54
 -10  -2  -5    3.98    0.78
 -10  -2  -5    2.44    0.64
  13  -3  -5    0.67    0.87
  12  -3  -5    4.05    1.01
  11  -3  -5    0.56    0.69
  10  -3  -5    3.83    0.77
   9  -3  -5   -0.16    0.56
   8  -3  -5    8.64    0.89
   8  -3  -5    8.46    0.65
   7  -3  -5   -0.68    0.36
   7  -3  -5    0.42    0.54
  -7   3   5    0.12    0.33
   6  -3  -5   10.29    0.74
   6  -3  -5   11.51    0.91
   5  -3  -5    1.09    0.35
   5  -3  -5    0.42    0.42
   4  -3  -5   18.10    0.88
   4  -3  -5   18.27    1.02
   3  -3  -5    2.85    0.37
   3  -3  -5    2.39    0.41
   2  -3  -5   69.08    2.49
   2  -3  -5   69.21    2.76
   1  -3  -5  117.60    4.03
   1  -3  -5  114.67    4.45
   0  -3  -5    1.08    0.27
   0  -3  -5    0.38    0.28
  -1  -3  -5   15.40    0.76
  -1  -3  -5   15.31    0.75
  -2  -3  -5   26.69    1.14
  -2  -3  -5   26.58    1.16
  -3  -3  -5    0.60    0.33
  -3  -3  -5    0.80    0.25
  -4  -3  -5   12.75    0.72
  -4  -3  -5   13.09    0.80
  -4  -3  -5   12.72    0.90
  -5  -3  -5    3.16    0.56
  -5  -3  -5    3.66    0.43
  -5  -3  -5    3.39    0.49
  -6  -3  -5    1.31    0.38
  -6  -3  -5    0.74    0.42
  -6  -3  -5    1.20    0.50
  -7  -3  -5    3.16    0.65
  -7  -3  -5    2.77    0.54
  -8  -3  -5    0.87    0.58
  -8  -3  -5    1.35    0.49
  -9  -3  -5    0.34    0.62
  -9  -3  -5    0.04    0.51
 -10  -3  -5    0.05    0.67
 -10  -3  -5    0.33    0.59
  13  -4  -5    2.32    0.96
  12  -4  -5    2.61    0.95
  11  -4  -5    0.98    0.76
  10  -4  -5    4.36    0.84
   9  -4  -5    0.18    0.61
   8  -4  -5    6.97    0.84
   8  -4  -5    7.59    0.68
   7  -4  -5    3.68    0.65
   7  -4  -5    3.29    0.54
   6  -4  -5    4.69    0.68
   6  -4  -5    5.92    0.59
   5  -4  -5   18.05    1.09
   5  -4  -5   18.66    0.97
   4  -4  -5   19.56    1.02
   4  -4  -5   20.76    1.13
   3  -4  -5   15.73    0.85
   3  -4  -5   15.90    0.91
   2  -4  -5   12.00    0.75
   2  -4  -5   13.28    0.77
   1  -4  -5    8.91    0.65
   1  -4  -5    9.26    0.63
   0  -4  -5    0.45    0.33
   0  -4  -5    0.55    0.26
  -1  -4  -5   14.83    0.86
  -1  -4  -5   15.93    0.74
  -2  -4  -5    1.95    0.26
  -2  -4  -5    1.95    0.42
  -3  -4  -5   13.12    0.65
  -3  -4  -5   11.84    0.81
  -4  -4  -5    1.52    0.47
  -4  -4  -5    1.28    0.43
  -5  -4  -5   27.79    1.45
  -5  -4  -5   26.81    1.30
  -6  -4  -5    0.52    0.43
  -6  -4  -5    0.37    0.49
  -7  -4  -5    8.26    0.76
  -7  -4  -5    7.46    0.86
  -8  -4  -5    0.28    0.57
  -8  -4  -5    0.42    0.51
  -9  -4  -5    2.99    0.65
  -9  -4  -5    2.43    0.76
 -10  -4  -5    0.99    0.76
 -10  -4  -5    0.30    0.59
 -11  -4  -5    0.57    0.80
  12  -5  -5    0.02    0.86
  11  -5  -5    1.76    0.80
  10  -5  -5    0.14    0.66
   9  -5  -5    2.90    0.73
   8  -5  -5    7.59    0.89
   8  -5  -5    7.67    0.74
   7  -5  -5    2.20    0.61
   7  -5  -5    2.88    0.55
   6  -5  -5    9.62    0.78
   6  -5  -5    9.54    0.88
   5  -5  -5   -0.11    0.43
   5  -5  -5    0.46    0.48
   4  -5  -5    0.87    0.44
   4  -5  -5    0.53    0.45
   3  -5  -5    4.64    0.54
   3  -5  -5    3.63    0.52
   2  -5  -5    2.79    0.49
   2  -5  -5    3.57    0.45
   1  -5  -5   12.54    0.74
   1  -5  -5   13.38    0.84
   0  -5  -5    5.93    0.45
   0  -5  -5    6.08    0.60
  -1  -5  -5    7.11    0.64
  -2  -5  -5    5.15    0.59
  -3  -5  -5    4.52    0.57
  -4  -5  -5    6.27    0.75
  -4  -5  -5    6.01    0.65
  -5  -5  -5    2.91    0.56
  -5  -5  -5    2.36    0.61
  -6  -5  -5    2.30    0.62
  -6  -5  -5    0.94    0.48
  -7  -5  -5    1.24    0.52
  -7  -5  -5    1.87    0.65
  -8  -5  -5   -0.50    0.62
  -8  -5  -5    0.70    0.55
  -9  -5  -5    0.96    0.62
  -9  -5  -5    1.06    0.70
 -10  -5  -5    1.06    0.76
 -11  -5  -5    0.49    0.84
  12  -6  -5    1.29    0.90
  11  -6  -5   -0.11    0.75
  10  -6  -5    0.89    0.75
   9  -6  -5    3.50    0.78
   9  -6  -5    3.47    0.69
   8  -6  -5    1.84    0.58
   8  -6  -5    0.82    0.61
   7  -6  -5    9.87    0.86
   7  -6  -5   10.00    0.97
   6  -6  -5    3.81    0.67
   6  -6  -5    3.12    0.58
   5  -6  -5   15.10    1.04
   5  -6  -5   15.50    1.01
   4  -6  -5   15.12    1.00
   4  -6  -5   16.71    0.99
   3  -6  -5   15.25    0.97
   3  -6  -5   16.70    0.97
   2  -6  -5   41.09    1.78
   2  -6  -5   43.17    1.82
   1  -6  -5   15.15    0.95
   1  -6  -5   14.23    0.82
   0  -6  -5   29.27    1.39
  -1  -6  -5    2.88    0.55
  -2  -6  -5   12.58    0.96
  -3  -6  -5    1.89    0.50
  -4  -6  -5    2.14    0.59
  -4  -6  -5    2.30    0.55
  -5  -6  -5    1.35    0.52
  -5  -6  -5    1.56    0.61
  -6  -6  -5    5.61    0.82
  -6  -6  -5    5.37    0.71
  -7  -6  -5    1.18    0.59
  -7  -6  -5    0.30    0.63
  -8  -6  -5    4.46    0.76
  -8  -6  -5    4.01    0.87
  -9  -6  -5    1.04    0.75
  -9  -6  -5    0.78    0.64
 -10  -6  -5    0.70    0.81
  11  -7  -5    1.04    0.89
  10  -7  -5    2.64    0.81
   9  -7  -5    3.66    0.85
   9  -7  -5    5.10    0.77
   8  -7  -5    1.32    0.65
   8  -7  -5    2.40    0.65
   7  -7  -5    1.02    0.59
   7  -7  -5    0.44    0.60
   6  -7  -5    3.89    0.68
   6  -7  -5    3.86    0.69
   5  -7  -5    4.60    0.67
   5  -7  -5    4.04    0.65
   4  -7  -5    4.27    0.62
   4  -7  -5    5.90    0.68
   3  -7  -5    1.44    0.55
   3  -7  -5    1.53    0.45
   2  -7  -5    1.96    0.55
   1  -7  -5   -0.19    0.45
   0  -7  -5    2.84    0.56
  -1  -7  -5    1.03    0.50
  -2  -7  -5    0.26    0.47
  -3  -7  -5    2.52    0.58
  -4  -7  -5    0.51    0.50
  -4  -7  -5   -0.89    0.51
  -5  -7  -5    4.51    0.70
  -5  -7  -5    3.66    0.76
  -6  -7  -5    1.40    0.66
  -6  -7  -5    1.32    0.57
  -7  -7  -5    2.01    0.67
  -7  -7  -5    1.25    0.70
  -8  -7  -5    1.58    0.76
  -8  -7  -5    2.06    0.68
  -9  -7  -5    0.40    0.66
  -9  -7  -5    0.19    0.81
  11  -8  -5    0.77    0.91
  10  -8  -5    0.57    0.83
   9  -8  -5    2.14    0.82
   9  -8  -5    0.91    0.68
   8  -8  -5    8.75    0.95
   8  -8  -5    8.39    1.01
   7  -8  -5    0.85    0.60
   7  -8  -5    1.26    0.66
   6  -8  -5    2.02    0.64
   6  -8  -5    2.09    0.64
   5  -8  -5    1.01    0.60
   4  -8  -5    2.08    0.61
   3  -8  -5    1.22    0.58
   2  -8  -5    4.75    0.70
   1  -8  -5    1.36    0.55
   0  -8  -5    0.38    0.52
  -1  -8  -5    5.34    0.75
  -2  -8  -5    0.63    0.55
  -3  -8  -5    1.35    0.58
  -4  -8  -5    0.21    0.55
  -5  -8  -5    2.80    0.71
  -5  -8  -5    2.87    0.75
  -6  -8  -5    0.70    0.64
  -6  -8  -5   -0.59    0.63
  -7  -8  -5    2.21    0.82
  -7  -8  -5    2.09    0.74
  -8  -8  -5   -0.65    0.69
  -8  -8  -5   -0.07    0.67
  10  -9  -5    1.61    0.90
   9  -9  -5   -0.88    0.64
   9  -9  -5    0.48    0.79
   8  -9  -5    0.62    0.67
   7  -9  -5    1.66    0.73
   6  -9  -5    2.01    0.71
   5  -9  -5    1.92    0.66
   4  -9  -5   10.03    0.97
   3  -9  -5    0.54    0.59
   2  -9  -5    7.73    0.88
   1  -9  -5    0.43    0.59
   0  -9  -5    7.57    0.88
  -1  -9  -5   -0.83    0.59
  -2  -9  -5    3.57    0.75
  -3  -9  -5    0.99    0.62
  -4  -9  -5    2.27    0.70
  -5  -9  -5    0.46    0.66
  -6  -9  -5    0.39    0.70
  -7  -9  -5   -0.77    0.67
   8 -10  -5   -0.18    0.70
   7 -10  -5    3.03    0.83
   6 -10  -5    0.40    0.67
   5 -10  -5    2.10    0.75
   4 -10  -5    6.09    0.86
   3 -10  -5    4.67    0.82
   2 -10  -5    8.33    0.96
   1 -10  -5    2.31    0.71
   0 -10  -5    8.38    0.95
  -1 -10  -5   -1.01    0.60
  -2 -10  -5    2.90    0.77
  -3 -10  -5    1.70    0.71
  -4 -10  -5    2.11    0.75
  -5 -10  -5    0.01    0.72
  -6 -10  -5   -0.19    0.69
   7 -11  -5    1.15    0.77
   6 -11  -5    4.39    0.89
   5 -11  -5   -0.40    0.67
   4 -11  -5    5.53    0.92
   3 -11  -5    0.38    0.68
   2 -11  -5    2.04    0.78
   1 -11  -5    0.75    0.71
   0 -11  -5    4.33    0.85
  -1 -11  -5    0.43    0.76
  -2 -11  -5    6.43    0.98
  -3 -11  -5    0.69    0.79
  -4 -11  -5    4.85    0.95
   4 -12  -5    0.85    0.77
   3 -12  -5    1.61    0.80
   2 -12  -5    0.87    0.80
   1 -12  -5    0.38    0.76
   0 -12  -5   -0.37    0.76
  -1 -12  -5    0.20    0.75
  -1 -14   6   -0.48    0.75
   0 -14   6    7.83    1.11
   1 -14   6   -1.37    0.78
   2 -14   6    2.74    0.93
   3 -14   6    1.17    0.90
   4 -14   6    4.61    1.04
  -5 -13   6    1.43    0.80
  -4 -13   6    2.76    0.85
  -3 -13   6    2.01    0.79
  -2 -13   6    2.54    0.80
  -2 -13   6    4.22    0.83
  -1 -13   6    1.46    0.77
   0 -13   6    9.27    1.09
   1 -13   6    1.63    0.82
   2 -13   6    6.48    0.97
   3 -13   6   -0.37    0.72
   4 -13   6    8.05    1.14
   5 -13   6    0.65    0.81
   6 -13   6    1.98    0.91
  -7 -12   6    0.90    0.83
  -6 -12   6    0.86    0.82
  -5 -12   6    1.15    0.79
  -4 -12   6    2.82    0.78
  -3 -12   6    0.75    0.70
  -2 -12   6    3.81    0.76
  -2 -12   6    2.45    0.73
  -1 -12   6    0.63    0.59
  -1 -12   6    0.71    0.66
   0 -12   6   15.09    1.22
   1 -12   6    0.05    0.66
   2 -12   6   15.14    1.27
   3 -12   6    2.81    0.78
   4 -12   6    9.89    1.09
  -5  12  -6    4.50    0.84
   5 -12   6    3.75    0.92
  -6  12  -6    9.13    1.09
   6 -12   6    5.92    1.08
  -7  12  -6    2.54    0.87
   7 -12   6    2.17    0.93
  -8  12  -6    3.78    0.96
   8 -12   6    1.17    0.92
  -8 -11   6    0.18    0.82
  -7 -11   6    1.73    0.82
  -6 -11   6    0.53    0.71
  -5 -11   6    1.74    0.73
  -4 -11   6   -0.27    0.59
  -3 -11   6    2.54    0.72
  -3 -11   6    3.74    0.66
  -2 -11   6   -0.32    0.53
  -2 -11   6   -0.04    0.55
  -1 -11   6   11.11    0.99
  -1 -11   6   12.19    1.02
   0 -11   6    0.38    0.53
   0 -11   6    0.80    0.63
   1 -11   6    6.67    0.88
  -2  11  -6    2.51    0.60
   2 -11   6    2.50    0.73
  -3  11  -6    4.10    0.75
   3 -11   6    4.76    0.83
  -4  11  -6    0.85    0.60
   4 -11   6    1.51    0.71
  -5  11  -6    1.12    0.63
   5 -11   6    2.06    0.78
  -6  11  -6   -0.51    0.62
   6 -11   6   -0.18    0.74
  -7  11  -6    0.59    0.75
   7 -11   6    1.66    0.80
  -8  11  -6    0.81    0.74
   8 -11   6   -1.07    0.75
  -9  11  -6    0.52    0.80
   9 -11   6    1.23    0.86
  -9 -10   6    0.40    0.79
  -8 -10   6    1.49    0.85
  -7 -10   6    0.31    0.73
  -6 -10   6    1.07    0.69
  -5 -10   6    1.60    0.67
  -4 -10   6    0.03    0.57
  -3 -10   6   13.19    0.96
  -3 -10   6   12.52    1.08
  -2 -10   6    1.14    0.53
  -2 -10   6    2.50    0.62
  -1 -10   6   17.71    1.13
  -1 -10   6   16.75    1.12
   0  10  -6    2.81    0.55
   0 -10   6    2.17    0.55
   0 -10   6    2.58    0.63
  -1  10  -6    1.45    0.53
   1 -10   6   -0.29    0.54
   1 -10   6    0.97    0.48
  -2  10  -6   20.09    1.22
   2 -10   6   19.21    1.24
  -3  10  -6    4.78    0.72
   3 -10   6    4.77    0.78
  -4  10  -6    6.19    0.82
   4 -10   6    6.02    0.84
  -5  10  -6    2.10    0.63
   5 -10   6    2.26    0.72
  -6  10  -6    4.80    0.84
   6 -10   6    4.67    0.86
  -7  10  -6    3.31    0.83
   7 -10   6    3.49    0.86
  -8  10  -6    3.62    0.88
   8 -10   6    3.14    0.86
  -9  10  -6    2.54    0.88
   9 -10   6    1.72    0.83
 -10  10  -6   -0.20    0.85
  10 -10   6    0.90    0.81
 -10  -9   6    0.09    0.82
  -9  -9   6    3.00    0.92
  -8  -9   6    2.64    0.82
  -7  -9   6   -0.59    0.60
  -6  -9   6   10.35    1.07
  -5  -9   6   -0.13    0.55
  -4  -9   6    7.83    0.68
  -4  -9   6    7.10    0.85
  -3  -9   6    6.15    0.65
  -3  -9   6    5.35    0.72
   2   9  -6    7.81    0.72
  -2  -9   6    6.96    0.70
  -2  -9   6    6.53    0.75
   1   9  -6    6.83    0.68
  -1  -9   6    5.51    0.68
  -1  -9   6    7.49    0.74
   0   9  -6   33.20    1.64
   0  -9   6   35.05    1.62
   0  -9   6   33.67    1.60
  -1   9  -6    0.35    0.42
   1  -9   6    0.01    0.37
   1  -9   6    0.17    0.53
  -2   9  -6   41.89    1.96
   2  -9   6   39.81    1.84
   2  -9   6   41.45    1.75
  -3   9  -6    0.62    0.50
   3  -9   6    0.11    0.53
  -4   9  -6   22.73    1.34
   4  -9   6   21.63    1.32
  -5   9  -6    0.15    0.52
   5  -9   6    0.45    0.58
  -6   9  -6   18.69    1.30
   6  -9   6   18.00    1.26
  -7   9  -6    0.95    0.68
   7  -9   6    0.92    0.65
  -8   9  -6    2.15    0.77
   8  -9   6    2.16    0.74
  -9   9  -6    0.29    0.73
   9  -9   6    0.07    0.71
 -10   9  -6   -0.40    0.76
  10  -9   6    0.31    0.72
 -11   9  -6    0.60    0.91
  11  -9   6    0.23    0.77
 -11  -8   6    0.70    0.87
 -10  -8   6    0.67    0.79
  -8  -8   6    0.43    0.67
  -7  -8   6    3.07    0.75
  -6  -8   6    2.98    0.70
   5   8  -6   -0.34    0.47
  -5  -8   6    0.42    0.51
   4   8  -6    4.12    0.61
  -4  -8   6    5.89    0.55
  -4  -8   6    6.74    0.77
   3   8  -6    0.28    0.44
  -3  -8   6    0.14    0.46
  -3  -8   6   -0.51    0.37
   2   8  -6    4.74    0.59
  -2  -8   6    4.69    0.66
  -2  -8   6    4.55    0.56
   1   8  -6    0.38    0.41
  -1  -8   6   -0.20    0.41
  -1  -8   6    0.64    0.45
   0   8  -6    2.51    0.50
   0  -8   6    2.18    0.52
   0  -8   6    2.39    0.52
  -1   8  -6    1.41    0.49
   1  -8   6    0.95    0.42
   1  -8   6    1.84    0.54
  -2   8  -6    5.43    0.66
   2  -8   6    6.89    0.58
   2  -8   6    4.73    0.67
  -3   8  -6    0.25    0.48
   3  -8   6    2.01    0.59
  -4   8  -6   34.47    1.73
   4  -8   6   33.39    1.61
  -5   8  -6    2.72    0.65
   5  -8   6    6.25    0.73
  -6   8  -6   35.14    1.84
   6  -8   6   33.21    1.68
  -7   8  -6    0.62    0.61
   7  -8   6    0.78    0.61
  -8   8  -6   17.19    1.35
   8  -8   6   15.88    1.19
  -9   8  -6    7.87    1.07
   9  -8   6    5.81    0.89
 -10   8  -6    1.56    0.86
  10  -8   6    1.62    0.74
 -11   8  -6    4.38    1.05
  11  -8   6    3.84    0.91
 -11  -7   6    0.90    0.85
 -10  -7   6    3.80    0.87
  -9  -7   6    1.16    0.70
  -8  -7   6    2.98    0.77
   7   7  -6    4.09    0.70
  -7  -7   6    3.19    0.70
   6   7  -6    1.47    0.56
  -6  -7   6    1.54    0.60
   5   7  -6    9.46    0.82
  -5  -7   6    5.75    0.77
   4   7  -6    5.60    0.67
  -4  -7   6    4.82    0.69
  -4  -7   6    4.38    0.47
   3   7  -6    9.99    0.81
  -3  -7   6    5.63    0.54
  -3  -7   6    4.16    0.66
   2   7  -6    4.88    0.58
  -2  -7   6    3.64    0.58
  -2  -7   6    3.98    0.51
   1   7  -6   16.71    0.97
  -1  -7   6   15.18    0.96
  -1  -7   6   13.63    0.85
   0   7  -6   19.01    1.10
   0  -7   6   18.92    1.02
   0  -7   6   21.35    1.07
  -1   7  -6   12.81    0.86
   1  -7   6   12.14    0.76
   1  -7   6   10.65    0.82
  -2   7  -6    2.28    0.50
   2  -7   6    2.74    0.41
   2  -7   6    1.76    0.50
  -3   7  -6   30.72    1.60
   3  -7   6   31.71    1.34
   3  -7   6   31.64    1.47
  -4   7  -6   15.55    1.08
   4  -7   6   17.19    1.05
  -5   7  -6    7.56    0.86
   5  -7   6    9.89    0.84
  -6   7  -6    9.01    0.94
   6  -7   6   10.22    0.88
  -7   7  -6    2.90    0.70
   7  -7   6    7.83    0.81
  -8   7  -6    2.53    0.72
   8  -7   6    3.38    0.70
  -9   7  -6    7.87    1.06
   9  -7   6    8.51    0.93
 -10   7  -6   -0.39    0.70
  10  -7   6    0.41    0.68
 -11   7  -6    1.20    0.83
  11  -7   6    0.71    0.75
 -12   7  -6    2.49    1.01
  12  -7   6    2.60    0.84
 -12  -6   6    0.09    0.83
 -11  -6   6    0.62    0.80
 -10  -6   6    0.87    0.73
   9   6  -6    1.67    0.73
  -9  -6   6    2.91    0.76
   8   6  -6    1.49    0.67
  -8  -6   6    0.97    0.64
   7   6  -6    2.88    0.67
  -7  -6   6    4.72    0.73
   6   6  -6   10.52    0.92
  -6  -6   6   11.62    0.98
   5   6  -6   17.62    1.13
  -5  -6   6   19.97    1.19
   4   6  -6   50.20    2.23
  -4  -6   6   49.84    2.23
  -4  -6   6   52.96    1.86
   3   6  -6   37.07    1.77
  -3  -6   6   41.07    1.78
  -3  -6   6   38.71    1.51
   2   6  -6   40.76    1.92
  -2  -6   6   45.61    1.70
  -2  -6   6   44.63    1.92
   1   6  -6    7.21    0.65
  -1  -6   6    5.90    0.57
  -1  -6   6    6.65    0.55
   0   6  -6   45.96    2.02
   0  -6   6   45.44    1.90
   0  -6   6   47.47    1.81
  -1   6  -6    0.10    0.39
   1  -6   6    0.66    0.36
   1  -6   6    0.63    0.31
  -2   6  -6   22.34    1.17
   2  -6   6   19.11    1.07
   2  -6   6   19.94    0.98
  -3   6  -6    0.50    0.42
   3  -6   6    1.53    0.34
  -4   6  -6    5.61    0.70
   4  -6   6    6.54    0.50
  -5   6  -6    2.19    0.59
  -6   6  -6    5.67    0.77
  -7   6  -6    1.53    0.60
  -8   6  -6    0.85    0.62
  -9   6  -6    1.47    0.74
 -10   6  -6    0.48    0.69
 -11   6  -6    1.01    0.85
  11  -6   6    0.39    0.72
 -12   6  -6    0.51    0.84
  12  -6   6   -0.03    0.73
 -12  -5   6    0.93    0.81
  11   5  -6    0.94    0.85
 -11  -5   6   -0.58    0.66
  10   5  -6    0.74    0.72
 -10  -5   6   -0.30    0.66
   9   5  -6    2.49    0.74
  -9  -5   6    1.83    0.66
   8   5  -6    3.36    0.75
  -8  -5   6    4.00    0.70
   7   5  -6    0.89    0.56
  -7  -5   6    0.06    0.49
   6   5  -6   23.08    1.39
  -6  -5   6   24.23    1.35
   5   5  -6   20.82    1.20
  -5  -5   6   18.81    1.17
   4   5  -6   30.23    1.51
  -4  -5   6   32.29    1.54
  -4  -5   6   32.28    1.18
   3   5  -6    9.24    0.76
  -3  -5   6    8.63    0.72
  -3  -5   6    8.99    0.55
   2   5  -6   55.20    2.35
  -2  -5   6   56.99    2.03
  -2  -5   6   55.95    2.28
   1   5  -6   -0.18    0.33
  -1  -5   6    0.57    0.30
  -1  -5   6   -0.03    0.25
   0   5  -6   51.23    2.18
   0  -5   6   50.01    2.04
  -1   5  -6    3.27    0.49
   1  -5   6    3.43    0.40
  -2   5  -6   72.27    2.99
  -3   5  -6    1.05    0.41
  -4   5  -6   83.57    3.47
  -5   5  -6   11.38    0.92
  -6   5  -6   40.80    2.02
  -7   5  -6    2.78    0.65
  -8   5  -6    5.17    0.80
  -9   5  -6    1.09    0.65
 -10   5  -6    0.77    0.70
 -11   5  -6   -0.04    0.72
 -12   5  -6    1.45    0.85
  13   4  -6    1.44    0.95
 -13  -4   6    0.21    0.77
  12   4  -6    0.00    0.84
 -12  -4   6    0.75    0.76
  11   4  -6    7.06    1.04
 -11  -4   6    6.34    0.94
  10   4  -6    4.25    0.87
 -10  -4   6    2.93    0.74
   9   4  -6    8.94    0.98
  -9  -4   6    7.96    0.89
   8   4  -6    5.67    0.80
  -8  -4   6    3.38    0.67
   7   4  -6    0.68    0.58
  -7  -4   6    1.84    0.54
   6   4  -6   16.40    1.12
  -6  -4   6   18.44    1.12
   5   4  -6    5.60    0.67
  -5  -4   6    4.76    0.61
   4   4  -6   16.31    1.02
  -4  -4   6   17.52    0.97
  -4  -4   6   16.14    0.64
   3   4  -6   12.98    0.84
  -3  -4   6   12.58    0.57
  -3  -4   6   11.48    0.78
   2   4  -6   20.53    1.11
  -2  -4   6   22.24    1.09
  -2  -4   6   23.18    0.89
   1   4  -6   15.35    0.88
  -1  -4   6   15.63    0.84
   0   4  -6    4.73    0.53
  -1   4  -6   26.65    1.30
  -2   4  -6   26.67    1.32
  -3   4  -6    2.20    0.45
  -4   4  -6   31.48    1.55
  -5   4  -6    4.93    0.65
  -6   4  -6   14.09    1.06
  -7   4  -6    3.58    0.68
  -8   4  -6    0.15    0.50
  -9   4  -6    2.12    0.68
 -10   4  -6    0.06    0.61
 -11   4  -6    0.76    0.75
 -12   4  -6    0.37    0.76
  13   3  -6    0.50    0.90
  12   3  -6    2.67    0.93
 -12  -3   6    0.25    0.68
  11   3  -6    3.19    0.85
 -11  -3   6    1.57    0.70
  10   3  -6    3.04    0.77
 -10  -3   6    0.89    0.60
   9   3  -6    2.82    0.75
  -9  -3   6    1.44    0.60
   8   3  -6    2.91    0.66
  -8  -3   6    1.98    0.57
   7   3  -6    6.65    0.80
  -7  -3   6    3.66    0.62
   6   3  -6    6.25    0.70
  -6  -3   6    4.84    0.63
   5   3  -6    5.92    0.65
  -5  -3   6    5.10    0.59
   4   3  -6    6.68    0.64
  -4  -3   6    6.22    0.58
   3   3  -6   29.87    1.43
  -3  -3   6   29.36    1.09
  -3  -3   6   33.70    1.41
   2   3  -6   69.44    2.80
  -2  -3   6   68.15    2.67
   1   3  -6   70.41    2.85
   0   3  -6   13.66    0.81
  -1   3  -6  105.97    4.17
  -2   3  -6    9.50    0.71
  -3   3  -6   42.25    1.88
  -4   3  -6    0.09    0.36
  -5   3  -6    9.19    0.80
  -6   3  -6    0.90    0.49
  -7   3  -6   11.25    1.01
  -8   3  -6    1.21    0.56
  -9   3  -6    2.87    0.71
 -10   3  -6    3.83    0.80
 -11   3  -6    1.06    0.76
 -12   3  -6    2.04    0.82
  13   2  -6   -0.26    0.88
  12   2  -6    2.04    0.89
 -12  -2   6    2.50    0.74
  11   2  -6    0.57    0.75
 -11  -2   6    0.78    0.61
  10   2  -6    4.20    0.81
 -10  -2   6    3.70    0.69
   9   2  -6    4.18    0.76
  -9  -2   6    3.78    0.67
   8   2  -6    2.04    0.65
  -8  -2   6    2.61    0.56
   7   2  -6   20.60    1.28
  -7  -2   6   16.19    1.07
   6   2  -6    3.23    0.60
  -6  -2   6    3.46    0.52
   5   2  -6   19.26    1.10
  -5  -2   6   16.34    0.97
   4   2  -6    2.28    0.45
  -4  -2   6    1.27    0.37
   3   2  -6   45.73    1.98
  -3  -2   6   45.77    1.88
   2   2  -6   16.28    0.89
   2   2  -6   16.29    0.66
   1   2  -6   76.53    3.13
   1   2  -6   80.30    2.70
   0   2  -6   43.02    1.57
   0   2  -6   42.77    1.84
  -1   2  -6    7.35    0.58
  -1   2  -6    6.56    0.49
  -2   2  -6  153.58    5.89
  -2   2  -6  151.90    5.20
  -3   2  -6    4.01    0.40
  -3   2  -6    5.12    0.53
  -4   2  -6   24.27    1.10
  -4   2  -6   24.22    1.24
  -5   2  -6    8.50    0.65
  -5   2  -6    8.35    0.74
  -6   2  -6    5.65    0.60
  -6   2  -6    5.82    0.70
  -7   2  -6    8.78    0.87
  -8   2  -6    2.17    0.58
  -9   2  -6    2.09    0.62
 -10   2  -6    0.95    0.61
 -11   2  -6    0.71    0.68
 -12   2  -6   -0.31    0.70
  13   1  -6    0.20    0.89
  12   1  -6    0.69    0.82
  11   1  -6    1.44    0.81
 -11  -1   6    1.10    0.58
  10   1  -6    1.89    0.72
 -10  -1   6    2.30    0.59
   9   1  -6    0.19    0.60
  -9  -1   6    1.10    0.51
   8   1  -6    0.69    0.56
  -8  -1   6    1.56    0.50
   7   1  -6    1.73    0.58
  -7  -1   6    1.00    0.44
   6   1  -6   12.95    0.96
  -6  -1   6   14.19    0.86
   5   1  -6    1.48    0.46
  -5  -1   6    1.37    0.38
   4   1  -6   25.91    0.92
   4   1  -6   27.61    1.31
  -4  -1   6   25.43    1.20
   3   1  -6    0.32    0.15
   3   1  -6    0.15    0.32
   2   1  -6   36.75    1.58
   2   1  -6   34.59    1.27
   1   1  -6    9.64    0.49
   1   1  -6   10.28    0.67
   0   1  -6   82.68    2.84
   0   1  -6   81.35    3.26
  -1   1  -6    1.63    0.33
  -1   1  -6    1.87    0.28
  -2   1  -6  129.63    4.53
  -2   1  -6  135.65    5.13
  -3   1  -6   12.15    0.69
  -3   1  -6   12.99    0.78
  -4   1  -6   56.18    2.35
  -4   1  -6   55.20    2.10
  -5   1  -6    2.15    0.42
  -5   1  -6    2.29    0.47
  -6   1  -6   22.56    1.34
  -6   1  -6   25.60    1.20
  -7   1  -6    1.77    0.47
  -7   1  -6    2.19    0.59
  -8   1  -6    2.15    0.52
  -8   1  -6    2.70    0.58
  -9   1  -6    5.05    0.76
 -10   1  -6    2.02    0.70
 -11   1  -6    2.34    0.76
 -12   1  -6    1.87    0.83
  12  -1   6    0.84    0.82
  13   0  -6    4.30    1.09
  12   0  -6   -0.08    0.82
  11   0  -6    4.47    0.91
  10   0  -6   -0.13    0.64
 -10   0   6    0.35    0.49
   9   0  -6    1.13    0.65
  -9   0   6    2.18    0.53
   8   0  -6    1.99    0.65
  -8   0   6    1.79    0.48
   7   0  -6    4.28    0.69
  -7   0   6    3.20    0.50
   6   0  -6    4.59    0.65
   6   0  -6    5.76    0.34
  -6   0   6    4.88    0.57
   5   0  -6    7.37    0.68
   5   0  -6    5.58    0.35
  -5   0   6    4.55    0.52
   4   0  -6   11.43    0.52
   4   0  -6   11.44    0.79
   3   0  -6    0.45    0.33
   3   0  -6    0.82    0.20
   2   0  -6   38.57    1.41
   2   0  -6   38.64    1.69
   1   0  -6    3.83    0.43
   1   0  -6    3.93    0.33
   0   0  -6    6.76    0.59
   0   0  -6    7.78    0.47
  -1   0  -6    0.23    0.22
  -1   0  -6    0.83    0.29
  -2   0  -6    4.80    0.47
  -2   0  -6    4.72    0.42
  -3   0  -6    0.10    0.29
  -3   0  -6    0.42    0.28
  -4   0  -6    8.44    0.60
  -4   0  -6    8.26    0.64
  -5   0  -6    1.40    0.41
  -5   0  -6    1.63    0.40
  -6   0  -6   31.99    1.56
  -6   0  -6   29.44    1.38
  -7   0  -6    3.18    0.53
  -7   0  -6    3.14    0.57
  -8   0  -6    6.20    0.75
  -8   0  -6    6.19    0.71
  -9   0  -6    6.44    0.73
  -9   0  -6    4.59    0.74
 -10   0  -6    1.48    0.65
 -11   0  -6    4.83    0.87
  12   0   6    0.15    0.83
  13  -1  -6    1.35    0.96
  12  -1  -6    3.59    0.93
  11  -1  -6    0.10    0.69
  10  -1  -6    4.69    0.86
   9  -1  -6    7.35    0.93
  -9   1   6    8.77    0.78
   8  -1  -6    2.27    0.67
  -8   1   6    2.31    0.47
   7  -1  -6   12.71    1.02
  -7   1   6   11.11    0.80
   6  -1  -6    6.26    0.74
   6  -1  -6    6.47    0.47
  -6   1   6    7.59    0.63
   5  -1  -6   23.60    0.95
   5  -1  -6   23.19    1.26
   4  -1  -6    1.30    0.42
   4  -1  -6    1.23    0.25
   3  -1  -6   36.02    1.35
   3  -1  -6   35.82    1.61
   2  -1  -6    2.98    0.42
   2  -1  -6    2.79    0.31
   1  -1  -6   16.74    0.89
   1  -1  -6   16.42    0.75
   0  -1  -6    3.76    0.42
   0  -1  -6    3.41    0.36
  -1  -1  -6   17.73    0.89
  -1  -1  -6   17.34    0.82
  -2  -1  -6   11.36    0.70
  -2  -1  -6   11.58    0.67
  -3  -1  -6   19.67    0.91
  -3  -1  -6   18.64    0.97
  -4  -1  -6    7.94    0.65
  -4  -1  -6    8.60    0.65
  -5  -1  -6   12.07    0.83
  -5  -1  -6   12.93    0.82
  -6  -1  -6   15.09    0.92
  -6  -1  -6   13.91    1.00
  -7  -1  -6    4.70    0.59
  -7  -1  -6    4.74    0.61
  -8  -1  -6    2.67    0.59
  -8  -1  -6    2.78    0.57
  -9  -1  -6   -0.44    0.52
  -9  -1  -6    0.51    0.51
 -10  -1  -6    1.30    0.62
 -10  -1  -6    1.33    0.62
  13  -2  -6    1.38    0.91
  12  -2  -6   -0.23    0.76
  11  -2  -6    0.52    0.70
  10  -2  -6    0.59    0.68
   9  -2  -6    1.62    0.68
   8  -2  -6    6.66    0.86
  -8   2   6    7.35    0.66
   7  -2  -6    2.20    0.62
   7  -2  -6    3.96    0.42
  -7   2   6    2.49    0.48
   6  -2  -6   15.08    0.78
   6  -2  -6   15.24    1.07
  -6   2   6   15.94    0.89
   5  -2  -6    4.87    0.44
   5  -2  -6    3.94    0.60
   4  -2  -6    9.87    0.81
   4  -2  -6   10.58    0.60
   3  -2  -6    8.30    0.55
   3  -2  -6    8.49    0.66
   2  -2  -6    8.18    0.56
   2  -2  -6    8.81    0.66
   1  -2  -6    7.61    0.53
   1  -2  -6    7.33    0.59
   0  -2  -6   95.79    3.35
   0  -2  -6   95.43    3.73
  -1  -2  -6   10.66    0.67
  -1  -2  -6   11.13    0.67
  -2  -2  -6    9.97    0.64
  -2  -2  -6   10.24    0.66
  -3  -2  -6    0.61    0.30
  -3  -2  -6    0.43    0.33
  -4  -2  -6    2.05    0.43
  -4  -2  -6    2.11    0.40
  -5  -2  -6    0.33    0.37
  -5  -2  -6    0.77    0.39
  -6  -2  -6    0.17    0.40
  -6  -2  -6   -0.22    0.36
  -7  -2  -6    1.30    0.50
  -7  -2  -6    0.86    0.44
  -8  -2  -6    1.90    0.56
  -8  -2  -6    1.73    0.53
  -9  -2  -6    0.20    0.51
 -10  -2  -6    4.24    0.72
 -11  -2  -6   -0.77    0.63
  13  -3  -6    1.89    0.99
  12  -3  -6    1.50    0.85
  11  -3  -6    0.36    0.74
  10  -3  -6    1.07    0.72
   9  -3  -6    1.17    0.65
   8  -3  -6    4.66    0.78
   7  -3  -6    2.77    0.65
   7  -3  -6    3.17    0.48
  -7   3   6    2.87    0.48
   6  -3  -6   18.16    0.94
   6  -3  -6   17.93    1.16
   5  -3  -6    0.31    0.35
   5  -3  -6   -1.04    0.44
   4  -3  -6   35.28    1.46
   4  -3  -6   37.16    1.68
   3  -3  -6    2.63    0.47
   3  -3  -6    2.62    0.41
   2  -3  -6   11.03    0.67
   2  -3  -6   11.02    0.78
   1  -3  -6    6.95    0.58
   1  -3  -6    6.96    0.56
   0  -3  -6   19.37    0.94
   0  -3  -6   19.17    0.95
  -1  -3  -6    1.80    0.38
  -1  -3  -6    1.98    0.33
  -2  -3  -6   33.69    1.46
  -2  -3  -6   34.88    1.45
  -3  -3  -6    9.90    0.74
  -3  -3  -6   10.52    0.65
  -4  -3  -6   10.02    0.76
  -4  -3  -6   10.22    0.67
  -5  -3  -6    5.14    0.61
  -5  -3  -6    6.31    0.55
  -6  -3  -6    3.04    0.55
  -7  -3  -6    6.88    0.74
  -8  -3  -6    2.33    0.58
  -9  -3  -6    1.14    0.60
 -10  -3  -6    1.06    0.67
  12  -4  -6    1.94    0.94
  11  -4  -6    1.19    0.79
  10  -4  -6    1.51    0.74
   9  -4  -6    3.63    0.80
   8  -4  -6    3.16    0.54
   8  -4  -6    3.01    0.71
   7  -4  -6    2.20    0.51
   7  -4  -6    2.64    0.65
   6  -4  -6   49.78    2.32
   6  -4  -6   50.78    2.00
   5  -4  -6   11.59    0.77
   5  -4  -6   11.64    0.96
   4  -4  -6   46.25    1.84
   4  -4  -6   46.29    2.07
   3  -4  -6   32.97    1.58
   3  -4  -6   34.10    1.44
   2  -4  -6   26.70    1.22
   2  -4  -6   27.29    1.30
   1  -4  -6   31.80    1.38
   1  -4  -6   32.25    1.44
   0  -4  -6   20.09    0.99
   0  -4  -6   21.12    1.03
  -1  -4  -6   16.75    0.91
  -1  -4  -6   15.65    0.81
  -2  -4  -6    3.60    0.51
  -2  -4  -6    4.82    0.40
  -3  -4  -6   23.22    1.17
  -4  -4  -6    7.49    0.69
  -5  -4  -6   16.79    1.03
  -6  -4  -6    4.11    0.61
  -7  -4  -6    2.77    0.60
  -8  -4  -6    0.50    0.55
  -9  -4  -6    0.31    0.61
 -10  -4  -6    0.63    0.65
  12  -5  -6    0.73    0.91
  11  -5  -6    2.43    0.87
  10  -5  -6   -0.61    0.65
   9  -5  -6    3.73    0.81
   8  -5  -6    1.97    0.71
   8  -5  -6    1.11    0.55
   7  -5  -6    4.46    0.64
   7  -5  -6    3.40    0.72
   6  -5  -6    6.28    0.77
   6  -5  -6    6.18    0.66
   5  -5  -6    2.79    0.60
   5  -5  -6    1.90    0.51
   4  -5  -6   13.80    0.94
   4  -5  -6   12.05    0.84
   3  -5  -6   12.51    0.91
   3  -5  -6   14.31    0.93
   2  -5  -6   16.06    0.93
   2  -5  -6   14.42    0.91
   1  -5  -6    1.19    0.45
   1  -5  -6    1.10    0.37
   0  -5  -6    0.97    0.31
   0  -5  -6    0.43    0.41
  -1  -5  -6    5.46    0.62
  -2  -5  -6    5.27    0.63
  -3  -5  -6   23.92    1.24
  -4  -5  -6    6.31    0.70
  -5  -5  -6   12.06    0.93
  -6  -5  -6   -0.05    0.47
  -7  -5  -6    2.52    0.64
  -8  -5  -6   -0.26    0.56
  -9  -5  -6    0.48    0.65
 -10  -5  -6    0.28    0.67
  12  -6  -6    0.32    0.88
  11  -6  -6    3.06    0.97
  10  -6  -6   -0.10    0.72
   9  -6  -6    4.46    0.87
   8  -6  -6    3.67    0.67
   8  -6  -6    2.89    0.75
   7  -6  -6    5.15    0.78
   7  -6  -6    5.32    0.71
   6  -6  -6    1.18    0.60
   6  -6  -6    1.31    0.53
   5  -6  -6    5.25    0.71
   5  -6  -6    6.11    0.69
   4  -6  -6    2.67    0.54
   4  -6  -6    2.65    0.54
   3  -6  -6    1.68    0.51
   3  -6  -6    2.02    0.48
   2  -6  -6    7.38    0.72
   2  -6  -6    8.35    0.67
   1  -6  -6    0.03    0.44
   0  -6  -6   15.63    1.01
  -1  -6  -6    0.06    0.44
  -2  -6  -6    6.28    0.69
  -3  -6  -6    2.77    0.56
  -4  -6  -6    2.04    0.58
  -5  -6  -6    3.85    0.65
  -6  -6  -6    4.17    0.71
  -7  -6  -6    3.45    0.72
  -8  -6  -6    2.37    0.70
  -9  -6  -6   -0.26    0.64
  11  -7  -6    0.04    0.82
  10  -7  -6    0.08    0.78
   9  -7  -6    2.88    0.85
   8  -7  -6    3.00    0.69
   8  -7  -6    4.60    0.83
   7  -7  -6    2.38    0.65
   7  -7  -6    2.35    0.71
   6  -7  -6    2.05    0.64
   6  -7  -6    0.36    0.51
   5  -7  -6    0.49    0.52
   5  -7  -6    1.76    0.59
   4  -7  -6    0.86    0.54
   4  -7  -6    1.23    0.52
   3  -7  -6    0.10    0.50
   2  -7  -6    5.23    0.69
   1  -7  -6    0.38    0.50
   0  -7  -6   16.43    1.07
  -1  -7  -6    1.19    0.54
  -2  -7  -6    4.63    0.70
  -3  -7  -6    0.82    0.52
  -4  -7  -6    2.95    0.67
  -5  -7  -6    1.87    0.63
  -6  -7  -6    1.62    0.63
  -7  -7  -6    2.85    0.74
  -8  -7  -6    1.20    0.71
  -9  -7  -6    1.96    0.76
  10  -8  -6   -0.33    0.81
   9  -8  -6    0.51    0.80
   8  -8  -6    6.99    1.01
   8  -8  -6    7.47    0.88
   7  -8  -6   -0.09    0.60
   7  -8  -6    0.25    0.65
   6  -8  -6    8.20    0.90
   5  -8  -6    1.56    0.61
   4  -8  -6   14.26    1.04
   3  -8  -6    1.06    0.57
   2  -8  -6   12.81    1.04
   1  -8  -6    3.33    0.69
   0  -8  -6    7.39    0.82
  -1  -8  -6    1.53    0.60
  -2  -8  -6    2.24    0.66
  -3  -8  -6    3.53    0.71
  -4  -8  -6    1.87    0.67
  -5  -8  -6    1.47    0.66
  -6  -8  -6    0.54    0.64
  -7  -8  -6    1.80    0.74
  -8  -8  -6    0.03    0.72
   8  -9  -6    0.19    0.68
   7  -9  -6    2.16    0.74
   6  -9  -6   -0.05    0.64
   5  -9  -6    0.70    0.65
   4  -9  -6    1.02    0.68
   3  -9  -6    0.43    0.59
   2  -9  -6    0.57    0.59
   1  -9  -6    1.91    0.65
   0  -9  -6    0.80    0.60
  -1  -9  -6    1.39    0.64
  -2  -9  -6   -0.05    0.61
  -3  -9  -6    1.77    0.68
  -4  -9  -6    1.28    0.69
  -5  -9  -6    0.77    0.73
  -6  -9  -6    1.51    0.76
   8 -10  -6    0.92    0.77
   7 -10  -6   -0.21    0.66
   6 -10  -6   -0.16    0.72
   5 -10  -6    0.39    0.70
   4 -10  -6    0.93    0.66
   3 -10  -6   -0.72    0.59
   2 -10  -6    0.28    0.65
   1 -10  -6   -0.28    0.61
   0 -10  -6   -0.85    0.66
  -1 -10  -6    0.52    0.67
  -2 -10  -6    1.01    0.71
  -3 -10  -6   -0.49    0.66
  -4 -10  -6    4.13    0.88
  -5 -10  -6    0.82    0.79
   6 -11  -6    4.94    0.94
   5 -11  -6    1.10    0.75
   4 -11  -6    4.65    0.94
   3 -11  -6    3.20    0.86
   2 -11  -6    5.18    0.91
   1 -11  -6    4.34    0.90
   0 -11  -6    3.38    0.85
  -1 -11  -6    2.26    0.82
  -2 -11  -6    0.30    0.76
  -3 -11  -6    1.98    0.81
  -1 -14   7   -0.56    0.75
   0 -14   7   -0.14    0.81
   1 -14   7    0.21    0.78
   2 -14   7    0.49    0.86
   3 -14   7    1.96    0.91
   4 -14   7   -1.66    0.83
  -5 -13   7    1.51    0.85
  -4 -13   7    0.84    0.78
  -3 -13   7    1.03    0.75
  -2 -13   7    2.21    0.77
  -2 -13   7    1.98    0.75
  -1 -13   7    0.75    0.73
   0 -13   7    0.01    0.75
   1 -13   7    0.17    0.71
   2 -13   7    1.37    0.83
   3 -13   7    0.37    0.75
   4 -13   7    1.56    0.84
   5 -13   7    0.79    0.86
   6 -13   7    1.24    0.88
  -7 -12   7    0.27    0.81
  -6 -12   7    2.59    0.86
  -5 -12   7    1.60    0.81
  -4 -12   7    8.22    1.05
  -3 -12   7    0.39    0.68
  -2 -12   7   16.51    1.26
  -2 -12   7   19.54    1.30
  -1 -12   7    0.68    0.68
  -1 -12   7    1.78    0.65
   0 -12   7   20.76    1.32
   1 -12   7    3.79    0.80
   2 -12   7   19.38    1.37
   3 -12   7    8.02    1.00
  -4  12  -7   12.82    1.15
   4 -12   7   10.38    1.18
  -5  12  -7    3.06    0.80
   5 -12   7    3.88    0.90
  -6  12  -7    2.39    0.80
   6 -12   7    2.73    0.89
  -7  12  -7    1.42    0.81
   7 -12   7    1.31    0.91
  -8  12  -7    1.64    0.86
   8 -12   7    3.48    0.98
  -8 -11   7    2.01    0.88
  -7 -11   7    1.17    0.83
  -6 -11   7    3.46    0.85
  -5 -11   7    2.03    0.74
  -4 -11   7    3.30    0.81
  -3 -11   7    4.35    0.79
  -2 -11   7    1.37    0.63
  -2 -11   7    2.32    0.63
  -1 -11   7    3.72    0.70
  -1 -11   7    3.92    0.72
   0 -11   7    1.82    0.64
   0 -11   7    1.18    0.55
  -1  11  -7    4.84    0.70
   1 -11   7    4.67    0.75
  -2  11  -7    5.16    0.75
   2 -11   7    5.75    0.84
  -3  11  -7    7.21    0.88
   3 -11   7    7.37    0.93
  -4  11  -7    4.03    0.78
   4 -11   7    5.21    0.89
  -5  11  -7    5.43    0.85
   5 -11   7    3.20    0.83
  -6  11  -7    0.63    0.68
   6 -11   7    0.89    0.76
  -7  11  -7    5.07    0.98
   7 -11   7    4.32    0.98
  -8  11  -7    1.13    0.79
   8 -11   7    0.53    0.82
  -9  11  -7    0.78    0.88
   9 -11   7   -0.69    0.82
  -9 -10   7    0.34    0.78
  -8 -10   7    0.18    0.76
  -7 -10   7   -0.11    0.67
  -6 -10   7   -0.68    0.61
  -5 -10   7    1.93    0.70
  -4 -10   7   -0.04    0.57
  -3 -10   7    5.31    0.66
  -3 -10   7    5.27    0.79
  -2 -10   7    0.49    0.52
  -2 -10   7   -0.09    0.52
   1  10  -7   11.98    0.96
  -1 -10   7   10.18    0.92
  -1 -10   7   11.78    0.96
   0  10  -7    0.94    0.49
   0 -10   7    0.50    0.46
   0 -10   7    0.54    0.52
  -1  10  -7   17.28    1.18
   1 -10   7   20.22    1.20
   1 -10   7   19.91    1.13
  -2  10  -7    1.97    0.60
   2 -10   7    3.74    0.71
  -3  10  -7   10.66    1.00
   3 -10   7   12.48    1.08
  -4  10  -7    0.45    0.57
   4 -10   7    0.47    0.61
  -5  10  -7   10.48    1.05
   5 -10   7   10.73    1.05
  -6  10  -7    1.01    0.67
   6 -10   7    2.27    0.74
  -7  10  -7    5.96    0.95
   7 -10   7    4.56    0.89
  -8  10  -7    3.32    0.91
   8 -10   7    2.12    0.84
  -9  10  -7    1.81    0.90
   9 -10   7    0.67    0.80
 -10  10  -7    1.17    0.91
  10 -10   7    0.03    0.80
 -10  -9   7    0.44    0.84
  -9  -9   7    0.27    0.75
  -8  -9   7    2.60    0.81
  -7  -9   7    0.07    0.65
  -6  -9   7    1.47    0.67
  -5  -9   7    0.19    0.57
  -4  -9   7    1.80    0.61
   3   9  -7    1.44    0.53
  -3  -9   7    1.10    0.54
  -3  -9   7    0.47    0.45
   2   9  -7   12.45    0.96
  -2  -9   7   11.55    0.87
  -2  -9   7   11.45    0.96
   1   9  -7    0.93    0.53
  -1  -9   7    1.74    0.52
  -1  -9   7    1.35    0.52
   0   9  -7   12.23    1.01
   0  -9   7   12.68    0.92
   0  -9   7   12.76    0.97
  -1   9  -7   -0.26    0.44
   1  -9   7    1.10    0.43
   1  -9   7    0.72    0.54
  -2   9  -7    5.17    0.71
   2  -9   7    4.81    0.70
   2  -9   7    5.57    0.58
  -3   9  -7    0.33    0.52
   3  -9   7    1.46    0.58
  -4   9  -7    2.80    0.64
   4  -9   7    4.65    0.74
  -5   9  -7    1.97    0.65
   5  -9   7    2.28    0.65
  -6   9  -7    3.69    0.79
   6  -9   7    5.39    0.80
  -7   9  -7    0.57    0.66
   7  -9   7    0.74    0.64
  -8   9  -7    2.04    0.82
   8  -9   7    3.15    0.78
  -9   9  -7    0.24    0.76
   9  -9   7    1.22    0.73
 -10   9  -7    0.90    0.85
  10  -9   7    0.54    0.77
 -11  -8   7    0.78    0.88
 -10  -8   7    2.19    0.91
  -9  -8   7    1.06    0.77
  -8  -8   7    2.29    0.78
  -7  -8   7    3.95    0.78
   6   8  -7    6.58    0.82
  -6  -8   7    5.72    0.83
   5   8  -7    2.55    0.62
  -5  -8   7    2.47    0.65
   4   8  -7    9.60    0.86
  -4  -8   7    8.82    0.90
   3   8  -7   12.66    0.92
  -3  -8   7   12.45    1.01
  -3  -8   7   10.28    0.76
   2   8  -7   34.96    1.68
  -2  -8   7   33.62    1.65
  -2  -8   7   34.24    1.50
   1   8  -7    1.55    0.50
  -1  -8   7    0.78    0.48
  -1  -8   7    1.72    0.50
   0   8  -7   49.81    2.27
   0  -8   7   52.35    2.09
   0  -8   7   50.13    2.15
  -1   8  -7   49.25    2.25
   1  -8   7   49.14    2.07
   1  -8   7   48.07    2.01
  -2   8  -7   92.56    3.80
   2  -8   7   90.54    3.43
   2  -8   7   93.13    3.53
  -3   8  -7   26.24    1.44
   3  -8   7   25.02    1.34
  -4   8  -7   12.07    1.00
   4  -8   7   13.36    0.99
  -5   8  -7   18.07    1.21
   5  -8   7   13.88    1.08
  -6   8  -7    4.99    0.82
   6  -8   7    7.03    0.83
  -7   8  -7    5.31    0.84
   7  -8   7    3.68    0.74
  -8   8  -7    3.75    0.84
   8  -8   7    4.58    0.79
  -9   8  -7    1.07    0.76
   9  -8   7    1.93    0.73
 -10   8  -7    0.46    0.83
  10  -8   7    1.55    0.76
 -11   8  -7    1.22    0.88
  11  -8   7    1.41    0.84
 -11  -7   7    2.01    0.85
 -10  -7   7    1.13    0.77
  -9  -7   7    3.33    0.82
   8   7  -7    1.38    0.69
  -8  -7   7    2.89    0.74
   7   7  -7    4.56    0.77
  -7  -7   7    4.17    0.75
   6   7  -7    2.61    0.66
  -6  -7   7    5.38    0.77
   5   7  -7    6.88    0.79
  -5  -7   7    6.01    0.78
   4   7  -7    0.27    0.52
  -4  -7   7    0.95    0.50
  -4  -7   7    1.44    0.35
   3   7  -7   14.02    0.99
  -3  -7   7   13.79    0.82
  -3  -7   7   12.61    0.97
   2   7  -7    0.28    0.45
  -2  -7   7    1.27    0.40
  -2  -7   7    1.56    0.48
   1   7  -7   35.38    1.69
  -1  -7   7   35.99    1.52
  -1  -7   7   35.46    1.65
   0   7  -7    4.24    0.61
   0  -7   7    3.12    0.48
   0  -7   7    3.04    0.51
   1  -7   7   74.87    2.74
   1  -7   7   71.35    2.86
  -2   7  -7    5.07    0.68
   2  -7   7    4.35    0.49
   2  -7   7    3.48    0.55
  -3   7  -7   15.88    1.07
   3  -7   7   16.18    0.86
   3  -7   7   15.54    1.00
  -4   7  -7    2.30    0.59
   4  -7   7    2.22    0.55
  -5   7  -7    4.92    0.74
  -6   7  -7   11.69    1.08
  -7   7  -7    0.81    0.60
  -8   7  -7    1.06    0.70
  -9   7  -7    8.39    1.10
   9  -7   7    6.15    0.88
 -10   7  -7    0.34    0.74
  10  -7   7   -0.69    0.68
 -11   7  -7    2.14    0.90
  11  -7   7    1.12    0.77
 -12  -6   7   -0.24    0.81
 -11  -6   7    1.83    0.81
  10   6  -7   -0.33    0.77
 -10  -6   7    0.52    0.71
   9   6  -7    1.05    0.76
  -9  -6   7    2.49    0.72
   8   6  -7    2.04    0.73
  -8  -6   7    1.34    0.65
   7   6  -7    1.55    0.65
  -7  -6   7    1.26    0.61
   6   6  -7    3.42    0.68
  -6  -6   7    3.15    0.64
   5   6  -7    7.80    0.78
  -5  -6   7    6.97    0.79
   4   6  -7    4.35    0.63
  -4  -6   7    4.28    0.64
  -4  -6   7    4.54    0.40
   3   6  -7    8.99    0.80
  -3  -6   7    8.24    0.57
  -3  -6   7    8.81    0.78
   2   6  -7    5.79    0.66
  -2  -6   7    5.94    0.62
  -2  -6   7    6.30    0.53
   1   6  -7   12.50    0.88
  -1  -6   7   12.17    0.75
  -1  -6   7   11.69    0.84
   0   6  -7    4.89    0.61
   0  -6   7    3.79    0.48
   0  -6   7    4.74    0.51
  -1   6  -7   35.58    1.72
   1  -6   7   35.90    1.55
  -2   6  -7    4.07    0.61
   2  -6   7    4.22    0.47
  -3   6  -7   22.15    1.25
   3  -6   7   20.80    1.01
  -4   6  -7    2.46    0.61
  -5   6  -7    3.50    0.66
  -6   6  -7    0.93    0.55
  -7   6  -7    3.30    0.72
  -8   6  -7    0.58    0.61
  -9   6  -7    3.98    0.89
 -10   6  -7    1.56    0.79
 -11   6  -7    0.73    0.82
 -12   6  -7    0.79    0.89
  12  -6   7   -0.01    0.75
  12   5  -7   -0.97    0.86
 -12  -5   7   -0.57    0.69
  11   5  -7    2.70    0.94
 -11  -5   7    1.51    0.81
  10   5  -7    0.82    0.79
 -10  -5   7    1.61    0.73
   9   5  -7    2.96    0.81
  -9  -5   7    3.83    0.75
   8   5  -7    3.33    0.74
  -8  -5   7    5.29    0.80
   7   5  -7    5.34    0.77
  -7  -5   7    4.20    0.70
   6   5  -7    8.77    0.89
  -6  -5   7    8.85    0.86
   5   5  -7   10.30    0.88
  -5  -5   7    7.71    0.80
   4   5  -7   16.97    1.07
  -4  -5   7   17.60    0.76
  -4  -5   7   17.71    1.07
   3   5  -7    5.45    0.63
  -3  -5   7    4.15    0.38
  -3  -5   7    4.04    0.55
   2   5  -7   27.32    1.32
  -2  -5   7   24.39    1.24
  -2  -5   7   25.07    1.06
   1   5  -7    6.00    0.60
  -1  -5   7    3.42    0.48
   0   5  -7    1.09    0.41
   0  -5   7    0.11    0.33
  -1   5  -7    0.85    0.41
  -2   5  -7   21.18    1.19
  -3   5  -7    2.40    0.53
  -4   5  -7   51.35    2.33
  -5   5  -7    5.82    0.75
  -6   5  -7   22.47    1.39
  -7   5  -7    2.30    0.68
  -8   5  -7    4.55    0.83
  -9   5  -7   -0.26    0.60
 -10   5  -7    1.17    0.76
 -11   5  -7    1.27    0.79
 -12   5  -7    0.62    0.84
  12   4  -7   -0.16    0.81
 -12  -4   7    1.15    0.74
  11   4  -7    3.74    0.93
 -11  -4   7    2.26    0.78
  10   4  -7    0.90    0.76
 -10  -4   7    1.17    0.65
   9   4  -7    3.80    0.80
  -9  -4   7    3.84    0.76
   8   4  -7   -0.20    0.57
  -8  -4   7   -0.87    0.49
   7   4  -7    0.91    0.58
  -7  -4   7    0.63    0.51
   6   4  -7    3.58    0.69
  -6  -4   7    3.28    0.60
   5   4  -7   -0.25    0.50
  -5  -4   7    0.12    0.40
   4   4  -7   21.64    1.20
  -4  -4   7   22.42    1.15
  -4  -4   7   20.24    0.79
   3   4  -7    0.11    0.39
  -3  -4   7   -0.09    0.35
  -3  -4   7    0.31    0.21
   2   4  -7    5.61    0.60
  -2  -4   7    5.68    0.57
   1   4  -7   40.81    1.83
  -1  -4   7   40.88    1.72
   0   4  -7   24.43    1.26
  -1   4  -7   49.43    2.16
  -2   4  -7   23.97    1.28
  -3   4  -7   11.50    0.88
  -4   4  -7   12.31    0.92
  -5   4  -7    7.75    0.82
  -6   4  -7    4.38    0.69
  -7   4  -7    3.46    0.69
  -8   4  -7    1.80    0.64
  -9   4  -7    0.36    0.59
 -10   4  -7    0.65    0.67
 -11   4  -7    0.27    0.70
 -12   4  -7    2.80    0.90
  13   3  -7    0.96    0.96
  12   3  -7    0.67    0.89
 -12  -3   7    0.70    0.72
  11   3  -7    0.48    0.79
 -11  -3   7   -0.12    0.63
  10   3  -7    5.17    0.91
 -10  -3   7    4.29    0.74
   9   3  -7    1.83    0.75
  -9  -3   7    1.54    0.63
   8   3  -7   10.83    1.03
  -8  -3   7   10.97    0.98
   7   3  -7   14.76    1.13
  -7  -3   7   16.46    1.13
   6   3  -7   28.28    1.58
  -6  -3   7   28.72    1.44
   5   3  -7   11.06    0.91
  -5  -3   7   13.04    0.87
   4   3  -7   24.49    1.29
  -4  -3   7   23.77    1.23
   3   3  -7   39.70    1.83
  -3  -3   7   41.98    1.77
   2   3  -7   12.19    0.82
   1   3  -7   98.78    3.93
   0   3  -7    4.67    0.54
  -1   3  -7   43.63    1.93
  -2   3  -7   15.48    0.96
  -3   3  -7   25.81    1.33
  -4   3  -7    0.46    0.41
  -5   3  -7   22.27    1.29
  -6   3  -7    2.78    0.61
  -7   3  -7   12.85    1.05
  -8   3  -7    2.74    0.65
  -9   3  -7   -0.04    0.57
 -10   3  -7    1.80    0.73
 -11   3  -7   -0.06    0.69
 -12   3  -7    0.41    0.76
  13   2  -7    2.08    0.97
  12   2  -7    1.68    0.93
 -12  -2   7    3.11    0.77
  11   2  -7    2.93    0.87
 -11  -2   7    2.21    0.69
  10   2  -7    3.63    0.84
 -10  -2   7    4.33    0.76
   9   2  -7    2.10    0.73
  -9  -2   7    1.38    0.59
   8   2  -7    0.05    0.57
  -8  -2   7    0.50    0.49
   7   2  -7   19.50    1.30
  -7  -2   7   21.22    1.19
   6   2  -7    4.62    0.68
  -6  -2   7    3.73    0.56
   5   2  -7   14.92    1.04
  -5  -2   7   16.02    0.97
   4   2  -7    3.88    0.57
  -4  -2   7    4.01    0.51
   3   2  -7   24.02    1.22
   3   2  -7   23.22    0.88
   2   2  -7    4.50    0.33
   2   2  -7    4.69    0.54
   1   2  -7   15.09    0.91
   1   2  -7   16.43    0.72
   0   2  -7    0.43    0.33
   0   2  -7    0.33    0.22
  -1   2  -7   49.42    1.82
  -1   2  -7   48.65    2.11
  -2   2  -7   23.82    1.21
  -2   2  -7   23.02    1.03
  -3   2  -7   28.15    1.37
  -3   2  -7   27.10    1.20
  -4   2  -7    1.06    0.42
  -4   2  -7    1.24    0.37
  -5   2  -7   41.72    1.72
  -5   2  -7   40.47    1.94
  -6   2  -7    1.98    0.47
  -6   2  -7    1.18    0.54
  -7   2  -7   18.12    1.21
  -8   2  -7    1.45    0.60
  -9   2  -7    7.52    0.90
 -10   2  -7   -0.02    0.62
 -11   2  -7    1.20    0.71
 -12   2  -7    0.76    0.78
  13   1  -7    2.67    1.04
  12   1  -7    0.09    0.80
  11   1  -7    4.66    0.94
 -11  -1   7    5.40    0.79
  10   1  -7    1.06    0.72
 -10  -1   7    1.05    0.57
   9   1  -7    4.20    0.81
  -9  -1   7    1.99    0.59
   8   1  -7    2.06    0.65
  -8  -1   7    1.26    0.52
   7   1  -7    2.53    0.66
  -7  -1   7    2.61    0.53
   6   1  -7    2.90    0.60
  -6  -1   7    2.72    0.51
   5   1  -7    6.13    0.71
  -5  -1   7    7.90    0.67
   4   1  -7   13.09    0.56
   4   1  -7   14.85    0.94
   3   1  -7   39.99    1.42
   3   1  -7   38.96    1.80
   2   1  -7    6.36    0.41
   2   1  -7    6.40    0.59
   1   1  -7    4.15    0.35
   1   1  -7    3.60    0.46
   0   1  -7   73.05    2.53
   0   1  -7   69.81    2.91
  -1   1  -7    1.54    0.31
  -1   1  -7    1.09    0.36
  -2   1  -7    3.90    0.48
  -2   1  -7    4.09    0.42
  -3   1  -7    0.21    0.30
  -3   1  -7   -0.19    0.32
  -4   1  -7    6.24    0.63
  -4   1  -7    5.60    0.55
  -5   1  -7    0.28    0.43
  -5   1  -7    0.58    0.40
  -6   1  -7   13.14    1.02
  -6   1  -7   14.58    0.99
  -7   1  -7    0.70    0.46
  -7   1  -7    0.19    0.50
  -8   1  -7    1.70    0.52
  -8   1  -7    1.83    0.58
  -9   1  -7    4.29    0.76
 -10   1  -7    1.66    0.68
 -11   1  -7    2.85    0.80
 -12   1  -7    0.06    0.71
  13   0  -7   -0.28    0.91
  12   0  -7    0.20    0.79
  11   0  -7    1.78    0.80
  10   0  -7   -0.18    0.64
 -10   0   7    1.02    0.53
   9   0  -7    2.59    0.72
  -9   0   7    2.29    0.57
   8   0  -7    2.96    0.70
  -8   0   7    2.55    0.52
   7   0  -7    3.08    0.69
  -7   0   7    4.28    0.55
   6   0  -7    6.03    0.74
  -6   0   7    3.15    0.52
   5   0  -7    2.48    0.54
   5   0  -7    1.61    0.24
   4   0  -7    6.97    0.45
   4   0  -7    8.34    0.72
   3   0  -7    0.23    0.21
   3   0  -7   -0.16    0.34
   2   0  -7   21.59    1.15
   2   0  -7   23.01    0.93
   1   0  -7    1.40    0.38
   1   0  -7    0.87    0.25
   0   0  -7   20.95    1.06
   0   0  -7   18.79    0.87
  -1   0  -7   10.10    0.71
  -1   0  -7    9.39    0.60
  -2   0  -7   36.74    1.65
  -2   0  -7   38.06    1.49
  -3   0  -7   17.64    0.97
  -3   0  -7   16.26    0.88
  -4   0  -7   10.71    0.78
  -4   0  -7   10.15    0.74
  -5   0  -7    8.35    0.69
  -5   0  -7    7.21    0.73
  -6   0  -7   16.41    0.99
  -6   0  -7   15.57    1.03
  -7   0  -7    8.21    0.86
  -7   0  -7    9.09    0.79
  -8   0  -7    6.19    0.74
  -8   0  -7    5.58    0.74
  -9   0  -7    0.35    0.54
  -9   0  -7    0.58    0.54
 -10   0  -7    4.38    0.75
 -10   0  -7    4.06    0.80
 -11   0  -7   -0.70    0.61
  13  -1  -7    0.28    0.91
  12  -1  -7    1.51    0.87
  11  -1  -7    1.09    0.77
  10  -1  -7    4.06    0.84
   9  -1  -7    3.02    0.77
  -9   1   7    2.65    0.56
   8  -1  -7    3.01    0.70
  -8   1   7    2.61    0.52
   7  -1  -7   12.30    1.04
  -7   1   7   12.20    0.87
   6  -1  -7    3.09    0.62
   6  -1  -7    3.54    0.35
  -6   1   7    2.49    0.47
   5  -1  -7   37.85    1.82
   5  -1  -7   38.30    1.43
   4  -1  -7   10.87    0.84
   4  -1  -7   12.03    0.63
   3  -1  -7   32.86    1.54
   3  -1  -7   32.37    1.26
   2  -1  -7    9.64    0.59
   2  -1  -7   10.07    0.72
   1  -1  -7   67.80    2.42
   1  -1  -7   66.95    2.76
   0  -1  -7    7.58    0.63
  -1  -1  -7   63.66    2.61
  -1  -1  -7   64.13    2.34
  -2  -1  -7    1.85    0.37
  -2  -1  -7    2.00    0.38
  -3  -1  -7   14.03    0.81
  -3  -1  -7   13.11    0.82
  -4  -1  -7    1.38    0.40
  -4  -1  -7    1.79    0.42
  -5  -1  -7    8.13    0.69
  -5  -1  -7    7.91    0.71
  -6  -1  -7    2.46    0.49
  -6  -1  -7    1.78    0.50
  -7  -1  -7    1.55    0.53
  -7  -1  -7    1.64    0.50
  -8  -1  -7    1.23    0.52
  -8  -1  -7    0.74    0.55
  -9  -1  -7    0.27    0.55
  -9  -1  -7    0.56    0.58
 -10  -1  -7   -0.29    0.58
 -11  -1  -7    0.60    0.66
  13  -2  -7    0.61    0.95
  12  -2  -7    1.08    0.83
  11  -2  -7    1.45    0.85
  10  -2  -7   -0.25    0.68
   9  -2  -7    3.59    0.84
   8  -2  -7    0.81    0.61
  -8   2   7    0.97    0.44
   7  -2  -7    5.89    0.79
  -7   2   7    4.97    0.59
   6  -2  -7    4.28    0.71
   6  -2  -7    4.51    0.46
   5  -2  -7    1.53    0.35
   5  -2  -7    1.03    0.51
   4  -2  -7   14.43    0.94
   4  -2  -7   12.72    0.71
   3  -2  -7   25.31    1.08
   3  -2  -7   24.61    1.28
   2  -2  -7    2.39    0.37
   2  -2  -7    3.64    0.51
   1  -2  -7  135.21    5.32
   1  -2  -7  140.30    4.75
   0  -2  -7    0.61    0.35
   0  -2  -7    1.59    0.35
  -1  -2  -7   61.33    2.51
  -1  -2  -7   62.10    2.31
  -2  -2  -7    3.18    0.43
  -2  -2  -7    3.62    0.47
  -3  -2  -7   37.16    1.53
  -3  -2  -7   34.88    1.59
  -4  -2  -7    3.22    0.52
  -4  -2  -7    3.89    0.49
  -5  -2  -7   15.77    1.03
  -5  -2  -7   17.87    1.01
  -6  -2  -7    0.56    0.44
  -6  -2  -7   -0.49    0.39
  -7  -2  -7    0.69    0.49
  -7  -2  -7    0.80    0.44
  -8  -2  -7    0.63    0.55
  -9  -2  -7   -0.37    0.56
 -10  -2  -7    0.26    0.60
 -11  -2  -7   -1.01    0.64
  12  -3  -7    0.68    0.89
  11  -3  -7    1.89    0.85
  10  -3  -7    3.51    0.84
   9  -3  -7    6.16    0.94
   8  -3  -7    3.92    0.76
   7  -3  -7    5.40    0.77
   7  -3  -7    4.00    0.50
  -7   3   7    3.82    0.54
   6  -3  -7    9.29    0.71
   6  -3  -7    9.20    0.90
   5  -3  -7    3.44    0.47
   5  -3  -7    3.31    0.63
   4  -3  -7    6.79    0.57
   4  -3  -7    5.27    0.68
   3  -3  -7    5.21    0.62
   3  -3  -7    5.37    0.53
   2  -3  -7    5.67    0.61
   2  -3  -7    5.11    0.53
   1  -3  -7    1.00    0.39
   1  -3  -7    1.19    0.38
   0  -3  -7    2.40    0.42
   0  -3  -7    2.46    0.42
  -1  -3  -7    0.50    0.31
  -1  -3  -7    0.37    0.36
  -2  -3  -7    7.00    0.63
  -2  -3  -7    7.09    0.56
  -3  -3  -7    7.16    0.67
  -3  -3  -7    8.90    0.62
  -4  -3  -7    7.83    0.65
  -4  -3  -7    8.21    0.71
  -5  -3  -7    7.69    0.75
  -6  -3  -7    5.12    0.67
  -7  -3  -7    5.10    0.71
  -8  -3  -7    6.20    0.79
  -9  -3  -7    2.35    0.67
 -10  -3  -7    0.68    0.65
 -11  -3  -7   -0.17    0.68
  12  -4  -7    1.70    0.97
  11  -4  -7    1.99    0.91
  10  -4  -7    0.23    0.72
   9  -4  -7    4.43    0.89
   8  -4  -7    1.25    0.67
   7  -4  -7    4.37    0.75
   7  -4  -7    4.26    0.57
   6  -4  -7    2.17    0.48
   6  -4  -7    2.93    0.65
   5  -4  -7   18.20    1.18
   5  -4  -7   16.45    0.97
   4  -4  -7    3.54    0.61
   4  -4  -7    3.47    0.53
   3  -4  -7   10.13    0.85
   3  -4  -7   10.52    0.75
   2  -4  -7    4.82    0.57
   2  -4  -7    3.00    0.53
   1  -4  -7   10.50    0.77
   1  -4  -7   12.03    0.79
   0  -4  -7   24.39    1.20
   0  -4  -7   25.70    1.21
  -1  -4  -7    1.19    0.43
  -1  -4  -7    0.57    0.31
  -2  -4  -7    0.62    0.44
  -2  -4  -7    0.42    0.29
  -3  -4  -7    3.78    0.57
  -4  -4  -7    6.44    0.69
  -5  -4  -7    2.70    0.56
  -6  -4  -7    2.37    0.58
  -7  -4  -7    0.28    0.56
  -8  -4  -7    0.90    0.57
  -9  -4  -7    0.95    0.67
 -10  -4  -7    0.76    0.70
  12  -5  -7    1.40    0.99
  11  -5  -7    0.80    0.88
  10  -5  -7    0.79    0.76
   9  -5  -7    1.32    0.78
   8  -5  -7    5.46    0.87
   7  -5  -7    4.60    0.62
   7  -5  -7    4.83    0.79
   6  -5  -7    9.35    0.79
   6  -5  -7    9.48    0.92
   5  -5  -7   21.73    1.12
   5  -5  -7   20.50    1.28
   4  -5  -7   10.17    0.86
   4  -5  -7    8.72    0.76
   3  -5  -7   18.74    1.04
   3  -5  -7   17.44    1.09
   2  -5  -7    2.17    0.51
   2  -5  -7    1.46    0.48
   1  -5  -7   32.71    1.51
   1  -5  -7   34.24    1.54
   0  -5  -7    1.31    0.49
  -1  -5  -7   29.10    1.39
  -2  -5  -7    1.14    0.47
  -3  -5  -7   34.93    1.61
  -4  -5  -7    0.86    0.50
  -5  -5  -7   13.85    1.04
  -6  -5  -7    3.88    0.70
  -7  -5  -7    4.38    0.72
  -8  -5  -7   -0.22    0.55
  -9  -5  -7    0.93    0.70
 -10  -5  -7    0.82    0.72
  11  -6  -7    0.28    0.88
  10  -6  -7    1.76    0.82
   9  -6  -7    2.02    0.79
   8  -6  -7    5.11    0.89
   8  -6  -7    3.84    0.69
   7  -6  -7    3.67    0.77
   7  -6  -7    4.02    0.66
   6  -6  -7    6.57    0.73
   5  -6  -7    5.39    0.74
   5  -6  -7    3.55    0.63
   4  -6  -7    0.05    0.46
   4  -6  -7    0.14    0.47
   3  -6  -7    3.25    0.59
   3  -6  -7    2.40    0.58
   2  -6  -7    8.56    0.79
   1  -6  -7    2.18    0.57
   0  -6  -7    0.38    0.47
  -1  -6  -7    1.45    0.52
  -2  -6  -7    0.53    0.49
  -3  -6  -7   10.22    0.91
  -4  -6  -7    0.86    0.55
  -5  -6  -7    9.24    0.91
  -6  -6  -7   -0.59    0.53
  -7  -6  -7    2.76    0.71
  -8  -6  -7    0.70    0.66
  -9  -6  -7    1.19    0.72
  10  -7  -7    0.83    0.83
   9  -7  -7    0.92    0.82
   8  -7  -7    4.09    0.74
   8  -7  -7    3.59    0.86
   7  -7  -7    1.44    0.61
   7  -7  -7    1.65    0.70
   6  -7  -7    1.08    0.58
   6  -7  -7   -0.39    0.56
   5  -7  -7    5.04    0.73
   5  -7  -7    4.72    0.70
   4  -7  -7    1.89    0.57
   3  -7  -7    5.21    0.71
   2  -7  -7    4.07    0.67
   1  -7  -7    1.31    0.55
   0  -7  -7    2.70    0.62
  -1  -7  -7    4.00    0.70
  -2  -7  -7    0.23    0.54
  -3  -7  -7    6.92    0.85
  -4  -7  -7    0.52    0.59
  -5  -7  -7   -0.45    0.57
  -6  -7  -7    0.24    0.65
  -7  -7  -7    0.40    0.69
  -8  -7  -7    1.70    0.71
  10  -8  -7    0.97    0.88
   9  -8  -7   -0.09    0.77
   8  -8  -7    1.12    0.69
   8  -8  -7    2.91    0.82
   7  -8  -7    1.30    0.67
   6  -8  -7    2.10    0.65
   5  -8  -7    0.88    0.59
   4  -8  -7    2.05    0.62
   3  -8  -7    0.89    0.60
   2  -8  -7    3.11    0.67
   1  -8  -7    2.44    0.64
   0  -8  -7    0.46    0.57
  -1  -8  -7    4.66    0.78
  -2  -8  -7    0.84    0.60
  -3  -8  -7    1.51    0.66
  -4  -8  -7    1.13    0.63
  -5  -8  -7   -0.16    0.66
  -6  -8  -7    1.45    0.72
  -7  -8  -7    0.56    0.74
   8  -9  -7    1.00    0.74
   7  -9  -7    1.93    0.76
   6  -9  -7    1.03    0.66
   5  -9  -7    1.25    0.67
   4  -9  -7    0.60    0.64
   3  -9  -7    2.54    0.70
   2  -9  -7    0.34    0.60
   1  -9  -7    3.68    0.77
   0  -9  -7   -0.43    0.58
  -1  -9  -7    2.11    0.72
  -2  -9  -7    1.17    0.66
  -3  -9  -7    2.00    0.73
  -4  -9  -7    1.27    0.72
  -5  -9  -7    1.24    0.79
  -6  -9  -7    0.84    0.74
   7 -10  -7   -0.30    0.73
   6 -10  -7    0.80    0.75
   5 -10  -7    0.35    0.71
   4 -10  -7    0.54    0.68
   3 -10  -7    1.71    0.72
   2 -10  -7   -0.19    0.65
   1 -10  -7    6.26    0.91
   0 -10  -7   -0.18    0.66
  -1 -10  -7    4.80    0.94
  -2 -10  -7    1.13    0.73
  -3 -10  -7    2.74    0.84
  -4 -10  -7    2.53    0.85
   4 -11  -7   -0.10    0.72
   3 -11  -7    0.58    0.71
   2 -11  -7    0.12    0.70
   1 -11  -7    0.09    0.72
   0 -11  -7    0.49    0.74
  -1 -11  -7   -0.33    0.72
  -1 -14   8    3.17    0.90
   0 -14   8    2.49    0.89
   1 -14   8    8.42    1.16
   2 -14   8    1.33    0.84
   3 -14   8    6.62    1.07
  -5 -13   8    2.73    0.91
  -4 -13   8    1.75    0.85
  -3 -13   8    0.71    0.73
  -2 -13   8    1.21    0.72
  -1 -13   8    4.11    0.86
   0 -13   8    0.08    0.70
   1 -13   8    8.19    1.06
   2 -13   8    2.03    0.84
   3 -13   8    5.80    0.99
   4 -13   8    1.19    0.83
   5 -13   8    1.10    0.86
  -6  13  -8    2.08    0.84
   6 -13   8    1.20    0.88
  -6 -12   8    1.42    0.82
  -5 -12   8    1.08    0.75
  -4 -12   8    4.78    0.91
  -3 -12   8   -0.34    0.61
  -2 -12   8    7.76    0.97
  -2 -12   8    8.11    0.91
  -1 -12   8   -0.17    0.63
  -1 -12   8   -0.73    0.60
   0 -12   8    6.80    0.88
   1 -12   8   -0.35    0.66
   2 -12   8    4.29    0.84
  -3  12  -8    2.62    0.72
   3 -12   8    1.73    0.76
  -4  12  -8    0.35    0.67
   4 -12   8    1.34    0.82
  -5  12  -8    0.80    0.69
   5 -12   8    1.30    0.86
  -6  12  -8    2.97    0.86
   6 -12   8    2.26    0.86
  -7  12  -8    1.58    0.84
   7 -12   8    1.18    0.83
  -8 -11   8    0.59    0.81
  -7 -11   8    0.71    0.76
  -6 -11   8    2.26    0.83
  -5 -11   8   -0.62    0.63
  -4 -11   8    1.92    0.72
  -3 -11   8    0.73    0.61
  -2 -11   8    2.88    0.65
  -2 -11   8    2.21    0.65
  -1 -11   8   -0.40    0.56
  -1 -11   8    0.40    0.58
   0  11  -8    1.71    0.59
   0 -11   8    1.21    0.62
   0 -11   8    1.09    0.58
  -1  11  -8    3.09    0.71
   1 -11   8    4.20    0.79
  -2  11  -8    3.70    0.73
   2 -11   8    3.87    0.78
  -3  11  -8    3.23    0.71
   3 -11   8    1.75    0.69
  -4  11  -8    3.63    0.78
   4 -11   8    4.45    0.85
  -5  11  -8    2.95    0.81
   5 -11   8    4.09    0.86
  -6  11  -8    2.75    0.80
   6 -11   8    2.44    0.80
  -7  11  -8    1.47    0.79
   7 -11   8    1.52    0.88
  -8  11  -8    2.06    0.87
   8 -11   8    1.63    0.86
   9 -11   8    1.26    0.88
  -9 -10   8    0.61    0.81
  -8 -10   8   -0.03    0.76
  -7 -10   8    1.25    0.81
  -6 -10   8   -0.45    0.64
  -5 -10   8    4.70    0.83
  -4 -10   8   -0.48    0.58
  -3 -10   8   15.85    1.19
   2  10  -8    0.41    0.55
  -2 -10   8    0.33    0.52
  -2 -10   8    0.96    0.57
   1  10  -8   21.65    1.32
  -1 -10   8   22.53    1.25
  -1 -10   8   21.37    1.30
   0  10  -8    2.70    0.64
   0 -10   8    4.22    0.70
   0 -10   8    3.25    0.61
  -1  10  -8   27.03    1.56
   1 -10   8   29.85    1.50
   1 -10   8   30.49    1.49
  -2  10  -8    0.44    0.57
   2 -10   8    1.32    0.66
  -3  10  -8   23.09    1.45
   3 -10   8   24.02    1.38
  -4  10  -8    1.08    0.62
   4 -10   8    0.64    0.62
  -5  10  -8   10.18    1.08
   5 -10   8   11.21    1.09
  -6  10  -8    1.88    0.72
   6 -10   8    2.02    0.73
  -7  10  -8    3.22    0.84
   7 -10   8    3.37    0.84
  -8  10  -8    4.31    1.00
   8 -10   8    4.76    0.93
  -9  10  -8   -0.65    0.77
   9 -10   8    2.88    0.88
 -10  -9   8    1.13    0.83
  -9  -9   8    0.39    0.77
  -8  -9   8    0.59    0.74
  -7  -9   8    2.22    0.74
  -6  -9   8    1.57    0.68
  -5  -9   8    4.91    0.79
   4   9  -8    0.27    0.55
  -4  -9   8   -0.11    0.59
   3   9  -8   19.35    1.23
  -3  -9   8   20.87    1.30
  -3  -9   8   18.33    1.08
   2   9  -8    0.53    0.51
  -2  -9   8    0.56    0.54
  -2  -9   8    0.78    0.46
   1   9  -8   22.19    1.32
  -1  -9   8   22.74    1.20
  -1  -9   8   19.59    1.24
   0   9  -8    3.89    0.66
   0  -9   8    4.18    0.65
   0  -9   8    3.71    0.60
  -1   9  -8   32.39    1.70
   1  -9   8   31.18    1.53
   1  -9   8   34.21    1.58
  -2   9  -8    1.10    0.53
   2  -9   8    1.83    0.57
   2  -9   8    1.19    0.45
  -3   9  -8   12.84    1.02
   3  -9   8   11.50    0.98
  -4   9  -8    6.20    0.84
   4  -9   8    6.22    0.79
  -5   9  -8    5.53    0.82
   5  -9   8    3.31    0.72
  -6   9  -8    9.28    1.06
   6  -9   8    8.97    0.95
  -7   9  -8    0.74    0.71
   7  -9   8    1.29    0.68
  -8   9  -8    1.67    0.85
   8  -9   8    2.10    0.76
  -9   9  -8    1.68    0.89
   9  -9   8    2.08    0.80
 -10   9  -8    0.62    0.86
  10  -9   8    1.56    0.83
 -10  -8   8    2.87    0.94
  -9  -8   8    1.06    0.81
  -8  -8   8    4.67    0.91
   7   8  -8    0.64    0.66
  -7  -8   8    0.25    0.63
   6   8  -8   10.63    1.02
  -6  -8   8   10.12    1.04
   5   8  -8    2.77    0.67
  -5  -8   8    4.00    0.77
   4   8  -8    7.39    0.81
  -4  -8   8    7.64    0.85
   3   8  -8    3.13    0.61
  -3  -8   8    2.53    0.60
  -3  -8   8    2.86    0.48
   2   8  -8   16.42    1.10
  -2  -8   8   14.34    0.92
  -2  -8   8   15.04    1.03
   1   8  -8    2.37    0.57
  -1  -8   8    2.44    0.52
  -1  -8   8    1.22    0.50
   0   8  -8   18.30    1.15
   0  -8   8   16.33    1.04
   0  -8   8   17.80    1.02
  -1   8  -8    3.13    0.63
   1  -8   8    2.10    0.47
   1  -8   8    1.72    0.54
   2  -8   8    5.13    0.56
   2  -8   8    4.13    0.64
  -3   8  -8    0.09    0.52
   3  -8   8    0.88    0.37
   3  -8   8    0.24    0.48
  -4   8  -8    5.81    0.81
   4  -8   8    7.27    0.77
  -5   8  -8    3.70    0.74
   5  -8   8    4.02    0.69
  -6   8  -8    4.63    0.82
   6  -8   8    6.85    0.82
  -7   8  -8    2.86    0.77
   7  -8   8    4.68    0.78
  -8   8  -8    0.83    0.72
   8  -8   8    1.75    0.69
  -9   8  -8    1.51    0.86
   9  -8   8    1.80    0.71
 -10   8  -8    0.59    0.86
  10  -8   8    0.05    0.73
 -11   8  -8   -0.21    0.82
  11  -8   8    0.34    0.75
 -11  -7   8   -0.03    0.83
 -10  -7   8   -0.28    0.77
   9   7  -8   -0.43    0.73
  -9  -7   8    0.85    0.71
   8   7  -8    1.08    0.72
  -8  -7   8    1.42    0.68
   7   7  -8    4.06    0.80
  -7  -7   8    4.07    0.78
   6   7  -8    2.57    0.67
  -6  -7   8    0.71    0.58
   5   7  -8    2.85    0.66
  -5  -7   8    3.91    0.70
   4   7  -8   12.89    1.00
  -4  -7   8    8.86    0.89
   3   7  -8    5.98    0.73
  -3  -7   8    6.81    0.74
  -3  -7   8    6.09    0.56
   2   7  -8    3.70    0.60
  -2  -7   8    1.20    0.47
  -2  -7   8    0.57    0.41
   1   7  -8    2.38    0.56
  -1  -7   8    2.52    0.53
  -1  -7   8    3.40    0.51
   0   7  -8   12.93    1.02
   0  -7   8   13.50    0.88
   0  -7   8   11.28    0.85
  -1   7  -8    1.01    0.52
   1  -7   8    1.15    0.44
   1  -7   8    0.20    0.39
  -2   7  -8   11.55    0.99
   2  -7   8   13.67    0.89
   2  -7   8   11.47    0.83
  -3   7  -8    1.10    0.53
   3  -7   8    1.69    0.43
  -4   7  -8   22.74    1.39
  -5   7  -8    1.00    0.57
  -6   7  -8    6.89    0.91
  -7   7  -8    6.28    0.91
  -8   7  -8    1.40    0.68
  -9   7  -8    4.36    0.96
 -10   7  -8    0.78    0.81
 -11   7  -8    2.75    0.96
  11  -7   8    1.25    0.75
  11   6  -8   -0.01    0.89
 -11  -6   8    1.10    0.80
  10   6  -8    0.68    0.84
 -10  -6   8    0.28    0.70
   9   6  -8   -0.66    0.71
  -9  -6   8    0.12    0.68
   8   6  -8   -0.11    0.64
  -8  -6   8    1.78    0.69
   7   6  -8    3.10    0.75
  -7  -6   8    3.20    0.69
   6   6  -8    0.42    0.55
  -6  -6   8    0.47    0.53
   5   6  -8    4.26    0.72
  -5  -6   8    4.88    0.70
   4   6  -8    2.28    0.61
  -4  -6   8    2.43    0.56
   3   6  -8   13.66    1.01
  -3  -6   8   16.17    0.79
  -3  -6   8   15.14    1.01
   2   6  -8    3.56    0.61
  -2  -6   8    4.39    0.47
  -2  -6   8    4.27    0.58
   1   6  -8   61.94    2.69
  -1  -6   8   62.84    2.32
  -1  -6   8   62.04    2.55
   0   6  -8    8.31    0.80
   0  -6   8    9.01    0.71
  -1   6  -8   98.68    4.05
   1  -6   8   98.99    3.79
  -2   6  -8    4.78    0.67
   2  -6   8    5.79    0.56
  -3   6  -8    2.62    0.60
  -4   6  -8   18.73    1.22
  -5   6  -8    4.66    0.75
  -6   6  -8    9.36    0.99
  -7   6  -8    2.81    0.72
  -8   6  -8   -0.76    0.58
  -9   6  -8    1.81    0.76
 -10   6  -8    0.70    0.76
 -11   6  -8    0.07    0.81
  12   5  -8    1.27    0.94
 -12  -5   8   -0.14    0.73
  11   5  -8    0.14    0.84
 -11  -5   8    0.98    0.73
  10   5  -8    0.13    0.77
 -10  -5   8    0.60    0.68
   9   5  -8    1.28    0.73
  -9  -5   8    2.10    0.72
   8   5  -8    1.46    0.75
  -8  -5   8    2.11    0.65
   7   5  -8    8.83    0.97
  -7  -5   8    6.61    0.86
   6   5  -8    8.39    0.92
  -6  -5   8    8.32    0.86
   5   5  -8   18.55    1.19
  -5  -5   8   17.06    1.13
   4   5  -8   25.74    1.42
  -4  -5   8   26.20    1.38
   3   5  -8   33.14    1.62
  -3  -5   8   31.65    1.24
  -3  -5   8   31.52    1.53
   2   5  -8   25.22    1.32
  -2  -5   8   24.30    1.25
  -2  -5   8   23.54    1.04
   1   5  -8   68.50    2.87
  -1  -5   8   67.08    2.72
   0   5  -8   19.05    1.13
   0  -5   8   18.06    0.99
  -1   5  -8   85.77    3.55
  -2   5  -8   53.16    2.40
  -3   5  -8   17.34    1.15
  -4   5  -8   47.44    2.22
  -5   5  -8    2.20    0.62
  -6   5  -8    6.80    0.84
  -7   5  -8    1.53    0.66
  -8   5  -8    5.56    0.90
  -9   5  -8    0.91    0.72
 -10   5  -8   -0.28    0.71
 -11   5  -8    0.24    0.75
 -12   5  -8    0.52    0.89
  12   4  -8    1.44    0.91
 -12  -4   8    1.29    0.82
  11   4  -8    0.70    0.82
 -11  -4   8   -0.07    0.64
  10   4  -8    6.28    1.00
 -10  -4   8    5.56    0.90
   9   4  -8    0.23    0.70
  -9  -4   8    0.83    0.64
   8   4  -8    7.39    0.93
  -8  -4   8    6.25    0.84
   7   4  -8    7.31    0.92
  -7  -4   8    9.39    0.90
   6   4  -8   14.87    1.16
  -6  -4   8    9.44    0.89
   5   4  -8   11.25    1.00
  -5  -4   8   12.10    0.91
   4   4  -8   16.99    1.05
  -4  -4   8   14.22    0.97
  -4  -4   8   13.89    0.62
   3   4  -8    5.33    0.67
  -3  -4   8    5.63    0.62
   2   4  -8   15.40    1.00
  -2  -4   8   16.59    0.95
   1   4  -8    2.16    0.47
   0   4  -8   53.06    2.33
  -1   4  -8    2.25    0.50
  -2   4  -8   38.54    1.85
  -3   4  -8    1.88    0.51
  -4   4  -8   32.77    1.67
  -5   4  -8    3.52    0.66
  -6   4  -8   17.52    1.21
  -7   4  -8    0.89    0.59
  -8   4  -8    5.10    0.88
  -9   4  -8    0.62    0.67
 -10   4  -8    1.44    0.74
 -11   4  -8    2.32    0.83
 -12   4  -8    1.47    0.89
  12   3  -8    1.47    0.94
 -12  -3   8    1.69    0.77
  11   3  -8    1.02    0.86
 -11  -3   8    0.84    0.69
  10   3  -8    2.15    0.80
 -10  -3   8    1.56    0.67
   9   3  -8    1.84    0.74
  -9  -3   8    2.03    0.63
   8   3  -8    4.28    0.79
  -8  -3   8    4.32    0.71
   7   3  -8    6.83    0.87
  -7  -3   8    4.52    0.67
   6   3  -8   14.88    1.14
  -6  -3   8   10.55    0.91
   5   3  -8    2.17    0.61
  -5  -3   8    2.51    0.54
   4   3  -8    2.91    0.58
  -4  -3   8    1.67    0.47
   3   3  -8   15.95    0.99
  -3  -3   8   13.52    0.89
   2   3  -8    5.54    0.63
   1   3  -8    3.90    0.54
   0   3  -8    5.50    0.61
   0   3  -8    5.84    0.45
  -1   3  -8    0.31    0.38
  -1   3  -8   -0.10    0.25
  -2   3  -8    5.53    0.50
  -2   3  -8    5.87    0.66
  -3   3  -8    2.75    0.43
  -3   3  -8    3.36    0.55
  -4   3  -8   17.46    1.12
  -4   3  -8   18.13    0.97
  -5   3  -8    2.35    0.59
  -6   3  -8    5.24    0.74
  -7   3  -8    3.37    0.70
  -8   3  -8    0.64    0.61
  -9   3  -8    0.66    0.63
 -10   3  -8    1.08    0.70
 -11   3  -8    0.86    0.77
 -12   3  -8    0.69    0.82
  13   2  -8    1.20    1.00
  12   2  -8    1.82    0.96
 -12  -2   8    0.41    0.67
  11   2  -8    3.19    0.92
 -11  -2   8    3.99    0.79
  10   2  -8    5.43    0.97
 -10  -2   8    3.52    0.74
   9   2  -8    1.26    0.73
  -9  -2   8    1.07    0.55
   8   2  -8    1.53    0.66
  -8  -2   8    1.09    0.52
   7   2  -8    4.61    0.77
  -7  -2   8    3.48    0.61
   6   2  -8    0.17    0.55
  -6  -2   8    0.02    0.46
   5   2  -8   15.10    1.04
  -5  -2   8   12.29    0.91
   4   2  -8    3.29    0.60
  -4  -2   8    4.95    0.58
   3   2  -8   40.64    1.86
   3   2  -8   39.82    1.45
   2   2  -8    1.45    0.26
   2   2  -8    0.92    0.43
   1   2  -8  178.76    6.01
   1   2  -8  177.97    6.88
   0   2  -8    1.73    0.30
   0   2  -8   -0.03    0.39
  -1   2  -8   89.23    3.17
  -1   2  -8   89.48    3.64
  -2   2  -8    8.03    0.60
  -2   2  -8    7.61    0.70
  -3   2  -8   34.31    1.71
  -3   2  -8   36.30    1.49
  -4   2  -8    4.11    0.62
  -4   2  -8    4.75    0.56
  -5   2  -8   20.31    1.10
  -5   2  -8   19.79    1.25
  -6   2  -8    5.94    0.76
  -6   2  -8    5.10    0.63
  -7   2  -8    9.93    0.96
  -7   2  -8    9.60    0.84
  -8   2  -8    3.82    0.75
  -9   2  -8    2.52    0.71
 -10   2  -8    0.68    0.66
 -11   2  -8    2.03    0.80
 -12   2  -8    0.50    0.78
  13   1  -8    0.49    0.92
  12   1  -8   -0.55    0.81
  11   1  -8    2.76    0.92
 -11  -1   8    2.07    0.73
  10   1  -8    0.80    0.74
 -10  -1   8    0.17    0.56
   9   1  -8    4.99    0.88
  -9  -1   8    4.92    0.71
   8   1  -8   -0.56    0.56
  -8  -1   8    0.37    0.47
   7   1  -8   15.70    1.20
  -7  -1   8   17.05    1.04
   6   1  -8    0.79    0.57
  -6  -1   8    1.62    0.50
   5   1  -8   15.65    1.13
  -5  -1   8   17.84    1.01
   4   1  -8    2.61    0.27
   4   1  -8    1.52    0.53
   3   1  -8   17.01    0.74
   3   1  -8   16.72    1.04
   2   1  -8   10.49    0.82
   2   1  -8   12.40    0.62
   1   1  -8   32.65    1.56
   1   1  -8   33.23    1.28
   0   1  -8    8.75    0.55
   0   1  -8    7.35    0.67
  -1   1  -8   22.14    1.04
  -1   1  -8   24.80    1.23
  -2   1  -8    6.28    0.63
  -2   1  -8    5.75    0.54
  -3   1  -8   18.96    0.98
  -3   1  -8   19.36    1.13
  -4   1  -8   24.57    1.34
  -4   1  -8   24.95    1.20
  -5   1  -8    2.58    0.52
  -5   1  -8    2.17    0.52
  -6   1  -8   47.91    1.97
  -6   1  -8   45.24    2.17
  -7   1  -8    2.64    0.64
  -7   1  -8    1.59    0.53
  -8   1  -8    3.87    0.69
  -8   1  -8    4.07    0.71
  -9   1  -8    0.75    0.57
  -9   1  -8    1.06    0.60
 -10   1  -8    0.80    0.66
 -11   1  -8    0.99    0.70
 -12   1  -8    0.27    0.73
  13   0  -8   -0.85    0.91
  12   0  -8    1.68    0.89
  11   0  -8    0.71    0.77
  10   0  -8    2.69    0.81
 -10   0   8    0.92    0.61
   9   0  -8    1.02    0.70
  -9   0   8    2.25    0.57
   8   0  -8    2.64    0.73
  -8   0   8    3.89    0.61
   7   0  -8    9.67    0.97
  -7   0   8    9.88    0.84
   6   0  -8    7.72    0.85
  -6   0   8    6.14    0.68
   5   0  -8    3.92    0.65
   5   0  -8    4.04    0.34
   4   0  -8   10.34    0.89
   4   0  -8   12.27    0.61
   3   0  -8    2.04    0.51
   3   0  -8    1.58    0.28
   2   0  -8   24.37    1.27
   2   0  -8   24.79    1.04
   1   0  -8    4.35    0.41
   1   0  -8    4.40    0.55
   0   0  -8   20.73    1.13
   0   0  -8   21.78    0.99
  -1   0  -8    8.65    0.62
  -1   0  -8    9.32    0.75
  -2   0  -8   21.68    1.16
  -2   0  -8   20.93    1.03
  -3   0  -8    0.68    0.37
  -3   0  -8    1.35    0.40
  -4   0  -8   15.30    1.00
  -4   0  -8   17.75    0.97
  -5   0  -8    2.21    0.54
  -5   0  -8    2.60    0.51
  -6   0  -8    9.42    0.82
  -6   0  -8    9.56    0.86
  -7   0  -8    5.07    0.69
  -7   0  -8    6.50    0.79
  -8   0  -8    4.52    0.73
  -8   0  -8    5.59    0.75
  -9   0  -8    2.13    0.68
  -9   0  -8    4.21    0.75
 -10   0  -8    1.41    0.64
 -10   0  -8    1.55    0.68
  13  -1  -8   -0.12    0.85
  12  -1  -8    0.66    0.89
  11  -1  -8    0.26    0.75
  10  -1  -8    1.66    0.75
   9  -1  -8    1.56    0.72
  -9   1   8    1.58    0.53
   8  -1  -8    1.75    0.67
  -8   1   8    0.30    0.46
   7  -1  -8    1.66    0.65
  -7   1   8    1.85    0.51
   6  -1  -8    1.17    0.58
   5  -1  -8    5.43    0.74
   5  -1  -8    5.43    0.45
   4  -1  -8    3.02    0.62
   4  -1  -8    3.92    0.40
   3  -1  -8    2.07    0.52
   3  -1  -8    1.77    0.35
   2  -1  -8    0.78    0.42
   2  -1  -8    1.06    0.31
   1  -1  -8    0.34    0.32
   1  -1  -8    0.59    0.39
   0  -1  -8    0.06    0.36
   0  -1  -8    0.01    0.29
  -1  -1  -8   10.22    0.69
  -1  -1  -8    9.94    0.75
  -2  -1  -8   -0.29    0.34
  -2  -1  -8    0.55    0.36
  -3  -1  -8   11.21    0.79
  -3  -1  -8   12.77    0.83
  -4  -1  -8    3.32    0.53
  -4  -1  -8    2.69    0.48
  -5  -1  -8    5.11    0.62
  -5  -1  -8    5.06    0.64
  -6  -1  -8    2.30    0.54
  -6  -1  -8    2.08    0.57
  -7  -1  -8    2.72    0.61
  -7  -1  -8    2.08    0.55
  -8  -1  -8    2.51    0.61
  -8  -1  -8    1.51    0.58
  -9  -1  -8    0.14    0.57
 -10  -1  -8   -0.24    0.59
 -11  -1  -8    1.44    0.70
  12  -2  -8   -0.01    0.88
  11  -2  -8    0.03    0.75
  10  -2  -8    0.09    0.69
   9  -2  -8    5.43    0.89
   8  -2  -8    1.16    0.65
  -8   2   8    1.07    0.49
   7  -2  -8    8.84    0.97
  -7   2   8   11.50    0.84
   6  -2  -8    5.94    0.82
   6  -2  -8    7.22    0.54
   5  -2  -8   21.77    1.02
   5  -2  -8   22.78    1.32
   4  -2  -8    1.17    0.38
   4  -2  -8    1.18    0.52
   3  -2  -8   36.51    1.74
   3  -2  -8   35.00    1.44
   2  -2  -8    1.50    0.39
   2  -2  -8    2.73    0.52
   1  -2  -8   16.49    1.01
   1  -2  -8   16.57    0.88
   0  -2  -8   19.03    0.95
   0  -2  -8   17.21    1.01
  -1  -2  -8    8.26    0.69
  -1  -2  -8    8.71    0.68
  -2  -2  -8   11.09    0.77
  -2  -2  -8   12.56    0.81
  -3  -2  -8    5.38    0.59
  -3  -2  -8    4.92    0.54
  -4  -2  -8    4.51    0.59
  -4  -2  -8    4.98    0.57
  -5  -2  -8    5.31    0.61
  -5  -2  -8    5.52    0.65
  -6  -2  -8    4.99    0.66
  -6  -2  -8    5.35    0.68
  -7  -2  -8    3.80    0.65
  -8  -2  -8    1.16    0.57
  -9  -2  -8    1.89    0.70
 -10  -2  -8    2.69    0.76
 -11  -2  -8   -0.49    0.72
  12  -3  -8    0.59    0.86
  11  -3  -8    1.04    0.85
  10  -3  -8   -0.22    0.73
   9  -3  -8    3.14    0.81
   8  -3  -8    1.99    0.69
   7  -3  -8    3.48    0.75
   6  -3  -8    3.65    0.69
   6  -3  -8    3.69    0.50
   5  -3  -8   13.43    1.06
   5  -3  -8   12.48    0.82
   4  -3  -8    2.30    0.59
   4  -3  -8    1.34    0.43
   3  -3  -8   10.14    0.74
   3  -3  -8    8.78    0.83
   2  -3  -8   32.54    1.41
   2  -3  -8   31.42    1.56
   1  -3  -8   31.52    1.40
   1  -3  -8   31.58    1.54
   0  -3  -8   46.82    1.90
   0  -3  -8   47.39    2.05
  -1  -3  -8   12.08    0.81
  -1  -3  -8   12.99    0.85
  -2  -3  -8   40.89    1.78
  -2  -3  -8   39.73    1.71
  -3  -3  -8    0.42    0.43
  -3  -3  -8    0.58    0.37
  -4  -3  -8   24.84    1.27
  -5  -3  -8    1.74    0.54
  -6  -3  -8    9.83    0.87
  -7  -3  -8    0.91    0.54
  -8  -3  -8    1.91    0.63
  -9  -3  -8    1.41    0.67
 -10  -3  -8    0.81    0.69
  12  -4  -8    1.10    0.94
  11  -4  -8    0.40    0.80
  10  -4  -8    0.28    0.74
   9  -4  -8    2.50    0.80
   8  -4  -8    0.73    0.65
   7  -4  -8    0.97    0.47
   7  -4  -8    1.82    0.65
   6  -4  -8    0.94    0.44
   6  -4  -8    1.92    0.61
   5  -4  -8    0.25    0.55
   5  -4  -8    0.82    0.44
   4  -4  -8    2.53    0.60
   4  -4  -8    3.06    0.50
   3  -4  -8    7.19    0.68
   3  -4  -8    7.02    0.75
   2  -4  -8   19.65    1.08
   2  -4  -8   21.39    1.18
   1  -4  -8   58.46    2.46
   1  -4  -8   57.23    2.27
   0  -4  -8    6.72    0.63
   0  -4  -8    6.22    0.65
  -1  -4  -8    8.50    0.69
  -1  -4  -8    9.76    0.79
  -2  -4  -8    5.75    0.66
  -3  -4  -8    1.74    0.52
  -4  -4  -8    1.55    0.52
  -5  -4  -8   -0.57    0.46
  -6  -4  -8   -0.12    0.51
  -7  -4  -8   -0.49    0.52
  -8  -4  -8    1.74    0.69
  -9  -4  -8    0.77    0.68
 -10  -4  -8    1.18    0.74
  11  -5  -8   -0.43    0.79
  10  -5  -8    4.22    0.98
   9  -5  -8    1.74    0.81
   8  -5  -8    4.02    0.84
   7  -5  -8    3.82    0.79
   7  -5  -8    3.83    0.62
   6  -5  -8    5.13    0.80
   6  -5  -8    5.97    0.68
   5  -5  -8    8.20    0.77
   5  -5  -8    8.31    0.88
   4  -5  -8    7.60    0.74
   4  -5  -8    8.46    0.85
   3  -5  -8   13.80    0.93
   3  -5  -8   15.39    1.03
   2  -5  -8    8.91    0.78
   2  -5  -8    8.84    0.77
   1  -5  -8    4.06    0.63
   1  -5  -8    4.70    0.58
   0  -5  -8    0.44    0.48
  -1  -5  -8    5.78    0.68
  -2  -5  -8    0.19    0.47
  -3  -5  -8    2.41    0.57
  -4  -5  -8   -0.08    0.50
  -5  -5  -8    0.29    0.53
  -6  -5  -8    3.13    0.68
  -7  -5  -8    0.85    0.65
  -8  -5  -8    1.93    0.73
  -9  -5  -8    0.72    0.73
  11  -6  -8    0.04    0.81
  10  -6  -8    2.69    0.92
   9  -6  -8    0.19    0.76
   8  -6  -8    1.41    0.72
   7  -6  -8    0.94    0.56
   7  -6  -8    1.58    0.73
   6  -6  -8    0.07    0.52
   6  -6  -8    1.07    0.63
   5  -6  -8    2.77    0.62
   5  -6  -8    1.84    0.63
   4  -6  -8   -0.38    0.47
   4  -6  -8    0.12    0.51
   3  -6  -8    0.88    0.52
   2  -6  -8    0.33    0.52
   1  -6  -8    2.31    0.59
   0  -6  -8    0.85    0.52
  -1  -6  -8    7.14    0.80
  -2  -6  -8    2.41    0.60
  -3  -6  -8    6.74    0.80
  -4  -6  -8    5.17    0.76
  -5  -6  -8    2.12    0.66
  -6  -6  -8    1.29    0.68
  -7  -6  -8    0.70    0.68
  -8  -6  -8    0.61    0.66
  10  -7  -8    0.88    0.88
   9  -7  -8    1.69    0.86
   8  -7  -8    1.40    0.80
   7  -7  -8    3.39    0.83
   7  -7  -8    3.26    0.70
   6  -7  -8    2.13    0.70
   6  -7  -8    0.68    0.61
   5  -7  -8    4.84    0.75
   4  -7  -8    4.44    0.73
   3  -7  -8    3.58    0.67
   2  -7  -8   13.93    1.03
   1  -7  -8    4.70    0.72
   0  -7  -8    6.19    0.80
  -1  -7  -8    3.89    0.69
  -2  -7  -8    0.37    0.55
  -4  -7  -8    1.24    0.65
  -5  -7  -8    0.09    0.61
  -6  -7  -8    0.89    0.71
  -7  -7  -8    0.61    0.70
   9  -8  -8    0.66    0.85
   7  -8  -8    0.58    0.66
   6  -8  -8    0.28    0.61
   5  -8  -8   -0.05    0.57
   4  -8  -8    4.16    0.74
   3  -8  -8    0.67    0.58
   2  -8  -8    8.74    0.93
   1  -8  -8    0.89    0.60
   0  -8  -8    2.49    0.70
  -1  -8  -8    0.16    0.59
  -2  -8  -8    3.11    0.72
  -3  -8  -8    0.08    0.68
  -4  -8  -8    3.09    0.76
  -5  -8  -8    0.82    0.70
  -6  -8  -8    1.18    0.78
   7  -9  -8   -0.55    0.67
   6  -9  -8    0.40    0.68
   5  -9  -8    0.46    0.70
   4  -9  -8    1.32    0.68
   3  -9  -8    0.52    0.64
   2  -9  -8    1.68    0.69
   1  -9  -8    1.28    0.69
   0  -9  -8    0.22    0.66
  -1  -9  -8    0.60    0.67
  -2  -9  -8    0.52    0.66
  -3  -9  -8    0.41    0.71
  -4  -9  -8    1.56    0.77
  -5  -9  -8   -0.85    0.68
   6 -10  -8   -0.34    0.72
   5 -10  -8    0.94    0.77
   4 -10  -8    1.45    0.73
   3 -10  -8   -0.22    0.67
   2 -10  -8    2.19    0.77
   1 -10  -8   -0.57    0.66
   0 -10  -8    4.35    0.87
  -1 -10  -8    0.48    0.73
  -2 -10  -8    0.07    0.72
  -3 -10  -8    0.37    0.74
   0 -14   9   -0.28    0.79
   1 -14   9    0.46    0.84
   2 -14   9    0.00    0.82
  -4 -13   9    4.04    0.92
  -3 -13   9    1.16    0.77
  -2 -13   9    1.56    0.74
  -1 -13   9    0.39    0.72
   0 -13   9    0.08    0.73
   1 -13   9    0.65    0.77
   2 -13   9   -1.82    0.70
   3 -13   9    1.64    0.82
   4 -13   9    0.55    0.80
  -5  13  -9    4.71    0.94
   5 -13   9    4.61    1.00
  -6 -12   9    0.35    0.76
  -5 -12   9    0.09    0.72
  -4 -12   9    4.16    0.86
  -3 -12   9    1.52    0.72
  -2 -12   9    4.67    0.85
  -1 -12   9    0.97    0.66
  -1 -12   9    2.46    0.73
   0 -12   9   15.92    1.24
   1 -12   9    3.82    0.79
  -2  12  -9   13.10    1.18
   2 -12   9   14.33    1.25
  -3  12  -9   -0.08    0.67
   3 -12   9   -0.02    0.75
  -4  12  -9   11.78    1.20
   4 -12   9   11.92    1.17
  -5  12  -9    0.24    0.72
   5 -12   9   -0.30    0.73
  -6  12  -9    2.57    0.86
   6 -12   9    1.62    0.88
  -7  12  -9    1.31    0.88
   7 -12   9    2.23    0.90
  -7 -11   9    0.15    0.82
  -6 -11   9    1.78    0.84
  -5 -11   9    1.85    0.80
  -4 -11   9    5.02    0.89
  -3 -11   9   -0.47    0.61
  -2 -11   9   13.45    1.13
  -1 -11   9    0.73    0.58
  -1 -11   9    0.84    0.60
   0  11  -9   23.51    1.47
   0 -11   9   22.99    1.38
   0 -11   9   23.50    1.39
  -1  11  -9    0.96    0.60
   1 -11   9    0.29    0.64
  -2  11  -9   16.98    1.27
   2 -11   9   18.56    1.28
  -3  11  -9    2.24    0.72
   3 -11   9    3.06    0.79
  -4  11  -9   12.74    1.19
   4 -11   9   12.19    1.14
  -5  11  -9    2.74    0.78
   5 -11   9    1.29    0.74
  -6  11  -9    7.64    1.08
   6 -11   9    8.21    1.06
  -7  11  -9    2.55    0.85
   7 -11   9    2.73    0.86
  -8  11  -9    5.31    1.10
   8 -11   9    5.18    0.99
  -9 -10   9   -0.51    0.82
  -8 -10   9    0.70    0.80
  -7 -10   9    2.72    0.86
  -6 -10   9    0.74    0.71
  -5 -10   9    3.63    0.83
  -4 -10   9    3.36    0.76
   3  10  -9    4.71    0.75
  -3 -10   9    3.96    0.74
   2  10  -9    3.45    0.72
  -2 -10   9    3.05    0.61
  -2 -10   9    2.70    0.68
   1  10  -9    7.15    0.85
  -1 -10   9    5.45    0.75
  -1 -10   9    7.82    0.81
   0  10  -9    9.56    0.97
   0 -10   9    8.69    0.86
   0 -10   9    7.51    0.84
  -1  10  -9    4.69    0.79
   1 -10   9    7.02    0.76
   1 -10   9    6.82    0.81
  -2  10  -9    2.00    0.62
   2 -10   9    1.81    0.67
  -3  10  -9    3.47    0.75
   3 -10   9    3.94    0.74
  -4  10  -9   -0.02    0.57
   4 -10   9    0.46    0.63
  -5  10  -9    3.85    0.81
   5 -10   9    4.01    0.83
  -6  10  -9    0.66    0.69
   6 -10   9    0.85    0.68
  -7  10  -9    2.86    0.83
   7 -10   9    2.45    0.80
  -8  10  -9    0.96    0.83
   8 -10   9    0.63    0.74
  -9  10  -9    2.58    1.00
   9 -10   9    1.34    0.83
  -9  -9   9    0.20    0.82
  -8  -9   9    0.61    0.74
  -7  -9   9    0.27    0.72
  -6  -9   9   -0.77    0.58
   5   9  -9    5.04    0.80
  -5  -9   9    3.57    0.78
   4   9  -9    0.90    0.60
  -4  -9   9   -0.02    0.57
   3   9  -9   12.42    1.08
  -3  -9   9   11.91    1.05
   2   9  -9    3.35    0.67
  -2  -9   9    3.47    0.68
  -2  -9   9    4.22    0.60
   1   9  -9    6.67    0.82
  -1  -9   9    7.55    0.74
  -1  -9   9    7.86    0.82
   0   9  -9    6.30    0.83
   0  -9   9    7.18    0.75
   0  -9   9    6.60    0.74
  -1   9  -9   -0.14    0.56
   1  -9   9    0.88    0.47
   1  -9   9    0.81    0.52
  -2   9  -9    6.96    0.84
   2  -9   9    7.20    0.80
   2  -9   9    5.70    0.66
  -3   9  -9    3.52    0.72
   3  -9   9    5.47    0.75
  -4   9  -9    0.97    0.61
   4  -9   9    0.17    0.56
  -5   9  -9    2.92    0.78
   5  -9   9    5.00    0.80
  -6   9  -9    1.69    0.70
   6  -9   9    1.06    0.64
  -7   9  -9    2.91    0.83
   7  -9   9    3.61    0.79
  -8   9  -9    0.27    0.74
   8  -9   9    0.96    0.75
  -9   9  -9    3.29    0.96
   9  -9   9    2.45    0.82
 -10   9  -9    1.11    0.91
  10  -9   9    0.60    0.81
 -10  -8   9    1.63    0.88
  -9  -8   9    0.42    0.73
  -8  -8   9    4.78    0.93
   7   8  -9    0.56    0.70
  -7  -8   9    0.29    0.67
   6   8  -9    6.14    0.89
  -6  -8   9    6.26    0.92
   5   8  -9    3.03    0.72
  -5  -8   9    2.44    0.68
   4   8  -9    6.18    0.82
  -4  -8   9    7.89    0.88
   3   8  -9    3.42    0.67
  -3  -8   9    3.07    0.64
   2   8  -9    7.89    0.86
  -2  -8   9    8.86    0.72
  -2  -8   9    8.43    0.82
   1   8  -9   11.78    0.96
  -1  -8   9   10.09    0.80
  -1  -8   9   11.13    0.90
   0   8  -9    3.11    0.66
   0  -8   9    1.91    0.53
   0  -8   9    2.68    0.52
  -1   8  -9    8.14    0.89
   1  -8   9    7.28    0.69
   1  -8   9    7.46    0.74
  -2   8  -9   19.41    1.32
   2  -8   9   20.49    1.14
   2  -8   9   20.32    1.11
  -3   8  -9    7.51    0.87
   3  -8   9    8.04    0.67
   3  -8   9    8.00    0.82
  -4   8  -9   27.80    1.61
   4  -8   9   24.69    1.39
  -5   8  -9    2.95    0.76
   5  -8   9    3.55    0.70
  -6   8  -9   13.75    1.26
  -7   8  -9    2.17    0.74
  -8   8  -9    4.36    0.90
   8  -8   9    5.06    0.86
  -9   8  -9    1.65    0.87
   9  -8   9    1.16    0.74
 -10   8  -9    1.33    0.88
  10  -8   9    1.12    0.79
 -11  -7   9    0.18    0.83
 -10  -7   9    0.76    0.78
   9   7  -9    0.57    0.81
  -9  -7   9   -0.09    0.68
   8   7  -9    3.33    0.85
  -8  -7   9    2.50    0.78
   7   7  -9    6.74    0.96
  -7  -7   9    7.88    0.96
   6   7  -9    2.42    0.69
  -6  -7   9    2.25    0.66
   5   7  -9   11.17    1.01
  -5  -7   9    9.87    0.99
   4   7  -9   38.18    1.95
  -4  -7   9   39.22    1.89
   3   7  -9   17.21    1.15
  -3  -7   9   17.34    1.15
  -3  -7   9   17.10    0.91
   2   7  -9   63.23    2.81
  -2  -7   9   64.45    2.38
  -2  -7   9   62.47    2.66
   1   7  -9    0.95    0.56
  -1  -7   9    0.28    0.46
  -1  -7   9    0.68    0.41
   0   7  -9   78.98    3.56
   0  -7   9   84.94    3.34
   0  -7   9   89.77    3.12
  -1   7  -9    7.76    0.87
   1  -7   9    8.78    0.74
   1  -7   9    7.96    0.71
  -2   7  -9   28.51    1.57
   2  -7   9   27.24    1.36
  -3   7  -9   10.07    0.99
   3  -7   9   10.14    0.78
  -4   7  -9   21.25    1.41
  -5   7  -9    7.61    0.94
  -6   7  -9   13.56    1.17
  -7   7  -9    2.58    0.75
  -8   7  -9    0.31    0.68
  -9   7  -9    0.73    0.79
 -10   7  -9    0.21    0.79
 -11   7  -9   -0.58    0.85
  11   6  -9    1.51    0.96
 -11  -6   9    1.38    0.85
  10   6  -9    1.46    0.85
 -10  -6   9    0.99    0.74
   9   6  -9    1.20    0.84
  -9  -6   9    1.59    0.72
   8   6  -9    1.44    0.78
  -8  -6   9    2.81    0.75
   7   6  -9    0.70    0.69
  -7  -6   9    0.59    0.61
   6   6  -9    4.95    0.80
  -6  -6   9    3.38    0.71
   5   6  -9    2.24    0.68
  -5  -6   9    1.94    0.58
   4   6  -9    4.59    0.71
  -4  -6   9    2.17    0.57
   3   6  -9    4.46    0.68
  -3  -6   9    2.44    0.40
  -3  -6   9    1.70    0.53
   2   6  -9    1.80    0.57
  -2  -6   9    0.70    0.37
  -2  -6   9    0.59    0.46
   1   6  -9    4.74    0.67
  -1  -6   9    1.95    0.53
   0   6  -9   22.94    1.35
   0  -6   9   23.55    1.25
  -1   6  -9    4.64    0.70
   1  -6   9    6.04    0.63
  -2   6  -9   11.66    1.02
  -3   6  -9    5.81    0.80
  -4   6  -9   17.14    1.20
  -5   6  -9   11.38    1.08
  -6   6  -9    3.02    0.73
  -7   6  -9    4.48    0.83
  -8   6  -9   -0.46    0.63
  -9   6  -9    0.70    0.71
 -10   6  -9    0.98    0.79
 -11   6  -9   -0.32    0.76
  12   5  -9    0.77    0.92
 -12  -5   9    0.97    0.84
  11   5  -9    0.54    0.93
 -11  -5   9    0.85    0.74
  10   5  -9    2.35    0.93
 -10  -5   9    1.28    0.74
   9   5  -9    0.69    0.78
  -9  -5   9    1.34    0.68
   8   5  -9    1.12    0.76
  -8  -5   9    0.72    0.61
   7   5  -9    2.15    0.76
  -7  -5   9    3.46    0.70
   6   5  -9    9.55    1.00
  -6  -5   9   10.90    0.96
   5   5  -9    9.31    0.93
  -5  -5   9    7.41    0.79
   4   5  -9   22.85    1.32
  -4  -5   9   19.72    1.21
   3   5  -9   20.58    1.23
  -3  -5   9   18.56    0.87
  -3  -5   9   19.99    1.17
   2   5  -9    7.45    0.80
  -2  -5   9    7.76    0.73
   1   5  -9   12.15    0.94
  -1  -5   9   11.65    0.84
   0   5  -9   -0.19    0.46
  -1   5  -9    0.01    0.45
  -2   5  -9    1.34    0.55
  -3   5  -9    2.06    0.59
  -4   5  -9    8.81    0.89
  -5   5  -9    6.53    0.84
  -6   5  -9    4.20    0.76
  -7   5  -9    7.66    0.97
  -8   5  -9    3.64    0.84
  -9   5  -9    4.19    0.87
 -10   5  -9    0.07    0.73
 -11   5  -9    1.05    0.81
  12   4  -9    0.12    0.90
 -12  -4   9   -0.59    0.67
  11   4  -9    0.20    0.89
 -11  -4   9    1.29    0.72
  10   4  -9   -0.10    0.79
 -10  -4   9    0.56    0.66
   9   4  -9    0.72    0.76
  -9  -4   9    1.93    0.67
   8   4  -9    3.39    0.83
  -8  -4   9    3.15    0.70
   7   4  -9    5.47    0.90
  -7  -4   9    2.89    0.65
   6   4  -9   29.17    1.72
  -6  -4   9   32.01    1.61
   5   4  -9    3.16    0.68
  -5  -4   9    2.24    0.55
   4   4  -9   21.63    1.33
  -4  -4   9   23.31    1.28
   3   4  -9    1.15    0.55
  -3  -4   9    1.50    0.48
   2   4  -9   18.44    1.16
   1   4  -9    4.09    0.62
   0   4  -9   78.30    3.29
  -1   4  -9    0.30    0.45
  -2   4  -9   64.61    2.83
  -3   4  -9   11.64    0.97
  -4   4  -9   43.61    2.11
  -5   4  -9   20.11    1.31
  -6   4  -9   17.44    1.26
  -7   4  -9    0.86    0.62
  -8   4  -9    0.60    0.65
  -9   4  -9    1.58    0.70
 -10   4  -9   -0.35    0.70
 -11   4  -9    0.70    0.75
  12   3  -9   -0.65    0.83
 -12  -3   9    0.70    0.69
  11   3  -9    2.10    0.93
 -11  -3   9    2.48    0.80
  10   3  -9   -0.02    0.75
 -10  -3   9   -0.78    0.61
   9   3  -9    1.52    0.80
  -9  -3   9    2.86    0.68
   8   3  -9    2.19    0.76
  -8  -3   9    0.81    0.60
   7   3  -9    0.86    0.67
  -7  -3   9    0.35    0.49
   6   3  -9   11.36    1.09
  -6  -3   9   14.26    1.00
   5   3  -9    4.02    0.71
  -5  -3   9    3.36    0.60
   4   3  -9   22.22    1.34
  -4  -3   9   23.83    1.27
   3   3  -9    0.38    0.49
   2   3  -9   30.40    1.55
   1   3  -9    0.50    0.45
   1   3  -9    0.57    0.27
   0   3  -9   28.83    1.47
   0   3  -9   27.99    1.19
  -1   3  -9    3.01    0.57
  -1   3  -9    3.28    0.43
  -2   3  -9   80.88    2.97
  -2   3  -9   82.36    3.43
  -3   3  -9    3.19    0.60
  -3   3  -9    2.96    0.48
  -4   3  -9   35.02    1.52
  -4   3  -9   33.38    1.75
  -5   3  -9    0.20    0.42
  -5   3  -9    0.21    0.51
  -6   3  -9   10.21    1.00
  -7   3  -9    0.37    0.57
  -8   3  -9    5.61    0.91
  -9   3  -9    0.38    0.61
 -10   3  -9    0.39    0.68
 -11   3  -9    2.85    0.86
  12   2  -9    0.22    0.86
 -12  -2   9    0.46    0.70
  11   2  -9    5.58    1.05
 -11  -2   9    6.12    0.94
  10   2  -9    1.24    0.80
 -10  -2   9    0.36    0.62
   9   2  -9    4.31    0.86
  -9  -2   9    3.38    0.72
   8   2  -9    0.66    0.72
  -8  -2   9    2.14    0.60
   7   2  -9    4.06    0.79
  -7  -2   9    3.06    0.60
   6   2  -9    8.84    0.95
  -6  -2   9    9.90    0.86
   5   2  -9   14.54    1.12
  -5  -2   9   12.80    0.95
   4   2  -9    5.94    0.75
   4   2  -9    7.24    0.44
   3   2  -9   40.82    1.96
   3   2  -9   42.30    1.54
   2   2  -9   13.91    0.71
   2   2  -9   13.79    0.98
   1   2  -9   31.98    1.62
   1   2  -9   33.57    1.32
   0   2  -9   35.71    1.40
   0   2  -9   32.96    1.66
  -1   2  -9   27.19    1.20
  -1   2  -9   27.93    1.44
  -2   2  -9   14.21    0.99
  -2   2  -9   13.93    0.84
  -3   2  -9   22.71    1.32
  -3   2  -9   24.25    1.17
  -4   2  -9    1.36    0.53
  -4   2  -9    1.91    0.48
  -5   2  -9   11.15    0.97
  -5   2  -9   14.08    0.92
  -6   2  -9    4.50    0.74
  -6   2  -9    3.98    0.62
  -7   2  -9    1.40    0.54
  -7   2  -9    2.43    0.68
  -8   2  -9    0.98    0.62
  -9   2  -9    0.94    0.62
 -10   2  -9    1.02    0.70
 -11   2  -9    0.91    0.76
  12   1  -9    1.40    0.93
  11   1  -9    1.18    0.86
 -11  -1   9    0.31    0.64
  10   1  -9    1.60    0.85
 -10  -1   9    0.99    0.62
   9   1  -9    2.60    0.80
  -9  -1   9    2.61    0.64
   8   1  -9    1.05    0.67
  -8  -1   9    0.83    0.52
   7   1  -9   15.84    1.19
  -7  -1   9   12.69    0.99
   6   1  -9    1.84    0.67
  -6  -1   9    2.01    0.53
   5   1  -9    5.63    0.78
   4   1  -9    0.44    0.51
   4   1  -9    0.65    0.25
   3   1  -9   28.68    1.15
   3   1  -9   28.99    1.50
   2   1  -9    1.88    0.34
   2   1  -9    1.43    0.50
   1   1  -9   11.37    0.68
   1   1  -9   12.12    0.94
   0   1  -9   12.79    0.91
   0   1  -9   13.59    0.78
  -1   1  -9    0.51    0.43
  -1   1  -9    0.97    0.35
  -2   1  -9   11.98    0.93
  -2   1  -9   10.87    0.79
  -3   1  -9    1.58    0.52
  -3   1  -9    3.06    0.49
  -4   1  -9   -0.06    0.40
  -4   1  -9    0.77    0.48
  -5   1  -9    2.76    0.54
  -5   1  -9    3.10    0.60
  -6   1  -9    2.21    0.61
  -6   1  -9    2.84    0.58
  -7   1  -9    3.64    0.65
  -7   1  -9    3.54    0.72
  -8   1  -9    1.80    0.61
  -8   1  -9    1.30    0.62
  -9   1  -9    1.57    0.67
  -9   1  -9    0.65    0.62
 -10   1  -9    0.37    0.65
 -11   1  -9    0.83    0.72
  12   0  -9    0.70    0.93
  11   0  -9    0.14    0.84
  10   0  -9    0.03    0.72
 -10   0   9    0.54    0.57
   9   0  -9    1.87    0.74
  -9   0   9    1.87    0.58
   8   0  -9    3.79    0.79
  -8   0   9    2.59    0.59
   7   0  -9    1.70    0.65
  -7   0   9    0.66    0.48
   6   0  -9   11.89    1.06
  -6   0   9    9.50    0.82
   5   0  -9    6.46    0.81
   5   0  -9    6.31    0.45
   4   0  -9   28.37    1.15
   4   0  -9   27.84    1.54
   3   0  -9    4.68    0.66
   3   0  -9    4.00    0.41
   2   0  -9   59.55    2.61
   2   0  -9   61.22    2.22
   1   0  -9    1.30    0.36
   1   0  -9    1.90    0.49
   0   0  -9   17.74    0.88
   0   0  -9   15.74    1.01
  -1   0  -9    0.67    0.38
  -1   0  -9    1.23    0.44
  -2   0  -9   28.55    1.47
  -2   0  -9   29.08    1.30
  -3   0  -9    4.12    0.55
  -3   0  -9    3.43    0.55
  -4   0  -9   10.14    0.83
  -4   0  -9   11.33    0.84
  -5   0  -9    5.04    0.64
  -5   0  -9    5.07    0.66
  -6   0  -9   10.72    0.89
  -6   0  -9   11.31    0.97
  -7   0  -9    1.57    0.57
  -7   0  -9    1.61    0.60
  -8   0  -9    3.76    0.72
  -8   0  -9    4.96    0.75
  -9   0  -9    2.19    0.67
  -9   0  -9    2.91    0.70
 -10   0  -9    1.15    0.66
  12  -1  -9    0.25    0.88
  11  -1  -9   -0.11    0.77
  10  -1  -9   -0.26    0.71
   9  -1  -9    0.52    0.70
  -9   1   9    0.66    0.54
   8  -1  -9    0.63    0.66
  -8   1   9   -0.62    0.46
   7  -1  -9    3.02    0.72
  -7   1   9    2.19    0.54
   6  -1  -9    5.99    0.82
   5  -1  -9   12.50    1.03
   5  -1  -9   10.11    0.67
   4  -1  -9    8.72    0.62
   4  -1  -9    7.69    0.84
   3  -1  -9    8.06    0.79
   3  -1  -9    7.39    0.59
   2  -1  -9   45.94    1.77
   2  -1  -9   44.80    2.06
   1  -1  -9    1.88    0.38
   1  -1  -9    0.84    0.48
   0  -1  -9   68.06    2.80
   0  -1  -9   64.35    2.46
  -1  -1  -9    5.54    0.57
  -1  -1  -9    5.18    0.61
  -2  -1  -9   27.24    1.37
  -2  -1  -9   25.94    1.26
  -3  -1  -9   16.50    0.97
  -3  -1  -9   15.61    1.00
  -4  -1  -9    3.66    0.58
  -4  -1  -9    5.46    0.62
  -5  -1  -9   24.08    1.32
  -5  -1  -9   22.20    1.25
  -6  -1  -9    3.86    0.65
  -6  -1  -9    4.55    0.67
  -7  -1  -9   -0.68    0.48
  -7  -1  -9    0.86    0.56
  -8  -1  -9    1.37    0.63
  -9  -1  -9    0.04    0.61
 -10  -1  -9    0.32    0.70
 -11  -1  -9    1.72    0.79
  12  -2  -9   -0.11    0.87
  11  -2  -9    0.32    0.82
  10  -2  -9    0.27    0.74
   9  -2  -9    1.51    0.75
   8  -2  -9    0.94    0.68
  -8   2   9    1.48    0.54
   7  -2  -9    0.95    0.64
  -7   2   9    1.01    0.49
   6  -2  -9    1.21    0.60
   5  -2  -9    3.11    0.66
   5  -2  -9    1.83    0.41
   4  -2  -9    2.79    0.62
   4  -2  -9    2.47    0.43
   3  -2  -9    3.82    0.66
   3  -2  -9    3.81    0.49
   2  -2  -9    9.40    0.72
   2  -2  -9   10.19    0.86
   1  -2  -9    0.76    0.38
   1  -2  -9    0.51    0.46
   0  -2  -9    8.34    0.74
   0  -2  -9    7.74    0.67
  -1  -2  -9    0.62    0.42
  -1  -2  -9    0.93    0.42
  -2  -2  -9   22.32    1.18
  -2  -2  -9   22.38    1.15
  -3  -2  -9   12.91    0.86
  -3  -2  -9   10.03    0.83
  -4  -2  -9   22.21    1.19
  -4  -2  -9   21.80    1.19
  -5  -2  -9   10.24    0.86
  -5  -2  -9   10.05    0.86
  -6  -2  -9    6.20    0.74
  -7  -2  -9    3.60    0.69
  -8  -2  -9    0.88    0.60
  -9  -2  -9    0.75    0.65
 -10  -2  -9    0.23    0.73
  12  -3  -9   -0.16    0.90
  11  -3  -9    1.34    0.88
  10  -3  -9    0.32    0.77
   9  -3  -9    3.81    0.92
   8  -3  -9    2.42    0.75
   7  -3  -9    2.69    0.76
   6  -3  -9    1.45    0.61
   6  -3  -9    0.72    0.42
   5  -3  -9    5.37    0.76
   5  -3  -9    4.99    0.56
   4  -3  -9    1.39    0.45
   4  -3  -9    2.38    0.59
   3  -3  -9    1.53    0.45
   3  -3  -9    2.82    0.61
   2  -3  -9   11.38    0.83
   2  -3  -9   11.80    0.95
   1  -3  -9    1.15    0.50
   1  -3  -9    1.12    0.46
   0  -3  -9   14.10    0.92
   0  -3  -9   11.64    0.85
  -1  -3  -9    1.83    0.49
  -1  -3  -9    2.01    0.46
  -2  -3  -9    3.66    0.58
  -2  -3  -9    3.73    0.51
  -3  -3  -9    1.45    0.42
  -3  -3  -9    1.68    0.50
  -4  -3  -9    0.44    0.49
  -5  -3  -9    1.04    0.51
  -6  -3  -9    2.97    0.63
  -7  -3  -9    0.77    0.58
  -8  -3  -9    0.96    0.64
  -9  -3  -9    0.38    0.67
 -10  -3  -9   -0.10    0.75
  11  -4  -9    0.72    0.91
  10  -4  -9    0.86    0.83
   9  -4  -9    2.26    0.87
   8  -4  -9    0.84    0.68
   7  -4  -9    0.10    0.67
   6  -4  -9    5.09    0.80
   6  -4  -9    5.54    0.64
   5  -4  -9   -0.42    0.52
   5  -4  -9    0.14    0.43
   4  -4  -9    1.55    0.50
   4  -4  -9    2.57    0.63
   3  -4  -9    1.91    0.52
   3  -4  -9    3.13    0.61
   2  -4  -9   -0.26    0.40
   2  -4  -9   -0.12    0.42
   1  -4  -9    2.84    0.54
   1  -4  -9    2.22    0.52
   0  -4  -9    4.93    0.59
   0  -4  -9    5.05    0.65
  -1  -4  -9    0.11    0.44
  -2  -4  -9    0.22    0.47
  -3  -4  -9   -0.37    0.45
  -4  -4  -9    0.67    0.54
  -5  -4  -9    0.71    0.55
  -6  -4  -9    2.74    0.64
  -7  -4  -9    2.31    0.68
  -8  -4  -9    1.92    0.75
  -9  -4  -9    0.34    0.67
  11  -5  -9    0.27    0.87
  10  -5  -9    1.37    0.92
   9  -5  -9    0.07    0.72
   8  -5  -9    2.01    0.80
   7  -5  -9    4.99    0.89
   6  -5  -9    7.95    0.77
   6  -5  -9    6.73    0.92
   5  -5  -9    2.59    0.58
   5  -5  -9    2.15    0.69
   4  -5  -9    7.99    0.87
   4  -5  -9    8.14    0.78
   3  -5  -9    5.34    0.72
   3  -5  -9    4.88    0.66
   2  -5  -9   17.77    1.18
   2  -5  -9   19.02    1.13
   1  -5  -9    4.53    0.63
   0  -5  -9   13.34    0.96
  -1  -5  -9    7.25    0.80
  -2  -5  -9    2.09    0.58
  -3  -5  -9    9.08    0.88
  -4  -5  -9    1.57    0.63
  -5  -5  -9    0.49    0.57
  -6  -5  -9    1.44    0.65
  -7  -5  -9    0.54    0.67
  -8  -5  -9    1.00    0.73
  10  -6  -9    2.02    0.96
   9  -6  -9    0.70    0.84
   8  -6  -9    5.52    0.99
   7  -6  -9    3.31    0.84
   7  -6  -9    3.92    0.69
   6  -6  -9    6.58    0.80
   6  -6  -9    8.61    0.99
   5  -6  -9    7.26    0.91
   5  -6  -9    8.12    0.82
   4  -6  -9    3.69    0.68
   4  -6  -9    3.37    0.74
   3  -6  -9    3.47    0.64
   2  -6  -9    9.84    0.90
   1  -6  -9    0.31    0.54
   0  -6  -9    1.24    0.58
  -1  -6  -9    6.64    0.80
  -2  -6  -9    0.42    0.54
  -3  -6  -9   11.27    1.01
  -4  -6  -9    0.09    0.57
  -5  -6  -9    3.38    0.77
  -6  -6  -9   -0.35    0.66
  -7  -6  -9    1.36    0.76
  -8  -6  -9    0.93    0.73
   9  -7  -9    2.06    0.91
   8  -7  -9   -0.23    0.75
   7  -7  -9    2.19    0.69
   7  -7  -9    1.35    0.79
   6  -7  -9    1.24    0.64
   5  -7  -9    1.29    0.63
   4  -7  -9    0.56    0.56
   3  -7  -9    1.05    0.61
   2  -7  -9    1.21    0.61
   1  -7  -9   -0.60    0.53
   0  -7  -9    0.08    0.58
  -1  -7  -9    3.77    0.73
  -2  -7  -9   -0.21    0.60
  -3  -7  -9    1.62    0.67
  -4  -7  -9    0.39    0.64
  -5  -7  -9   -0.30    0.68
  -6  -7  -9    1.43    0.76
  -7  -7  -9    0.50    0.75
   7  -8  -9   -0.21    0.63
   6  -8  -9    0.86    0.63
   5  -8  -9    0.07    0.63
   4  -8  -9    2.73    0.70
   3  -8  -9    0.84    0.62
   2  -8  -9    3.08    0.73
   1  -8  -9   -0.04    0.60
   0  -8  -9    1.34    0.69
  -1  -8  -9    0.52    0.63
  -2  -8  -9    0.02    0.65
  -3  -8  -9    0.43    0.67
  -4  -8  -9    0.71    0.70
  -5  -8  -9    0.31    0.76
   7  -9  -9   -0.35    0.69
   6  -9  -9    1.81    0.73
   5  -9  -9    0.74    0.72
   4  -9  -9    7.67    0.97
   3  -9  -9    0.59    0.67
   2  -9  -9    6.67    0.94
   1  -9  -9    2.72    0.76
   0  -9  -9    2.30    0.79
  -1  -9  -9    1.70    0.71
  -2  -9  -9    0.47    0.72
  -3  -9  -9    1.13    0.74
   4 -10  -9    2.33    0.83
   3 -10  -9    0.16    0.71
   2 -10  -9    1.58    0.77
   1 -10  -9    0.70    0.72
   0 -10  -9    1.51    0.76
  -1 -10  -9    0.89    0.74
  -4 -13  10    1.43    0.84
  -3 -13  10    0.80    0.77
  -2 -13  10    4.33    0.88
   0 -13  10   10.25    1.07
   1 -13  10    4.20    0.90
   2 -13  10    0.93    0.83
   3 -13  10   13.82    1.31
  -4  13 -10    0.25    0.73
   4 -13  10    0.49    0.80
  -5  13 -10    8.43    1.13
   5 -13  10    8.78    1.15
  -6 -12  10   -0.31    0.73
  -5 -12  10    0.84    0.77
  -4 -12  10    0.10    0.68
  -3 -12  10   -0.24    0.67
  -2 -12  10   -0.02    0.64
  -1 -12  10    0.63    0.66
  -1 -12  10    1.40    0.65
   0 -12  10    1.15    0.69
  -1  12 -10    1.59    0.70
   1 -12  10    0.16    0.67
  -2  12 -10    1.91    0.75
   2 -12  10    2.39    0.76
  -3  12 -10    3.59    0.83
   3 -12  10    2.84    0.80
  -4  12 -10    0.47    0.71
   4 -12  10    1.05    0.76
  -5  12 -10    0.45    0.76
   5 -12  10   -1.30    0.77
  -6  12 -10    0.17    0.76
   6 -12  10    0.75    0.86
  -7 -11  10    1.74    0.85
  -6 -11  10    3.35    0.92
  -5 -11  10    5.03    0.91
  -4 -11  10   10.80    1.13
  -3 -11  10    2.93    0.74
  -2 -11  10   13.24    1.16
   1  11 -10    1.01    0.63
  -1 -11  10    0.07    0.57
  -1 -11  10    0.53    0.60
   0  11 -10    6.20    0.88
   0 -11  10    6.27    0.81
   0 -11  10    6.23    0.81
  -1  11 -10    0.87    0.62
   1 -11  10   -0.71    0.59
  -2  11 -10    7.76    0.97
   2 -11  10    7.64    0.96
  -3  11 -10    0.09    0.61
   3 -11  10    0.36    0.68
  -4  11 -10   10.58    1.18
   4 -11  10   12.98    1.16
  -5  11 -10   -0.56    0.68
   5 -11  10    0.46    0.76
  -6  11 -10    3.37    0.87
   6 -11  10    3.49    0.86
  -7  11 -10   -0.27    0.75
   7 -11  10    0.58    0.79
  -8  11 -10    0.88    0.85
   8 -11  10    1.16    0.84
  -8 -10  10    0.82    0.81
  -7 -10  10    0.69    0.75
  -6 -10  10    4.35    0.88
  -5 -10  10    1.22    0.73
   4  10 -10    7.06    0.91
  -4 -10  10    5.77    0.89
   3  10 -10    1.40    0.69
  -3 -10  10    2.37    0.69
   2  10 -10    6.94    0.89
  -2 -10  10    6.74    0.86
   1  10 -10    6.66    0.91
  -1 -10  10    7.09    0.84
  -1 -10  10    6.36    0.78
   0  10 -10   12.83    1.16
   0 -10  10   13.87    1.05
   0 -10  10   13.77    1.05
  -1  10 -10    8.05    0.97
   1 -10  10    8.41    0.83
   1 -10  10    7.29    0.83
  -2  10 -10    8.82    0.97
   2 -10  10    6.31    0.83
  -3  10 -10   10.41    1.10
   3 -10  10   13.12    1.10
  -4  10 -10    5.77    0.91
   4 -10  10    4.09    0.78
  -5  10 -10    9.56    1.12
   5 -10  10    8.26    0.97
  -6  10 -10    1.00    0.74
   6 -10  10    0.21    0.66
  -7  10 -10    5.67    1.04
   7 -10  10    5.79    0.95
  -8  10 -10   -0.75    0.78
   8 -10  10    0.20    0.72
  -9  10 -10    1.49    0.91
   9 -10  10    0.53    0.79
  -9  -9  10   -0.16    0.74
  -8  -9  10    1.28    0.81
  -7  -9  10    0.53    0.69
   6   9 -10    0.69    0.70
  -6  -9  10    1.68    0.72
   5   9 -10    2.93    0.76
  -5  -9  10    3.29    0.77
   4   9 -10    1.22    0.67
  -4  -9  10    2.99    0.70
   3   9 -10    4.50    0.78
  -3  -9  10    3.38    0.71
   2   9 -10    4.79    0.79
  -2  -9  10    5.59    0.78
  -2  -9  10    4.54    0.65
   1   9 -10   16.41    1.28
  -1  -9  10   16.45    1.11
  -1  -9  10   18.49    1.13
   0   9 -10    3.76    0.79
   0  -9  10    4.85    0.69
   0  -9  10    3.89    0.64
  -1   9 -10   36.71    1.98
   1  -9  10   38.50    1.75
   1  -9  10   41.71    1.84
  -2   9 -10    2.67    0.70
   2  -9  10    2.92    0.57
   2  -9  10    2.25    0.62
  -3   9 -10   23.99    1.49
   3  -9  10   24.80    1.36
  -4   9 -10    0.54    0.63
   4  -9  10   -0.32    0.54
  -5   9 -10    9.51    1.07
   5  -9  10    8.24    0.93
  -6   9 -10    0.18    0.67
   6  -9  10    0.98    0.64
  -7   9 -10    4.57    0.94
   7  -9  10    5.68    0.88
  -8   9 -10    4.21    0.97
   8  -9  10    3.43    0.82
  -9   9 -10    2.04    0.96
   9  -9  10    0.89    0.78
 -10  -8  10    0.65    0.80
  -9  -8  10    1.88    0.85
   8   8 -10    1.61    0.84
  -8  -8  10   -0.01    0.70
   7   8 -10    2.61    0.84
  -7  -8  10    2.12    0.77
   6   8 -10    1.42    0.74
  -6  -8  10    0.66    0.67
   5   8 -10    6.43    0.92
  -5  -8  10    5.87    0.85
   4   8 -10    1.93    0.67
  -4  -8  10    1.59    0.60
   3   8 -10   10.89    1.01
  -3  -8  10    8.29    0.92
   2   8 -10    2.88    0.69
  -2  -8  10    2.42    0.53
  -2  -8  10    1.39    0.55
   1   8 -10   16.66    1.24
  -1  -8  10   17.04    1.12
  -1  -8  10   16.93    1.02
   0   8 -10   -0.16    0.55
   0  -8  10    0.27    0.46
   0  -8  10   -0.08    0.45
  -1   8 -10   12.69    1.12
   1  -8  10   11.43    0.89
   1  -8  10   11.08    0.87
  -2   8 -10    2.42    0.71
   2  -8  10    4.11    0.57
   2  -8  10    3.31    0.61
  -3   8 -10    7.93    0.96
   3  -8  10    9.96    0.81
  -4   8 -10    3.81    0.78
  -5   8 -10    7.68    0.98
  -6   8 -10    4.38    0.84
  -7   8 -10    2.86    0.85
  -8   8 -10    3.40    0.93
  -9   8 -10    0.81    0.83
 -10   8 -10    0.71    0.92
  10  -8  10    0.69    0.75
  10   7 -10    0.66    0.96
 -10  -7  10    2.43    0.89
   9   7 -10    0.66    0.86
  -9  -7  10    0.57    0.79
   8   7 -10    1.56    0.83
  -8  -7  10    0.37    0.75
   7   7 -10    1.66    0.79
  -7  -7  10    1.00    0.71
   6   7 -10   14.21    1.19
  -6  -7  10   12.49    1.17
   5   7 -10    1.40    0.68
  -5  -7  10    0.93    0.60
   4   7 -10   24.31    1.49
  -4  -7  10   25.70    1.44
   3   7 -10    4.90    0.74
  -3  -7  10    3.30    0.64
   2   7 -10    9.84    0.97
  -2  -7  10   10.16    0.88
  -2  -7  10   10.84    0.77
   1   7 -10   10.63    0.96
  -1  -7  10    9.37    0.86
  -1  -7  10    9.57    0.73
   0   7 -10    3.50    0.70
   0  -7  10    1.08    0.47
   0  -7  10    2.35    0.53
  -1   7 -10   20.32    1.42
   1  -7  10   22.22    1.21
  -2   7 -10   11.78    1.05
   2  -7  10   10.22    0.84
  -3   7 -10    0.36    0.58
   3  -7  10    0.28    0.40
  -4   7 -10    4.74    0.80
  -5   7 -10    0.04    0.60
  -6   7 -10    1.45    0.69
  -7   7 -10    0.43    0.67
  -8   7 -10   -0.58    0.66
  -9   7 -10   -0.33    0.72
 -10   7 -10    0.85    0.87
  11   6 -10    1.29    0.97
 -11  -6  10    0.05    0.80
  10   6 -10   -0.08    0.90
 -10  -6  10    0.01    0.76
   9   6 -10   -0.20    0.79
  -9  -6  10    1.84    0.78
   8   6 -10    3.30    0.90
  -8  -6  10    2.88    0.78
   7   6 -10    0.36    0.71
  -7  -6  10    0.15    0.60
   6   6 -10    2.62    0.72
  -6  -6  10    2.67    0.72
   5   6 -10    0.85    0.61
  -5  -6  10    0.26    0.51
   4   6 -10   10.24    1.00
  -4  -6  10   12.15    1.00
   3   6 -10    5.18    0.78
  -3  -6  10    7.76    0.77
   2   6 -10   25.49    1.48
  -2  -6  10   24.95    1.39
  -2  -6  10   27.44    1.18
   1   6 -10   20.02    1.31
  -1  -6  10   21.10    1.19
   0   6 -10    3.08    0.65
   0  -6  10    1.49    0.51
  -1   6 -10   57.04    2.62
  -2   6 -10   12.43    1.10
  -3   6 -10   21.92    1.40
  -4   6 -10   12.05    1.10
  -5   6 -10    5.82    0.87
  -6   6 -10    3.98    0.80
  -7   6 -10    1.04    0.70
  -8   6 -10    2.97    0.86
  -9   6 -10    1.47    0.79
 -10   6 -10    0.16    0.77
  11   5 -10    1.09    0.99
 -11  -5  10   -0.73    0.69
  10   5 -10    0.81    0.90
 -10  -5  10    0.22    0.75
   9   5 -10    0.15    0.77
  -9  -5  10    1.09    0.69
   8   5 -10   -0.01    0.76
  -8  -5  10    0.08    0.59
   7   5 -10    1.29    0.75
  -7  -5  10    0.62    0.59
   6   5 -10    4.07    0.83
  -6  -5  10    5.27    0.77
   5   5 -10    3.29    0.72
  -5  -5  10    3.68    0.64
   4   5 -10   29.56    1.64
  -4  -5  10   30.31    1.58
   3   5 -10   12.98    1.07
  -3  -5  10   11.96    0.96
   2   5 -10   27.20    1.50
  -2  -5  10   26.05    1.39
   1   5 -10   40.46    1.98
   0   5 -10   16.10    1.15
  -1   5 -10   49.49    2.33
  -2   5 -10   10.53    1.00
  -3   5 -10   15.68    1.16
  -4   5 -10    1.95    0.62
  -5   5 -10   21.82    1.44
  -6   5 -10    0.38    0.60
  -7   5 -10   12.08    1.19
  -9   5 -10    3.84    0.94
 -10   5 -10    1.81    0.82
 -11   5 -10    0.05    0.79
  12   4 -10    0.61    0.96
 -12  -4  10    0.80    0.81
  11   4 -10    3.59    1.07
 -11  -4  10    3.13    0.89
  10   4 -10    0.30    0.82
 -10  -4  10    0.71    0.72
   9   4 -10    2.50    0.88
  -9  -4  10    1.98    0.73
   8   4 -10    2.00    0.85
  -8  -4  10    1.97    0.67
   7   4 -10    1.90    0.75
  -7  -4  10    1.95    0.61
   6   4 -10    3.03    0.75
  -6  -4  10    2.82    0.62
   5   4 -10    1.52    0.67
  -5  -4  10    0.66    0.52
   4   4 -10    4.14    0.72
  -4  -4  10    3.21    0.62
   3   4 -10    2.72    0.64
  -3  -4  10    1.81    0.52
   2   4 -10    1.08    0.54
   1   4 -10   19.06    1.22
   0   4 -10    0.71    0.52
  -1   4 -10    0.89    0.52
  -2   4 -10    7.73    0.84
  -3   4 -10    1.57    0.57
  -4   4 -10    8.28    0.91
  -5   4 -10    8.23    0.93
  -6   4 -10    1.47    0.65
  -7   4 -10    1.65    0.67
  -8   4 -10   -0.73    0.65
  -9   4 -10   -0.28    0.69
 -10   4 -10    0.57    0.75
 -11   4 -10   -0.03    0.75
  12   3 -10   -0.34    0.95
 -12  -3  10    0.81    0.76
  11   3 -10    2.56    0.98
 -11  -3  10    1.15    0.78
  10   3 -10    1.54    0.85
 -10  -3  10   -0.52    0.59
   9   3 -10    3.20    0.85
  -9  -3  10    3.15    0.72
   8   3 -10    3.77    0.88
  -8  -3  10    1.64    0.62
   7   3 -10    2.63    0.79
  -7  -3  10    2.46    0.62
   6   3 -10   13.98    1.16
  -6  -3  10   13.25    1.05
   5   3 -10    5.32    0.80
  -5  -3  10    4.40    0.67
   4   3 -10   17.66    1.18
  -4  -3  10   13.64    1.03
   3   3 -10    4.30    0.69
   2   3 -10    7.69    0.81
   2   3 -10    7.44    0.56
   1   3 -10    0.30    0.47
   1   3 -10    0.14    0.30
   0   3 -10    5.41    0.53
   0   3 -10    5.96    0.74
  -1   3 -10    3.54    0.63
  -1   3 -10    2.68    0.45
  -2   3 -10   27.59    1.28
  -2   3 -10   27.52    1.52
  -3   3 -10    2.10    0.48
  -3   3 -10    2.25    0.61
  -4   3 -10   10.09    0.96
  -4   3 -10    8.21    0.75
  -5   3 -10    1.15    0.56
  -5   3 -10    0.42    0.45
  -6   3 -10    6.77    0.88
  -7   3 -10    0.12    0.59
  -8   3 -10    3.56    0.81
  -9   3 -10    1.93    0.71
 -10   3 -10    0.81    0.70
 -11   3 -10    1.65    0.85
  12   2 -10    1.77    0.98
  11   2 -10    1.54    0.91
 -11  -2  10    1.02    0.72
  10   2 -10    2.56    0.91
 -10  -2  10    2.58    0.75
   9   2 -10    2.22    0.84
  -9  -2  10    2.38    0.66
   8   2 -10    3.46    0.83
  -8  -2  10    3.26    0.67
   7   2 -10   10.33    1.13
  -7  -2  10   12.83    1.01
   6   2 -10   15.18    1.24
  -6  -2  10   16.95    1.16
   5   2 -10   13.01    1.09
  -5  -2  10   13.53    0.98
   4   2 -10    3.99    0.71
   4   2 -10    3.47    0.34
   3   2 -10   14.78    0.78
   3   2 -10   17.55    1.15
   2   2 -10   -0.02    0.27
   2   2 -10    0.16    0.49
   1   2 -10   15.94    0.83
   1   2 -10   15.56    1.08
   0   2 -10    8.70    0.84
   0   2 -10    8.24    0.63
  -1   2 -10   14.55    1.02
  -1   2 -10   13.32    0.82
  -2   2 -10    3.15    0.51
  -2   2 -10    2.74    0.60
  -3   2 -10    6.67    0.67
  -3   2 -10    7.89    0.84
  -4   2 -10    0.91    0.52
  -4   2 -10    0.63    0.45
  -5   2 -10    3.63    0.67
  -5   2 -10    3.81    0.60
  -6   2 -10    0.43    0.57
  -6   2 -10    0.08    0.49
  -7   2 -10    0.38    0.52
  -7   2 -10    0.96    0.59
  -8   2 -10    1.18    0.66
  -9   2 -10    0.61    0.63
 -10   2 -10    0.23    0.70
 -11   2 -10    0.46    0.75
  12   1 -10    0.81    0.92
  11   1 -10    1.87    0.90
 -11  -1  10    1.91    0.75
  10   1 -10    1.22    0.81
 -10  -1  10    2.08    0.69
   9   1 -10    0.85    0.77
  -9  -1  10    0.94    0.59
   8   1 -10    2.08    0.78
  -8  -1  10    0.80    0.53
   7   1 -10    6.66    0.95
  -7  -1  10    8.87    0.85
   6   1 -10    3.39    0.75
  -6  -1  10    4.34    0.65
   5   1 -10    8.18    0.93
   4   1 -10    1.37    0.63
   4   1 -10    0.92    0.30
   3   1 -10   30.10    1.60
   3   1 -10   29.98    1.22
   2   1 -10    2.05    0.58
   2   1 -10    2.00    0.39
   1   1 -10   26.22    1.14
   1   1 -10   24.12    1.39
   0   1 -10    0.55    0.38
   0   1 -10    1.06    0.51
  -1   1 -10   54.77    2.46
  -1   1 -10   54.62    2.12
  -2   1 -10   16.26    0.95
  -2   1 -10   16.06    1.13
  -3   1 -10   29.87    1.36
  -3   1 -10   26.56    1.49
  -4   1 -10    0.31    0.46
  -4   1 -10    0.31    0.43
  -5   1 -10   12.42    0.95
  -5   1 -10   12.39    1.03
  -6   1 -10    2.69    0.61
  -6   1 -10    1.70    0.62
  -7   1 -10    5.64    0.76
  -7   1 -10    5.89    0.84
  -8   1 -10   -0.04    0.62
  -8   1 -10    1.13    0.61
  -9   1 -10    1.62    0.68
  -9   1 -10    1.37    0.66
 -10   1 -10    0.76    0.69
  12   0 -10    1.29    0.94
  11   0 -10   -0.32    0.80
  10   0 -10    0.40    0.77
 -10   0  10   -0.65    0.56
   9   0 -10    0.39    0.72
  -9   0  10    1.22    0.57
   8   0 -10    0.25    0.71
  -8   0  10    0.31    0.54
   7   0 -10    4.16    0.83
  -7   0  10    3.78    0.67
   6   0 -10    3.21    0.73
   5   0 -10   15.23    1.19
   4   0 -10    4.04    0.44
   4   0 -10    3.04    0.68
   3   0 -10   30.93    1.24
   3   0 -10   26.75    1.55
   2   0 -10    7.89    0.84
   2   0 -10    8.37    0.62
   1   0 -10   28.69    1.52
   1   0 -10   29.03    1.26
   0   0 -10    2.03    0.42
   0   0 -10    1.65    0.55
  -1   0 -10   38.09    1.80
  -1   0 -10   34.98    1.55
  -2   0 -10   12.37    0.98
  -2   0 -10   11.98    0.84
  -3   0 -10    6.73    0.69
  -3   0 -10    5.74    0.69
  -4   0 -10   14.07    1.01
  -4   0 -10   15.57    1.06
  -5   0 -10    1.10    0.54
  -5   0 -10    1.85    0.53
  -6   0 -10    6.89    0.81
  -6   0 -10    6.45    0.76
  -7   0 -10    1.46    0.60
  -7   0 -10    2.11    0.66
  -8   0 -10    1.64    0.68
  -8   0 -10    1.38    0.65
  -9   0 -10    0.67    0.65
 -10   0 -10    0.68    0.70
  12  -1 -10    0.15    0.95
  11  -1 -10    0.78    0.90
  10  -1 -10    0.23    0.81
   9  -1 -10    0.94    0.74
  -9   1  10    0.75    0.56
   8  -1 -10    1.44    0.73
  -8   1  10    1.30    0.56
   7  -1 -10    1.68    0.72
  -7   1  10    0.87    0.50
   6  -1 -10    3.61    0.76
   5  -1 -10    0.64    0.36
   5  -1 -10    1.34    0.61
   4  -1 -10    5.95    0.80
   4  -1 -10    6.44    0.56
   3  -1 -10   -0.01    0.38
   3  -1 -10    0.65    0.53
   2  -1 -10    1.32    0.41
   2  -1 -10    1.06    0.56
   1  -1 -10    6.03    0.73
   1  -1 -10    5.92    0.58
   0  -1 -10    0.24    0.47
   0  -1 -10    0.53    0.39
  -1  -1 -10    3.06    0.51
  -1  -1 -10    2.86    0.57
  -2  -1 -10    0.82    0.43
  -2  -1 -10    1.10    0.46
  -3  -1 -10    1.60    0.49
  -3  -1 -10    1.84    0.50
  -4  -1 -10    2.70    0.55
  -4  -1 -10    2.88    0.56
  -5  -1 -10    7.43    0.79
  -5  -1 -10    7.57    0.81
  -6  -1 -10    4.64    0.69
  -6  -1 -10    3.02    0.64
  -7  -1 -10   -0.05    0.53
  -8  -1 -10   -0.08    0.60
  -9  -1 -10    0.11    0.69
 -10  -1 -10    0.82    0.76
  12  -2 -10    1.68    0.96
  11  -2 -10    0.39    0.86
  10  -2 -10    1.54    0.84
   9  -2 -10   -0.10    0.75
   8  -2 -10    1.62    0.73
  -8   2  10    1.08    0.54
   7  -2 -10    0.53    0.65
   6  -2 -10    5.57    0.86
   5  -2 -10    3.16    0.49
   5  -2 -10    3.51    0.71
   4  -2 -10   19.52    1.25
   4  -2 -10   17.91    1.01
   3  -2 -10   15.16    0.90
   3  -2 -10   16.95    1.12
   2  -2 -10   16.37    0.89
   2  -2 -10   13.57    1.08
   1  -2 -10   26.03    1.43
   1  -2 -10   25.93    1.23
   0  -2 -10    1.94    0.54
   0  -2 -10    3.22    0.51
  -1  -2 -10   28.68    1.39
  -1  -2 -10   31.19    1.53
  -2  -2 -10    4.29    0.60
  -2  -2 -10    3.40    0.57
  -3  -2 -10    5.07    0.65
  -3  -2 -10    5.19    0.63
  -4  -2 -10    2.57    0.55
  -4  -2 -10    2.40    0.57
  -5  -2 -10    0.28    0.51
  -6  -2 -10    5.02    0.75
  -7  -2 -10    1.89    0.65
  -8  -2 -10    0.90    0.64
  -9  -2 -10    1.20    0.77
 -10  -2 -10   -0.12    0.75
  11  -3 -10    0.83    0.89
  10  -3 -10   -1.06    0.75
   9  -3 -10    2.29    0.88
   8  -3 -10    0.44    0.75
   7  -3 -10    3.57    0.83
   6  -3 -10    0.68    0.65
   5  -3 -10    2.54    0.49
   5  -3 -10    2.62    0.68
   4  -3 -10    0.44    0.43
   4  -3 -10    0.28    0.59
   3  -3 -10    6.68    0.81
   3  -3 -10    7.82    0.70
   2  -3 -10    1.19    0.48
   2  -3 -10    0.61    0.51
   1  -3 -10   21.32    1.13
   1  -3 -10   22.00    1.26
   0  -3 -10    0.73    0.47
   0  -3 -10    1.38    0.49
  -1  -3 -10   12.84    0.91
  -1  -3 -10   12.68    0.90
  -2  -3 -10    1.40    0.51
  -2  -3 -10    1.05    0.44
  -3  -3 -10    9.99    0.86
  -4  -3 -10    1.65    0.56
  -5  -3 -10    7.57    0.82
  -6  -3 -10   -0.08    0.55
  -7  -3 -10    0.28    0.63
  -8  -3 -10    0.96    0.67
  -9  -3 -10    0.53    0.71
  11  -4 -10    2.05    0.96
  10  -4 -10    2.85    0.94
   9  -4 -10    1.88    0.89
   8  -4 -10    0.88    0.77
   7  -4 -10    2.59    0.80
   6  -4 -10    7.02    0.72
   6  -4 -10    6.04    0.92
   5  -4 -10    2.01    0.55
   5  -4 -10    3.12    0.74
   4  -4 -10    1.96    0.65
   4  -4 -10    1.74    0.53
   3  -4 -10    8.09    0.78
   3  -4 -10    9.41    0.92
   2  -4 -10    0.77    0.47
   2  -4 -10    0.85    0.52
   1  -4 -10    5.76    0.71
   1  -4 -10    7.28    0.77
   0  -4 -10    4.90    0.66
  -1  -4 -10   10.35    0.87
  -2  -4 -10    2.29    0.57
  -3  -4 -10   10.69    0.93
  -4  -4 -10    0.68    0.56
  -5  -4 -10    1.63    0.63
  -6  -4 -10    1.66    0.65
  -7  -4 -10   -0.27    0.60
  -8  -4 -10    1.07    0.70
  10  -5 -10    0.89    0.93
   9  -5 -10    0.59    0.85
   8  -5 -10    0.64    0.78
   7  -5 -10    0.57    0.73
   6  -5 -10    2.02    0.58
   6  -5 -10    2.73    0.80
   5  -5 -10    0.25    0.64
   5  -5 -10    0.26    0.52
   4  -5 -10    0.85    0.55
   4  -5 -10    1.41    0.66
   3  -5 -10   -0.23    0.48
   3  -5 -10   -0.21    0.52
   2  -5 -10    2.80    0.63
   1  -5 -10   -0.13    0.48
   0  -5 -10    2.57    0.61
  -1  -5 -10    0.85    0.53
  -2  -5 -10    0.56    0.54
  -3  -5 -10    3.18    0.67
  -4  -5 -10    0.22    0.56
  -5  -5 -10    2.46    0.70
  -6  -5 -10    0.29    0.62
  -7  -5 -10    0.09    0.68
  -8  -5 -10    0.25    0.74
   9  -6 -10    1.54    0.85
   8  -6 -10    0.67    0.82
   7  -6 -10   10.67    1.21
   6  -6 -10    0.41    0.58
   6  -6 -10    0.58    0.71
   5  -6 -10   10.36    0.95
   4  -6 -10    0.83    0.57
   3  -6 -10    1.65    0.60
   2  -6 -10    5.76    0.77
   1  -6 -10    7.39    0.84
   0  -6 -10    2.30    0.63
  -1  -6 -10    1.82    0.62
  -2  -6 -10    1.41    0.61
  -3  -6 -10    0.27    0.61
  -4  -6 -10    1.06    0.68
  -5  -6 -10    2.16    0.71
  -6  -6 -10    1.19    0.70
  -7  -6 -10    1.30    0.75
   6  -7 -10    1.68    0.65
   5  -7 -10    3.44    0.73
   4  -7 -10    0.36    0.63
   3  -7 -10    4.64    0.80
   2  -7 -10   -0.50    0.56
   1  -7 -10    9.66    0.98
   0  -7 -10    2.56    0.68
  -1  -7 -10    6.51    0.88
  -2  -7 -10    2.51    0.70
  -3  -7 -10    7.39    0.93
  -4  -7 -10    0.92    0.69
  -5  -7 -10    0.06    0.67
  -6  -7 -10   -0.03    0.74
   6  -8 -10   -0.28    0.65
   5  -8 -10    1.97    0.74
   4  -8 -10    0.83    0.69
   3  -8 -10   -0.12    0.64
   2  -8 -10   -0.22    0.60
   1  -8 -10    2.35    0.73
   0  -8 -10    0.78    0.66
  -1  -8 -10    7.92    0.99
  -2  -8 -10    2.47    0.75
  -3  -8 -10    4.92    0.87
  -4  -8 -10    0.66    0.71
   5  -9 -10    0.41    0.73
   4  -9 -10   -0.04    0.72
   3  -9 -10    0.01    0.67
   2  -9 -10    0.96    0.67
   1  -9 -10   -0.34    0.66
   0  -9 -10    0.22    0.69
  -1  -9 -10    0.39    0.75
  -2  -9 -10   -0.10    0.67
  -3 -13  11    5.38    0.94
   0 -13  11    0.16    0.74
   1 -13  11   11.47    1.18
   2 -13  11    4.42    0.96
  -3  13 -11    3.75    0.88
   3 -13  11    2.96    0.94
  -4  13 -11    2.29    0.87
   4 -13  11    2.71    0.89
  -5 -12  11    3.45    0.93
  -4 -12  11    0.48    0.76
  -3 -12  11    1.49    0.76
  -2 -12  11   -0.14    0.65
  -1 -12  11    4.90    0.82
   0  12 -11    0.22    0.65
   0 -12  11    0.16    0.68
  -1  12 -11   14.36    1.23
   1 -12  11   13.32    1.21
  -2  12 -11    1.04    0.72
   2 -12  11    1.12    0.76
  -3  12 -11   13.07    1.29
   3 -12  11   13.49    1.25
  -4  12 -11    0.06    0.67
   4 -12  11    0.52    0.75
  -5  12 -11    5.76    1.04
   5 -12  11    6.58    1.05
  -6  12 -11    1.25    0.86
   6 -12  11    0.47    0.87
  -7 -11  11    0.29    0.78
  -6 -11  11    0.08    0.79
  -5 -11  11    4.32    0.89
  -4 -11  11    1.10    0.75
  -3 -11  11    2.74    0.77
   2  11 -11    6.16    0.94
  -2 -11  11    4.14    0.84
   1  11 -11    8.04    1.00
  -1 -11  11    6.23    0.87
   0  11 -11    4.04    0.87
   0 -11  11    5.45    0.83
   0 -11  11    6.06    0.81
  -1  11 -11    3.34    0.80
   1 -11  11    3.75    0.79
  -2  11 -11    8.92    1.04
   2 -11  11    9.57    1.01
  -3  11 -11    4.80    0.88
   3 -11  11    5.77    0.86
  -4  11 -11    2.20    0.81
   4 -11  11    2.57    0.78
  -5  11 -11    1.20    0.78
   5 -11  11    0.62    0.78
  -6  11 -11    1.11    0.83
   6 -11  11    1.93    0.82
  -7  11 -11    1.35    0.83
   7 -11  11    0.60    0.79
  -8 -10  11    0.41    0.80
  -7 -10  11    0.48    0.74
  -6 -10  11    1.25    0.76
  -5 -10  11    0.48    0.70
   4  10 -11    2.51    0.79
  -4 -10  11    1.74    0.70
   3  10 -11   -0.56    0.63
  -3 -10  11   -0.42    0.57
   2  10 -11    5.05    0.87
  -2 -10  11    5.13    0.81
   1  10 -11    0.91    0.70
  -1 -10  11    0.21    0.53
  -1 -10  11    0.10    0.57
   0  10 -11    7.45    0.97
   0 -10  11    9.49    0.92
   0 -10  11    8.65    0.90
  -1  10 -11    1.11    0.67
   1 -10  11    1.16    0.60
   1 -10  11    0.94    0.59
  -2  10 -11   11.20    1.13
   2 -10  11   10.31    1.01
  -3  10 -11    2.14    0.76
   3 -10  11    1.45    0.65
  -4  10 -11    2.42    0.78
   4 -10  11    3.05    0.74
  -5  10 -11    5.19    0.92
   5 -10  11    4.07    0.83
  -6  10 -11    0.57    0.79
   6 -10  11    1.51    0.74
  -7  10 -11    1.68    0.89
   7 -10  11    0.91    0.79
  -8  10 -11   -0.68    0.78
   8 -10  11    1.28    0.79
  -9  -9  11    1.55    0.90
  -8  -9  11    1.49    0.83
   7   9 -11    0.66    0.83
  -7  -9  11    2.88    0.87
   6   9 -11    1.47    0.78
  -6  -9  11    2.35    0.78
   5   9 -11    4.91    0.90
  -5  -9  11    5.71    0.91
   4   9 -11    2.67    0.77
  -4  -9  11    1.32    0.66
   3   9 -11   11.52    1.16
  -3  -9  11   13.17    1.07
   2   9 -11    2.87    0.76
  -2  -9  11    3.07    0.66
   1   9 -11    8.66    0.99
  -1  -9  11   10.15    0.93
  -1  -9  11   10.15    0.86
   0   9 -11    0.30    0.67
   0  -9  11    0.32    0.51
   0  -9  11    0.72    0.54
  -1   9 -11    6.96    0.95
   1  -9  11    7.95    0.83
   1  -9  11    6.60    0.76
  -2   9 -11    2.29    0.77
   2  -9  11    2.61    0.63
  -3   9 -11    7.08    0.95
   3  -9  11    6.64    0.83
  -4   9 -11    2.79    0.78
   4  -9  11    3.00    0.69
  -5   9 -11    4.65    0.91
   5  -9  11    4.40    0.80
  -6   9 -11    0.26    0.70
   6  -9  11    0.14    0.69
  -7   9 -11    0.54    0.76
   7  -9  11    2.47    0.82
  -8   9 -11    2.83    0.94
   8  -9  11    4.50    0.89
  -9   9 -11    1.02    0.96
   9  -9  11    1.28    0.80
   9   8 -11   -0.17    0.88
  -9  -8  11    0.92    0.82
   8   8 -11    1.04    0.89
  -8  -8  11    1.09    0.77
   7   8 -11    8.97    1.15
  -7  -8  11    8.66    1.10
   6   8 -11    0.69    0.75
  -6  -8  11   -0.12    0.63
   5   8 -11   15.29    1.32
  -5  -8  11   15.25    1.21
   4   8 -11    0.68    0.65
  -4  -8  11    1.19    0.62
  -3  -8  11   21.96    1.34
   2   8 -11    0.73    0.65
  -2  -8  11    1.52    0.56
  -2  -8  11    1.60    0.49
   1   8 -11   22.71    1.45
  -1  -8  11   20.18    1.13
  -1  -8  11   21.36    1.28
   0   8 -11    1.51    0.66
   0  -8  11    1.26    0.50
   0  -8  11    0.61    0.50
  -1   8 -11   29.84    1.80
   1  -8  11   29.70    1.45
   1  -8  11   31.70    1.56
  -2   8 -11    3.44    0.78
   2  -8  11    3.68    0.62
  -3   8 -11   16.90    1.32
   3  -8  11   14.18    1.02
  -4   8 -11    4.96    0.86
  -5   8 -11    4.64    0.87
  -6   8 -11    5.58    0.93
  -7   8 -11    3.03    0.91
  -8   8 -11    1.41    0.86
  -9   8 -11    1.65    0.85
  10   7 -11   -0.49    0.91
 -10  -7  11    0.81    0.80
   9   7 -11    1.78    0.95
  -9  -7  11    1.89    0.87
   8   7 -11   -0.25    0.82
  -8  -7  11    0.30    0.73
   7   7 -11    0.66    0.75
  -7  -7  11    0.89    0.68
   6   7 -11    3.66    0.83
  -6  -7  11    2.71    0.73
   5   7 -11    2.12    0.73
  -5  -7  11    1.57    0.62
   4   7 -11    5.31    0.84
  -4  -7  11    2.31    0.64
   3   7 -11    8.84    0.96
  -3  -7  11    8.15    0.88
   2   7 -11    0.73    0.58
  -2  -7  11    0.64    0.40
  -2  -7  11    0.21    0.47
   1   7 -11   15.16    1.19
  -1  -7  11   15.95    1.08
  -1  -7  11   17.50    1.00
   0   7 -11   25.42    1.54
   0  -7  11   25.87    1.40
  -1   7 -11   40.39    2.05
   1  -7  11   37.91    1.81
  -2   7 -11   12.37    1.16
   2  -7  11   12.69    0.92
  -3   7 -11    7.88    1.00
  -4   7 -11   13.48    1.22
  -5   7 -11    1.90    0.73
  -6   7 -11    5.81    0.96
  -7   7 -11    2.46    0.81
  -8   7 -11    0.67    0.77
  -9   7 -11    0.35    0.75
 -10   7 -11   -0.43    0.81
  11   6 -11    0.90    0.95
 -11  -6  11   -0.37    0.80
  10   6 -11    1.11    0.95
 -10  -6  11    0.76    0.85
   9   6 -11    0.07    0.85
  -9  -6  11   -0.13    0.69
   8   6 -11    1.46    0.82
  -8  -6  11    0.90    0.69
   7   6 -11    0.60    0.72
  -7  -6  11    0.98    0.65
   6   6 -11    4.20    0.88
  -6  -6  11    3.32    0.71
   5   6 -11    0.45    0.66
  -5  -6  11    1.76    0.61
   4   6 -11    8.09    0.93
  -4  -6  11    5.80    0.77
   3   6 -11    5.06    0.78
  -3  -6  11    5.36    0.74
   2   6 -11    9.39    0.92
  -2  -6  11    5.45    0.73
   1   6 -11    1.26    0.59
  -1  -6  11    0.41    0.51
   0   6 -11    1.45    0.60
   0  -6  11    1.56    0.51
  -1   6 -11    3.05    0.67
  -2   6 -11   14.28    1.18
  -3   6 -11   -0.08    0.59
  -4   6 -11   23.38    1.53
  -5   6 -11    2.90    0.76
  -6   6 -11    2.59    0.83
  -7   6 -11    0.05    0.67
  -8   6 -11    2.91    0.87
  -9   6 -11   -0.20    0.74
 -10   6 -11   -0.90    0.77
  11   5 -11   -0.05    0.94
 -11  -5  11    0.53    0.76
  10   5 -11    0.66    0.94
 -10  -5  11    1.48    0.83
   9   5 -11   -0.32    0.79
  -9  -5  11    0.02    0.67
   8   5 -11    1.51    0.87
  -8  -5  11    1.32    0.69
   7   5 -11    0.54    0.76
  -7  -5  11    0.41    0.59
   6   5 -11    3.83    0.82
  -6  -5  11    3.33    0.73
   5   5 -11    3.73    0.77
  -5  -5  11    2.06    0.60
   4   5 -11    5.24    0.80
  -4  -5  11    4.36    0.70
   3   5 -11    8.62    0.93
  -3  -5  11    7.58    0.84
   2   5 -11    0.78    0.56
  -2  -5  11    1.37    0.52
   1   5 -11   24.96    1.48
   0   5 -11   -0.12    0.53
  -1   5 -11   33.22    1.78
  -2   5 -11    1.11    0.60
  -3   5 -11    4.68    0.76
  -4   5 -11    2.26    0.68
  -5   5 -11    6.63    0.91
  -6   5 -11    2.84    0.78
  -7   5 -11    2.67    0.82
  -8   5 -11    1.45    0.79
  -9   5 -11    1.76    0.85
 -10   5 -11    0.16    0.79
  11   4 -11    0.77    0.97
 -11  -4  11    0.89    0.77
  10   4 -11    0.94    0.97
 -10  -4  11    1.17    0.72
   9   4 -11    1.54    0.88
  -9  -4  11    3.55    0.82
   8   4 -11    0.61    0.76
  -8  -4  11    0.04    0.60
   7   4 -11    1.63    0.76
  -7  -4  11    3.38    0.70
   6   4 -11    5.73    0.93
  -6  -4  11    6.65    0.80
   5   4 -11    5.93    0.85
  -5  -4  11    7.86    0.84
   4   4 -11   10.73    1.04
  -4  -4  11   10.92    0.95
   3   4 -11   30.10    1.63
  -3  -4  11   27.78    1.51
   2   4 -11    9.04    0.92
   1   4 -11   13.97    1.10
   0   4 -11   27.07    1.55
  -1   4 -11   12.30    1.05
  -2   4 -11    2.10    0.63
  -3   4 -11    8.15    0.90
  -4   4 -11    1.12    0.61
  -5   4 -11    8.83    0.98
  -6   4 -11    0.32    0.61
  -7   4 -11    5.85    0.93
  -8   4 -11    3.20    0.84
  -9   4 -11    2.68    0.87
 -10   4 -11    0.97    0.75
  11   3 -11    1.66    1.03
 -11  -3  11    2.17    0.79
  10   3 -11    2.00    0.95
 -10  -3  11    2.05    0.74
   9   3 -11    3.15    0.92
  -9  -3  11    1.91    0.69
   8   3 -11    7.40    1.07
  -8  -3  11    8.53    0.94
   7   3 -11    7.82    1.05
  -7  -3  11    7.67    0.87
   6   3 -11   17.80    1.32
  -6  -3  11   15.48    1.17
   5   3 -11   18.92    1.36
  -5  -3  11   22.33    1.30
   4   3 -11    7.40    0.89
   3   3 -11   18.88    1.28
   2   3 -11   31.42    1.69
   1   3 -11    6.19    0.80
   1   3 -11    5.90    0.55
   0   3 -11   65.60    2.88
   0   3 -11   64.17    2.43
  -1   3 -11    1.25    0.59
  -1   3 -11    1.99    0.44
  -2   3 -11   33.20    1.76
  -2   3 -11   33.05    1.48
  -3   3 -11   13.19    1.09
  -3   3 -11   13.14    0.91
  -4   3 -11   13.55    0.95
  -4   3 -11   13.42    1.11
  -5   3 -11    0.56    0.56
  -5   3 -11    0.72    0.48
  -6   3 -11    5.23    0.86
  -7   3 -11    0.05    0.65
  -8   3 -11    1.85    0.79
  -9   3 -11    0.30    0.76
 -10   3 -11    0.90    0.78
  12   2 -11    1.98    1.07
  11   2 -11    0.46    0.91
 -11  -2  11    0.22    0.72
  10   2 -11    2.38    0.97
 -10  -2  11    1.26    0.74
   9   2 -11    0.00    0.74
  -9  -2  11    0.47    0.58
   8   2 -11    1.98    0.84
  -8  -2  11    1.71    0.64
   7   2 -11    6.35    0.98
  -7  -2  11    5.36    0.80
   6   2 -11    0.58    0.67
  -6  -2  11    0.64    0.57
   5   2 -11    0.12    0.59
  -5  -2  11    0.81    0.54
   4   2 -11    2.11    0.63
   3   2 -11    6.21    0.51
   3   2 -11    5.97    0.79
   2   2 -11    0.65    0.34
   2   2 -11    0.42    0.56
   1   2 -11   12.17    0.78
   1   2 -11   12.30    1.01
   0   2 -11   13.20    0.83
   0   2 -11   12.26    1.02
  -1   2 -11    1.68    0.45
  -1   2 -11    2.10    0.59
  -2   2 -11   24.03    1.40
  -2   2 -11   23.18    1.22
  -3   2 -11    0.30    0.52
  -3   2 -11    0.65    0.47
  -4   2 -11   25.46    1.35
  -4   2 -11   27.22    1.58
  -5   2 -11    1.74    0.54
  -5   2 -11    0.67    0.54
  -6   2 -11    5.95    0.78
  -6   2 -11    6.77    0.90
  -7   2 -11    0.10    0.52
  -7   2 -11    0.70    0.63
  -8   2 -11    0.32    0.59
  -8   2 -11    0.26    0.68
  -9   2 -11    1.46    0.72
 -10   2 -11    0.69    0.74
  12   1 -11    2.23    1.06
  11   1 -11    0.64    0.98
 -11  -1  11    0.67    0.71
  10   1 -11    2.06    0.90
 -10  -1  11    2.25    0.73
   9   1 -11    0.86    0.79
  -9  -1  11    1.29    0.64
   8   1 -11    3.01    0.84
  -8  -1  11    3.42    0.71
   7   1 -11    1.06    0.72
  -7  -1  11    0.40    0.54
   6   1 -11    7.47    0.96
  -6  -1  11    4.62    0.72
   5   1 -11    5.14    0.83
   4   1 -11    1.63    0.62
   4   1 -11    2.38    0.37
   3   1 -11   10.53    0.99
   3   1 -11   10.17    0.69
   2   1 -11    1.64    0.41
   2   1 -11    1.70    0.60
   1   1 -11   29.12    1.31
   1   1 -11   29.67    1.59
   0   1 -11    5.71    0.76
   0   1 -11    6.38    0.61
  -1   1 -11   23.72    1.45
  -1   1 -11   26.88    1.23
  -2   1 -11    2.64    0.60
  -2   1 -11    2.49    0.51
  -3   1 -11   15.20    1.09
  -3   1 -11   13.05    0.93
  -4   1 -11    0.40    0.47
  -4   1 -11    0.43    0.51
  -5   1 -11    1.01    0.58
  -5   1 -11   -0.14    0.52
  -6   1 -11    2.08    0.67
  -6   1 -11    1.66    0.59
  -7   1 -11    0.89    0.60
  -7   1 -11    1.04    0.65
  -8   1 -11   -0.88    0.56
  -8   1 -11    0.45    0.65
  -9   1 -11    2.26    0.74
  -9   1 -11    1.56    0.73
  11   0 -11    0.43    0.93
  10   0 -11   -0.01    0.81
 -10   0  11    0.00    0.61
   9   0 -11    2.71    0.89
  -9   0  11    2.33    0.66
   8   0 -11    0.99    0.76
  -8   0  11    1.31    0.60
   7   0 -11   13.72    1.29
  -7   0  11   16.30    1.12
   6   0 -11    1.90    0.74
   4   0 -11    7.40    0.87
   4   0 -11    7.66    0.59
   3   0 -11   13.39    1.07
   3   0 -11   13.36    0.79
   2   0 -11   34.53    1.46
   2   0 -11   34.54    1.78
   1   0 -11    5.63    0.77
   1   0 -11    5.51    0.58
   0   0 -11   10.83    0.95
   0   0 -11    9.85    0.75
  -1   0 -11    0.41    0.42
  -1   0 -11    0.52    0.52
  -2   0 -11    6.38    0.66
  -2   0 -11    6.97    0.79
  -3   0 -11    1.00    0.48
  -3   0 -11    1.96    0.58
  -4   0 -11    3.69    0.62
  -4   0 -11    3.55    0.67
  -5   0 -11    0.03    0.49
  -5   0 -11    0.87    0.55
  -6   0 -11    5.77    0.78
  -6   0 -11    6.13    0.83
  -7   0 -11   -0.09    0.62
  -7   0 -11    0.80    0.65
  -8   0 -11    1.65    0.72
  -8   0 -11    0.89    0.68
  -9   0 -11    1.29    0.70
 -10   0 -11    1.65    0.79
  11  -1 -11   -0.45    0.83
  10  -1 -11    0.00    0.87
   9  -1 -11    0.09    0.81
  -9   1  11    0.08    0.57
   8  -1 -11    1.60    0.78
  -8   1  11    3.15    0.69
   7  -1 -11    2.72    0.79
  -7   1  11    1.72    0.60
   6  -1 -11    0.72    0.71
   5  -1 -11    1.72    0.73
   4  -1 -11    2.06    0.44
   4  -1 -11    2.00    0.64
   3  -1 -11   12.41    1.04
   3  -1 -11   13.56    0.84
   2  -1 -11    1.90    0.58
   2  -1 -11    1.40    0.44
   1  -1 -11   24.80    1.42
   1  -1 -11   23.23    1.16
   0  -1 -11   17.29    1.17
   0  -1 -11   18.81    1.02
  -1  -1 -11   32.94    1.71
  -1  -1 -11   35.52    1.55
  -2  -1 -11   14.96    1.09
  -2  -1 -11   17.46    1.02
  -3  -1 -11    7.09    0.76
  -3  -1 -11    6.29    0.69
  -4  -1 -11   21.55    1.24
  -4  -1 -11   21.78    1.32
  -5  -1 -11    0.64    0.52
  -5  -1 -11    0.38    0.51
  -6  -1 -11   12.94    1.06
  -6  -1 -11   13.06    1.06
  -7  -1 -11    0.03    0.57
  -8  -1 -11    1.27    0.69
  -9  -1 -11   -0.04    0.68
  11  -2 -11    0.98    0.92
  10  -2 -11    0.38    0.83
   9  -2 -11    0.72    0.80
   8  -2 -11    0.87    0.77
  -8   2  11    2.30    0.64
   7  -2 -11    1.11    0.77
   6  -2 -11    3.03    0.79
   5  -2 -11    1.23    0.67
   5  -2 -11    1.78    0.47
   4  -2 -11    5.73    0.82
   4  -2 -11    6.77    0.65
   3  -2 -11    0.56    0.55
   3  -2 -11    0.93    0.44
   2  -2 -11    4.52    0.59
   2  -2 -11    5.23    0.76
   1  -2 -11    0.79    0.55
   1  -2 -11    0.86    0.46
   0  -2 -11    6.37    0.69
   0  -2 -11    7.77    0.80
  -1  -2 -11    3.57    0.59
  -1  -2 -11    4.30    0.66
  -2  -2 -11    5.01    0.66
  -2  -2 -11    4.52    0.65
  -3  -2 -11    0.42    0.48
  -3  -2 -11    0.56    0.51
  -4  -2 -11    3.55    0.65
  -5  -2 -11    1.56    0.58
  -6  -2 -11    0.10    0.55
  -7  -2 -11    0.74    0.63
  -8  -2 -11    1.35    0.69
  -9  -2 -11    0.23    0.69
  11  -3 -11    0.01    0.87
  10  -3 -11    0.98    0.92
   9  -3 -11    0.70    0.87
   8  -3 -11    2.37    0.89
   7  -3 -11    0.07    0.68
   6  -3 -11    3.71    0.86
   5  -3 -11    2.01    0.71
   5  -3 -11    1.66    0.52
   4  -3 -11    0.55    0.47
   4  -3 -11    0.51    0.62
   3  -3 -11    1.16    0.61
   3  -3 -11    0.55    0.45
   2  -3 -11    0.44    0.44
   2  -3 -11   -0.13    0.53
   1  -3 -11    0.32    0.47
   1  -3 -11    0.23    0.54
   0  -3 -11    2.54    0.56
   0  -3 -11    0.66    0.48
  -1  -3 -11    0.07    0.46
  -1  -3 -11   -0.25    0.43
  -2  -3 -11    1.08    0.52
  -3  -3 -11    1.86    0.58
  -4  -3 -11    0.93    0.57
  -5  -3 -11    1.54    0.61
  -6  -3 -11    1.36    0.64
  -7  -3 -11    0.20    0.64
  -8  -3 -11    0.52    0.69
  10  -4 -11   -0.33    0.88
   9  -4 -11    0.75    0.87
   8  -4 -11    0.18    0.76
   7  -4 -11    2.41    0.85
   6  -4 -11    3.39    0.85
   5  -4 -11    7.38    0.75
   5  -4 -11    8.47    1.02
   4  -4 -11    5.94    0.87
   4  -4 -11    5.71    0.70
   3  -4 -11    3.72    0.75
   3  -4 -11    4.05    0.63
   2  -4 -11   21.32    1.21
   2  -4 -11   23.59    1.39
   1  -4 -11    2.12    0.59
   0  -4 -11   15.84    1.05
  -1  -4 -11    0.47    0.50
  -2  -4 -11    1.17    0.55
  -3  -4 -11    0.48    0.58
  -4  -4 -11   -0.03    0.56
  -5  -4 -11    2.42    0.68
  -6  -4 -11   -0.14    0.59
  -7  -4 -11    0.87    0.67
  -8  -4 -11   -0.73    0.67
   9  -5 -11    3.46    1.02
   8  -5 -11    0.54    0.79
   7  -5 -11    3.72    0.92
   6  -5 -11    1.10    0.78
   5  -5 -11    5.24    0.72
   5  -5 -11    6.15    0.92
   4  -5 -11    5.43    0.85
   4  -5 -11    6.07    0.76
   3  -5 -11    3.21    0.64
   2  -5 -11   21.24    1.27
   1  -5 -11   11.22    0.96
   0  -5 -11    8.03    0.84
  -1  -5 -11    0.51    0.55
  -2  -5 -11    5.23    0.77
  -3  -5 -11   -0.83    0.53
  -4  -5 -11    2.57    0.73
  -5  -5 -11    0.65    0.64
  -6  -5 -11    0.04    0.65
  -7  -5 -11   -0.07    0.71
   9  -6 -11    0.71    0.92
   8  -6 -11    2.22    0.92
   7  -6 -11    1.56    0.84
   6  -6 -11    0.71    0.62
   5  -6 -11    0.28    0.61
   4  -6 -11    0.55    0.60
   3  -6 -11    0.73    0.57
   2  -6 -11    8.00    0.87
   1  -6 -11    0.45    0.58
   0  -6 -11    3.18    0.68
  -1  -6 -11    0.64    0.61
  -2  -6 -11   -0.04    0.61
  -3  -6 -11    0.96    0.64
  -4  -6 -11    0.90    0.67
  -5  -6 -11   -0.19    0.64
  -6  -6 -11    4.28    0.87
   6  -7 -11    0.65    0.68
   5  -7 -11    0.64    0.62
   4  -7 -11    0.19    0.60
   3  -7 -11   -0.18    0.62
   2  -7 -11   -0.58    0.61
   1  -7 -11    0.89    0.63
   0  -7 -11   -0.68    0.59
  -1  -7 -11    1.67    0.68
  -2  -7 -11   -0.17    0.62
  -3  -7 -11    0.64    0.65
  -4  -7 -11    0.25    0.68
   6  -8 -11   -0.32    0.69
   5  -8 -11    0.98    0.74
   4  -8 -11    0.87    0.67
   3  -8 -11    0.30    0.69
   2  -8 -11    5.81    0.93
   1  -8 -11    1.16    0.70
   0  -8 -11    2.81    0.79
  -1  -8 -11    0.29    0.67
  -2  -8 -11    0.59    0.68
   1 -13  12    0.37    0.77
   2 -13  12    1.85    0.87
  -3  13 -12    0.47    0.76
   3 -13  12    0.33    0.79
  -5 -12  12    3.68    0.96
  -4 -12  12    0.18    0.71
  -3 -12  12    0.59    0.69
  -2 -12  12    2.31    0.78
  -1 -12  12    2.63    0.78
   0  12 -12    1.61    0.81
   0 -12  12    0.20    0.70
  -1  12 -12    4.14    0.87
   1 -12  12    4.46    0.89
  -2  12 -12    0.75    0.76
   2 -12  12    0.91    0.77
  -3  12 -12    1.97    0.79
   3 -12  12    3.42    0.85
  -4  12 -12    1.47    0.82
   4 -12  12    1.77    0.86
  -5  12 -12    3.36    0.92
   5 -12  12    2.29    0.88
  -6 -11  12    2.52    0.89
  -5 -11  12    1.19    0.78
  -4 -11  12    3.14    0.83
   3  11 -12    1.99    0.81
  -3 -11  12    1.71    0.77
   2  11 -12    1.92    0.82
  -2 -11  12    3.18    0.75
   1  11 -12    2.43    0.77
  -1 -11  12    0.11    0.64
   0  11 -12    6.82    1.02
   0 -11  12    6.62    0.87
   0 -11  12    6.51    0.87
  -1  11 -12    3.95    0.88
   1 -11  12    5.49    0.86
  -2  11 -12    1.39    0.78
   2 -11  12    1.42    0.74
  -3  11 -12    1.60    0.76
   3 -11  12    0.27    0.72
  -4  11 -12    0.89    0.74
   4 -11  12    0.72    0.74
  -5  11 -12    4.05    0.90
   5 -11  12    2.57    0.83
  -6  11 -12   -0.08    0.75
   6 -11  12    0.08    0.77
  -7 -10  12    2.31    0.86
  -6 -10  12    4.56    0.94
   5  10 -12    0.67    0.78
  -5 -10  12   -0.02    0.68
   4  10 -12    7.70    1.06
  -4 -10  12    7.71    1.00
   3  10 -12    0.08    0.68
  -3 -10  12    0.14    0.67
   2  10 -12   11.29    1.17
  -2 -10  12   11.58    1.10
   1  10 -12    1.19    0.77
  -1 -10  12    1.70    0.67
   0  10 -12   24.46    1.61
   0 -10  12   22.61    1.36
   0 -10  12   25.39    1.45
  -1  10 -12    0.29    0.66
   1 -10  12   -0.12    0.59
   1 -10  12   -0.43    0.52
  -2  10 -12   10.73    1.18
   2 -10  12   11.15    1.00
  -3  10 -12   -0.25    0.67
   3 -10  12   -0.13    0.60
  -4  10 -12    6.85    1.06
   4 -10  12    7.09    0.96
  -5  10 -12    0.15    0.72
   5 -10  12    0.73    0.75
  -6  10 -12    7.30    1.14
   6 -10  12    4.61    0.92
  -7  10 -12    1.29    0.84
   7 -10  12    1.23    0.83
  -8  -9  12    1.57    0.84
   7   9 -12    0.07    0.85
  -7  -9  12   -0.69    0.70
   6   9 -12    4.67    1.00
  -6  -9  12    6.49    0.99
   5   9 -12    1.47    0.80
  -5  -9  12    2.29    0.79
   4   9 -12    8.69    1.09
  -4  -9  12    8.87    1.01
   3   9 -12    0.37    0.72
  -3  -9  12    0.25    0.59
   2   9 -12   15.22    1.24
  -2  -9  12   13.33    1.07
   1   9 -12    2.80    0.75
  -1  -9  12    0.70    0.55
  -1  -9  12    2.17    0.58
   0   9 -12   13.62    1.28
   0  -9  12   14.78    1.09
   0  -9  12   15.41    1.04
  -1   9 -12    3.96    0.83
   1  -9  12    3.61    0.66
   1  -9  12    3.99    0.67
  -2   9 -12    9.45    1.11
   2  -9  12   10.13    0.88
   2  -9  12    8.32    0.87
  -3   9 -12    3.49    0.81
   3  -9  12    3.48    0.74
  -4   9 -12    0.59    0.71
   4  -9  12    2.24    0.68
  -5   9 -12    2.09    0.81
   5  -9  12    2.19    0.72
  -6   9 -12    0.88    0.76
  -7   9 -12    1.41    0.85
  -8   9 -12    2.37    0.96
   8  -9  12    1.15    0.83
   9   8 -12    2.73    1.04
  -9  -8  12    0.81    0.82
   8   8 -12    0.92    0.93
  -8  -8  12   -0.83    0.67
   7   8 -12    3.10    0.94
  -7  -8  12    3.58    0.84
   6   8 -12   -0.04    0.75
  -6  -8  12    0.53    0.64
   5   8 -12    4.02    0.86
  -5  -8  12    2.93    0.77
   4   8 -12   -0.29    0.70
  -4  -8  12    0.19    0.56
   3   8 -12    4.48    0.83
  -3  -8  12    3.54    0.71
   2   8 -12    0.41    0.63
  -2  -8  12    0.67    0.55
   1   8 -12    7.53    0.93
  -1  -8  12    5.18    0.76
  -1  -8  12    6.78    0.71
   0   8 -12    0.61    0.66
   0  -8  12    0.44    0.52
   0  -8  12    1.04    0.51
  -1   8 -12    4.84    0.88
   1  -8  12    4.09    0.68
  -2   8 -12   -1.05    0.62
   2  -8  12    0.09    0.51
  -3   8 -12    4.67    0.91
   3  -8  12    6.17    0.75
  -4   8 -12    0.30    0.69
  -5   8 -12   10.67    1.18
  -6   8 -12   -0.36    0.69
  -7   8 -12    5.73    1.05
  -8   8 -12    1.51    0.85
  -9   8 -12    1.56    0.93
  10   7 -12    0.82    1.01
 -10  -7  12    0.48    0.85
   9   7 -12   -0.44    0.93
  -9  -7  12    0.59    0.77
   8   7 -12    0.80    0.84
  -8  -7  12    0.67    0.75
   7   7 -12    2.75    0.93
  -7  -7  12    3.74    0.83
   6   7 -12    1.99    0.84
  -6  -7  12    2.41    0.73
   5   7 -12    2.92    0.82
  -5  -7  12    2.63    0.68
   4   7 -12    9.34    1.08
  -4  -7  12   10.18    0.98
   3   7 -12    5.60    0.88
  -3  -7  12    5.82    0.79
   2   7 -12    3.29    0.80
  -2  -7  12    5.87    0.78
   1   7 -12   10.50    1.06
  -1  -7  12    9.28    0.92
   0   7 -12    3.27    0.74
   0  -7  12    2.50    0.64
  -1   7 -12    4.13    0.80
   1  -7  12    4.72    0.69
  -2   7 -12    7.60    0.98
  -3   7 -12    3.51    0.81
  -4   7 -12    4.48    0.84
  -5   7 -12    2.06    0.73
  -6   7 -12    3.12    0.86
  -7   7 -12    3.22    0.92
  -8   7 -12    1.05    0.84
  -9   7 -12    0.92    0.84
  10   6 -12    0.67    0.93
 -10  -6  12    0.77    0.85
   9   6 -12    0.56    0.93
  -9  -6  12    0.37    0.78
   8   6 -12    0.24    0.84
  -8  -6  12    0.68    0.74
   7   6 -12    4.26    0.95
  -7  -6  12    2.48    0.74
   6   6 -12    8.30    1.10
  -6  -6  12    6.69    0.89
   5   6 -12    2.50    0.81
  -5  -6  12    2.38    0.68
   4   6 -12   26.89    1.64
  -4  -6  12   25.84    1.54
   3   6 -12    3.57    0.76
  -3  -6  12    3.24    0.68
   2   6 -12   25.37    1.57
  -2  -6  12   24.19    1.41
   1   6 -12    0.66    0.63
  -1  -6  12    1.12    0.52
   0   6 -12   28.62    1.67
  -1   6 -12    0.01    0.59
  -2   6 -12   31.51    1.86
  -3   6 -12    2.03    0.72
  -4   6 -12   12.71    1.24
  -5   6 -12    3.54    0.83
  -6   6 -12    7.29    1.06
  -7   6 -12    1.01    0.75
  -8   6 -12    3.14    0.96
  -9   6 -12   -0.32    0.78
  11   5 -12    1.98    1.12
  10   5 -12    1.91    1.03
 -10  -5  12    1.96    0.88
   9   5 -12    1.07    0.88
  -9  -5  12    1.74    0.76
   8   5 -12    1.77    0.91
  -8  -5  12    2.81    0.77
   7   5 -12    2.28    0.85
  -7  -5  12    2.10    0.68
   6   5 -12    5.36    0.96
  -6  -5  12    6.98    0.86
   5   5 -12    1.61    0.72
  -5  -5  12    0.59    0.58
   4   5 -12    3.53    0.82
  -4  -5  12    5.01    0.74
   3   5 -12    1.98    0.71
  -3  -5  12    2.50    0.62
   2   5 -12    2.86    0.72
  -2  -5  12    2.76    0.62
   1   5 -12    7.01    0.88
   0   5 -12   33.44    1.82
  -1   5 -12    0.86    0.63
  -2   5 -12    8.43    1.00
  -3   5 -12    4.12    0.80
  -4   5 -12    6.68    0.96
  -5   5 -12    5.24    0.88
  -6   5 -12    3.46    0.82
  -7   5 -12    0.55    0.74
  -8   5 -12    0.23    0.74
  -9   5 -12    1.02    0.83
 -10   5 -12   -0.70    0.78
  11   4 -12    0.51    0.98
 -11  -4  12   -0.46    0.77
  10   4 -12    2.71    1.08
 -10  -4  12    2.83    0.86
   9   4 -12    0.06    0.83
  -9  -4  12    0.32    0.71
   8   4 -12    2.99    0.91
  -8  -4  12    2.66    0.72
   7   4 -12    4.96    0.94
  -7  -4  12    4.36    0.78
   6   4 -12    1.91    0.76
  -6  -4  12    1.50    0.64
   5   4 -12    4.26    0.83
  -5  -4  12    1.43    0.61
   4   4 -12    4.32    0.80
  -4  -4  12    3.25    0.69
   3   4 -12   11.86    1.10
   2   4 -12   14.18    1.13
   1   4 -12   20.96    1.35
   0   4 -12   22.31    1.43
  -1   4 -12   10.31    1.01
  -2   4 -12   18.66    1.31
  -3   4 -12   14.45    1.19
  -4   4 -12    5.99    0.89
  -5   4 -12    3.12    0.76
  -6   4 -12    0.54    0.66
  -7   4 -12    2.63    0.79
  -8   4 -12    0.69    0.76
  -9   4 -12    1.43    0.83
 -10   4 -12    0.35    0.76
  11   3 -12    0.05    0.97
 -11  -3  12   -0.49    0.72
  10   3 -12    1.20    0.95
 -10  -3  12    2.07    0.75
   9   3 -12    1.85    0.88
  -9  -3  12    0.29    0.62
   8   3 -12    7.57    1.13
  -8  -3  12    7.44    0.92
   7   3 -12    3.84    0.89
  -7  -3  12    1.91    0.69
   6   3 -12    7.54    1.00
  -6  -3  12    8.16    0.91
   5   3 -12    8.02    1.01
  -5  -3  12    6.01    0.81
   4   3 -12    4.71    0.81
   3   3 -12    5.16    0.81
   2   3 -12    8.89    0.94
   2   3 -12    7.51    0.61
   1   3 -12    0.13    0.36
   1   3 -12    0.41    0.58
   0   3 -12    1.71    0.46
   0   3 -12    1.96    0.67
  -1   3 -12    1.43    0.46
  -1   3 -12    0.64    0.60
  -2   3 -12    3.33    0.70
  -2   3 -12    3.34    0.56
  -3   3 -12    2.17    0.68
  -3   3 -12    2.62    0.54
  -4   3 -12    4.75    0.67
  -4   3 -12    4.85    0.80
  -5   3 -12    0.76    0.61
  -5   3 -12    0.90    0.53
  -6   3 -12    4.02    0.83
  -7   3 -12    0.25    0.68
  -8   3 -12    0.65    0.71
  -9   3 -12    1.10    0.82
 -10   3 -12    0.92    0.78
  11   2 -12    1.32    0.98
 -11  -2  12    0.16    0.69
  10   2 -12    1.84    1.02
 -10  -2  12    0.12    0.69
   9   2 -12    2.87    0.96
  -9  -2  12    3.33    0.75
   8   2 -12    1.57    0.84
  -8  -2  12    2.40    0.69
   7   2 -12    1.31    0.76
  -7  -2  12    0.93    0.60
   6   2 -12   13.57    1.27
  -6  -2  12   16.50    1.18
   5   2 -12    1.74    0.70
   4   2 -12   24.77    1.54
   3   2 -12    3.62    0.46
   3   2 -12    3.76    0.76
   2   2 -12   33.04    1.76
   2   2 -12   31.81    1.39
   1   2 -12    3.89    0.73
   1   2 -12    3.47    0.50
   0   2 -12   41.36    2.13
   0   2 -12   44.94    1.79
  -1   2 -12   12.15    0.84
  -1   2 -12   10.90    1.03
  -2   2 -12    9.39    0.82
  -2   2 -12   11.52    1.03
  -3   2 -12   -0.01    0.55
  -3   2 -12    1.12    0.49
  -4   2 -12    2.21    0.66
  -4   2 -12    2.50    0.58
  -5   2 -12    0.32    0.55
  -5   2 -12   -0.33    0.47
  -6   2 -12    2.41    0.70
  -6   2 -12    2.34    0.64
  -7   2 -12    0.40    0.63
  -7   2 -12    0.05    0.56
  -8   2 -12    1.27    0.78
  -8   2 -12    0.95    0.64
  -9   2 -12    1.40    0.84
 -10   2 -12   -0.46    0.68
  11   1 -12    3.08    1.09
 -11  -1  12    3.45    0.85
  10   1 -12    0.20    0.86
 -10  -1  12    0.85    0.69
   9   1 -12    3.08    1.00
  -9  -1  12    2.19    0.71
   8   1 -12    8.54    1.15
  -8  -1  12    6.82    0.91
   7   1 -12    2.79    0.85
  -7  -1  12    2.94    0.68
   6   1 -12    7.93    1.03
  -6  -1  12    7.85    0.88
   5   1 -12    1.34    0.68
   4   1 -12    9.57    1.03
   3   1 -12   14.61    0.85
   3   1 -12   14.72    1.16
   2   1 -12   26.49    1.60
   2   1 -12   30.60    1.32
   1   1 -12   24.90    1.44
   1   1 -12   22.80    1.16
   0   1 -12   21.71    1.41
   0   1 -12   23.94    1.18
  -1   1 -12   20.30    1.29
  -1   1 -12   19.96    1.09
  -2   1 -12    9.24    0.78
  -2   1 -12    9.14    0.94
  -3   1 -12    8.94    0.82
  -3   1 -12    8.79    0.93
  -4   1 -12    4.04    0.75
  -4   1 -12    3.42    0.63
  -5   1 -12    0.19    0.52
  -5   1 -12   -0.13    0.55
  -6   1 -12    4.13    0.80
  -6   1 -12    2.45    0.68
  -7   1 -12    0.47    0.60
  -7   1 -12    0.42    0.65
  -8   1 -12    1.39    0.69
  -8   1 -12    1.01    0.74
  -9   1 -12    1.12    0.69
  11   0 -12   -0.73    0.88
  10   0 -12    1.27    0.94
 -10   0  12   -0.36    0.64
   9   0 -12    0.42    0.83
  -9   0  12    0.96    0.64
   8   0 -12    0.29    0.78
  -8   0  12    0.16    0.59
   7   0 -12    2.42    0.83
  -7   0  12    2.26    0.66
   6   0 -12    1.12    0.73
   5   0 -12    3.75    0.81
   4   0 -12    1.07    0.64
   4   0 -12    1.37    0.41
   3   0 -12    1.96    0.66
   3   0 -12    2.52    0.48
   2   0 -12    3.71    0.53
   2   0 -12    3.22    0.72
   1   0 -12    0.11    0.57
   1   0 -12    0.26    0.40
   0   0 -12    8.36    0.90
   0   0 -12    8.72    0.74
  -1   0 -12    1.92    0.61
  -1   0 -12    1.43    0.48
  -2   0 -12    0.78    0.56
  -2   0 -12    0.59    0.46
  -3   0 -12    5.33    0.77
  -3   0 -12    4.62    0.66
  -4   0 -12    0.42    0.55
  -4   0 -12    0.85    0.55
  -5   0 -12    4.09    0.68
  -5   0 -12    2.97    0.69
  -6   0 -12    1.90    0.67
  -6   0 -12    0.80    0.60
  -7   0 -12    2.50    0.74
  -7   0 -12    1.08    0.64
  -8   0 -12   -0.34    0.64
  -9   0 -12    2.58    0.80
  11  -1 -12    3.10    1.09
  10  -1 -12   -0.15    0.92
   9  -1 -12    1.12    0.85
  -9   1  12    1.14    0.66
   8  -1 -12    2.58    0.88
  -8   1  12    2.49    0.71
   7  -1 -12    2.97    0.91
   6  -1 -12    1.42    0.73
   5  -1 -12    5.77    0.91
   4  -1 -12    5.39    0.60
   4  -1 -12    6.17    0.87
   3  -1 -12   10.60    0.79
   3  -1 -12    8.76    0.98
   2  -1 -12   12.97    0.89
   2  -1 -12   13.31    1.13
   1  -1 -12    4.33    0.61
   1  -1 -12    5.38    0.77
   0  -1 -12    4.69    0.73
   0  -1 -12    4.26    0.61
  -1  -1 -12    0.28    0.45
  -1  -1 -12    0.13    0.51
  -2  -1 -12    4.46    0.65
  -2  -1 -12    4.41    0.70
  -3  -1 -12    0.70    0.51
  -3  -1 -12    0.24    0.51
  -4  -1 -12    3.46    0.66
  -4  -1 -12    2.85    0.64
  -5  -1 -12    0.00    0.52
  -5  -1 -12    0.47    0.55
  -6  -1 -12    1.18    0.59
  -7  -1 -12    0.32    0.66
  -8  -1 -12    0.64    0.69
  -9  -1 -12   -0.69    0.66
  10  -2 -12    1.75    0.95
   9  -2 -12    0.39    0.88
   8  -2 -12    1.33    0.82
  -8   2  12    0.78    0.63
   7  -2 -12    1.27    0.84
   6  -2 -12    4.33    0.89
   5  -2 -12    2.48    0.81
   4  -2 -12    5.14    0.64
   4  -2 -12    5.48    0.86
   3  -2 -12    0.25    0.63
   3  -2 -12    1.55    0.49
   2  -2 -12   13.75    1.13
   2  -2 -12   13.00    0.92
   1  -2 -12    0.60    0.46
   1  -2 -12    1.27    0.60
   0  -2 -12    5.42    0.75
   0  -2 -12    5.19    0.66
  -1  -2 -12    4.64    0.69
  -1  -2 -12    3.38    0.62
  -2  -2 -12    7.89    0.82
  -2  -2 -12    6.60    0.76
  -3  -2 -12    3.97    0.68
  -4  -2 -12    3.53    0.69
  -5  -2 -12    4.61    0.75
  -6  -2 -12    2.74    0.69
  -7  -2 -12    0.29    0.64
  -8  -2 -12    0.64    0.71
  10  -3 -12    1.70    0.97
   9  -3 -12    1.52    0.91
   8  -3 -12    3.78    0.99
   7  -3 -12    1.05    0.80
   6  -3 -12   11.18    1.19
   5  -3 -12    1.54    0.75
   4  -3 -12    9.56    0.82
   4  -3 -12    8.98    1.03
   3  -3 -12    2.03    0.71
   3  -3 -12    2.14    0.56
   2  -3 -12   11.81    0.94
   2  -3 -12   13.74    1.13
   1  -3 -12    3.81    0.62
   1  -3 -12    3.78    0.70
   0  -3 -12    8.46    0.82
   0  -3 -12    9.38    0.91
  -1  -3 -12    2.74    0.60
  -2  -3 -12    3.31    0.65
  -3  -3 -12    2.44    0.65
  -4  -3 -12    2.57    0.66
  -5  -3 -12    4.74    0.80
  -6  -3 -12    2.80    0.73
  -7  -3 -12    0.96    0.73
  -8  -3 -12   -0.46    0.69
   9  -4 -12    2.02    0.99
   8  -4 -12    0.07    0.78
   7  -4 -12    4.76    1.01
   6  -4 -12    0.52    0.76
   5  -4 -12    4.11    0.88
   5  -4 -12    3.64    0.65
   4  -4 -12    1.20    0.56
   4  -4 -12    0.58    0.67
   3  -4 -12    0.31    0.68
   3  -4 -12    0.55    0.54
   2  -4 -12    4.55    0.67
   1  -4 -12    0.19    0.53
   0  -4 -12    3.09    0.64
  -1  -4 -12    1.29    0.59
  -2  -4 -12    0.50    0.57
  -3  -4 -12    3.00    0.70
  -4  -4 -12   -0.45    0.55
  -5  -4 -12    0.39    0.65
  -6  -4 -12    1.55    0.70
  -7  -4 -12   -0.87    0.64
   9  -5 -12    0.82    0.95
   8  -5 -12   -0.31    0.86
   7  -5 -12    0.57    0.84
   6  -5 -12    0.57    0.79
   5  -5 -12    1.17    0.76
   5  -5 -12    0.53    0.59
   4  -5 -12    1.10    0.58
   3  -5 -12    1.13    0.60
   2  -5 -12    0.32    0.58
   1  -5 -12    2.88    0.66
   0  -5 -12    0.55    0.60
  -1  -5 -12    0.16    0.56
  -2  -5 -12    0.12    0.57
  -3  -5 -12    0.53    0.62
  -4  -5 -12    0.37    0.62
  -5  -5 -12    0.05    0.67
  -6  -5 -12    0.63    0.70
   5  -6 -12    0.38    0.62
   4  -6 -12    4.90    0.80
   3  -6 -12    0.93    0.61
   2  -6 -12    7.04    0.90
   1  -6 -12    0.87    0.62
   0  -6 -12    3.44    0.77
  -1  -6 -12   -0.33    0.61
  -2  -6 -12    0.48    0.62
  -3  -6 -12    0.95    0.66
  -4  -6 -12    0.65    0.69
  -5  -6 -12    1.96    0.74
   5  -7 -12    0.79    0.70
   4  -7 -12    3.30    0.79
   3  -7 -12    4.00    0.79
   2  -7 -12    3.65    0.83
   1  -7 -12    1.44    0.72
   0  -7 -12    0.86    0.66
  -1  -7 -12    1.11    0.68
  -2  -7 -12    1.23    0.69
  -3  -7 -12    1.93    0.78
   3  -8 -12    0.35    0.69
   2  -8 -12    2.27    0.82
   1  -8 -12   -0.29    0.68
   0  -8 -12   -0.46    0.66
  -4 -12  13    4.63    0.97
  -3 -12  13    4.71    0.92
  -2 -12  13    1.43    0.79
   1  12 -13    2.59    0.90
   0  12 -13    1.03    0.79
  -1  12 -13    0.84    0.71
   1 -12  13    0.87    0.74
  -2  12 -13    1.01    0.81
   2 -12  13    0.44    0.78
  -3  12 -13    1.45    0.79
   3 -12  13    1.40    0.85
  -4  12 -13    1.15    0.85
   4 -12  13    0.10    0.76
  -5 -11  13    1.53    0.85
   4  11 -13    5.44    1.02
  -4 -11  13    5.81    1.01
   3  11 -13    2.69    0.90
  -3 -11  13    2.61    0.83
   2  11 -13    2.69    0.92
  -2 -11  13    3.40    0.81
   1  11 -13   14.63    1.41
  -1 -11  13   14.26    1.24
   0  11 -13    1.04    0.80
   0 -11  13    1.62    0.69
  -1  11 -13   18.15    1.44
   1 -11  13   15.43    1.25
  -2  11 -13    1.31    0.78
   2 -11  13    0.72    0.68
  -3  11 -13   15.98    1.48
   3 -11  13   15.92    1.30
  -4  11 -13    0.62    0.81
   4 -11  13    1.07    0.74
  -5  11 -13    7.46    1.18
   5 -11  13    9.45    1.10
  -6  11 -13    1.31    0.89
   6 -11  13    1.25    0.82
  -7 -10  13    0.30    0.80
   6  10 -13    1.77    0.92
  -6 -10  13    0.46    0.80
   5  10 -13    4.90    1.03
  -5 -10  13    3.49    0.90
   4  10 -13    0.16    0.79
  -4 -10  13    2.47    0.82
   3  10 -13    0.35    0.78
  -3 -10  13    0.01    0.64
   2  10 -13    3.34    0.84
  -2 -10  13    2.09    0.74
   1  10 -13    3.67    0.91
  -1 -10  13    2.51    0.72
   0  10 -13    4.41    0.97
   0 -10  13    5.82    0.82
   0 -10  13    6.70    0.84
  -1  10 -13    1.57    0.77
   1 -10  13    1.41    0.65
   1 -10  13    1.48    0.62
  -2  10 -13    5.05    0.94
   2 -10  13    4.97    0.83
  -3  10 -13    0.05    0.72
   3 -10  13    0.29    0.64
  -4  10 -13    1.89    0.82
   4 -10  13    1.94    0.73
  -5  10 -13    1.37    0.87
   5 -10  13   -0.41    0.70
  -6  10 -13   -0.37    0.75
   6 -10  13    0.45    0.74
  -7  10 -13   -0.14    0.85
   7 -10  13    0.73    0.79
   8   9 -13    1.74    1.04
  -8  -9  13    2.55    0.91
   7   9 -13   -0.96    0.85
  -7  -9  13   -0.23    0.72
   6   9 -13    4.42    1.05
  -6  -9  13    5.72    0.99
   5   9 -13    2.27    0.87
  -5  -9  13    1.85    0.76
   4   9 -13    5.52    1.00
  -4  -9  13    4.84    0.89
   3   9 -13    2.38    0.81
  -3  -9  13    2.13    0.73
   2   9 -13    6.69    0.97
  -2  -9  13    3.85    0.77
   1   9 -13    2.59    0.84
  -1  -9  13    3.40    0.72
   0   9 -13    2.90    0.87
   0  -9  13    4.15    0.72
   0  -9  13    4.25    0.69
  -1   9 -13    1.89    0.80
   1  -9  13    1.78    0.61
   1  -9  13    2.78    0.65
  -2   9 -13    1.70    0.78
   2  -9  13    1.54    0.61
   2  -9  13    1.62    0.64
  -3   9 -13    6.34    0.99
   3  -9  13    4.89    0.82
  -4   9 -13    2.09    0.80
  -5   9 -13    1.21    0.78
  -6   9 -13    0.31    0.76
  -7   9 -13    0.85    0.82
   9   8 -13   -1.37    0.92
   8   8 -13   -1.38    0.88
  -8  -8  13   -0.09    0.72
   7   8 -13    0.90    0.91
  -7  -8  13    0.89    0.75
   6   8 -13    1.52    0.92
  -6  -8  13    3.95    0.85
   5   8 -13    4.43    0.97
  -5  -8  13    5.40    0.87
   4   8 -13    4.59    0.95
  -4  -8  13    4.82    0.81
   3   8 -13    6.54    0.98
  -3  -8  13    7.24    0.90
   2   8 -13    4.11    0.85
  -2  -8  13    3.18    0.69
   1   8 -13   15.85    1.31
  -1  -8  13   15.45    1.21
  -1  -8  13   19.01    1.07
   0   8 -13   10.67    1.15
   0  -8  13    9.33    0.93
   0  -8  13    8.26    0.83
  -1   8 -13   21.34    1.57
   1  -8  13   23.94    1.39
  -2   8 -13    4.67    0.92
   2  -8  13    2.95    0.67
  -3   8 -13   21.29    1.54
  -4   8 -13    0.84    0.72
  -5   8 -13   13.89    1.40
  -6   8 -13    0.70    0.77
  -7   8 -13    6.20    1.09
  -8   8 -13    0.81    0.88
   9   7 -13    0.68    0.92
  -9  -7  13    0.27    0.78
   8   7 -13    1.96    1.00
  -8  -7  13    0.42    0.74
   7   7 -13    3.74    0.99
  -7  -7  13    4.87    0.89
   6   7 -13    0.33    0.85
  -6  -7  13    0.14    0.64
   5   7 -13    3.91    0.90
  -5  -7  13    2.66    0.73
   4   7 -13    3.20    0.83
  -4  -7  13    2.93    0.71
   3   7 -13   10.35    1.12
  -3  -7  13    9.61    0.99
   2   7 -13    0.48    0.69
  -2  -7  13    0.76    0.61
   1   7 -13   18.77    1.38
  -1  -7  13   17.55    1.20
   0   7 -13   -0.47    0.63
   0  -7  13    0.33    0.53
  -1   7 -13   10.34    1.15
   1  -7  13   12.47    1.03
  -2   7 -13    0.76    0.73
  -3   7 -13    8.83    1.09
  -4   7 -13   -0.01    0.66
  -5   7 -13    4.98    0.96
  -6   7 -13    0.79    0.78
  -7   7 -13    5.66    1.04
  -8   7 -13    1.35    0.88
  10   6 -13    0.55    1.03
 -10  -6  13    1.00    0.86
   9   6 -13    1.49    0.97
  -9  -6  13    1.25    0.84
   8   6 -13    3.99    1.10
  -8  -6  13    3.00    0.84
   7   6 -13    1.25    0.84
  -7  -6  13    0.62    0.68
   6   6 -13    4.26    0.98
  -6  -6  13    4.45    0.82
   5   6 -13    3.25    0.85
  -5  -6  13    2.67    0.70
   4   6 -13    1.77    0.80
  -4  -6  13    2.06    0.68
   3   6 -13    2.57    0.76
  -3  -6  13    1.37    0.62
   2   6 -13    3.63    0.78
  -2  -6  13    3.70    0.74
   1   6 -13    0.61    0.68
  -1  -6  13    0.27    0.59
   0   6 -13    1.03    0.65
  -1   6 -13    1.22    0.69
  -2   6 -13    9.46    1.09
  -3   6 -13   -0.19    0.62
  -4   6 -13    5.69    0.99
  -5   6 -13    2.24    0.82
  -6   6 -13    2.28    0.86
  -7   6 -13    3.09    0.93
  -8   6 -13    3.02    0.96
  -9   6 -13    0.94    0.90
  10   5 -13    0.44    1.02
 -10  -5  13    1.11    0.87
   9   5 -13   -0.75    0.84
  -9  -5  13    0.10    0.72
   8   5 -13    0.36    0.89
  -8  -5  13    0.74    0.70
   7   5 -13    1.61    0.86
  -7  -5  13    1.48    0.69
   6   5 -13    2.33    0.86
  -6  -5  13    2.39    0.69
   5   5 -13    4.63    0.92
  -5  -5  13    6.32    0.86
   4   5 -13    0.21    0.70
  -4  -5  13    0.67    0.63
   3   5 -13    2.04    0.72
  -3  -5  13    1.74    0.63
   2   5 -13    1.31    0.67
   1   5 -13    1.06    0.67
   0   5 -13    0.29    0.61
  -1   5 -13    3.52    0.77
  -2   5 -13    9.77    1.09
  -3   5 -13    1.68    0.71
  -4   5 -13    5.64    0.97
  -5   5 -13    2.41    0.77
  -6   5 -13    1.03    0.79
  -7   5 -13    0.54    0.75
  -8   5 -13    3.41    0.96
  -9   5 -13    1.04    0.89
  10   4 -13   -0.24    0.93
 -10  -4  13    1.76    0.79
   9   4 -13    1.03    0.96
  -9  -4  13   -0.61    0.64
   8   4 -13    7.39    1.14
  -8  -4  13    6.72    0.95
   7   4 -13    0.35    0.83
  -7  -4  13    0.84    0.63
   6   4 -13   15.45    1.42
  -6  -4  13   17.56    1.30
   5   4 -13   16.14    1.34
  -5  -4  13   18.42    1.30
   4   4 -13   28.42    1.69
  -4  -4  13   26.50    1.54
   3   4 -13   34.78    1.91
   2   4 -13    8.32    0.96
   1   4 -13   34.59    1.88
   0   4 -13    0.98    0.66
  -1   4 -13   22.86    1.48
  -2   4 -13    2.62    0.74
  -3   4 -13    8.48    1.03
  -4   4 -13    0.15    0.65
  -5   4 -13    5.25    0.94
  -6   4 -13    0.11    0.65
  -7   4 -13    1.92    0.81
  -8   4 -13    0.20    0.79
  -9   4 -13    1.07    0.90
  10   3 -13   -0.19    0.96
 -10  -3  13    0.23    0.75
   9   3 -13    0.79    0.92
  -9  -3  13    1.53    0.74
   8   3 -13   -0.18    0.84
  -8  -3  13    1.32    0.67
   7   3 -13    0.32    0.76
  -7  -3  13    0.20    0.65
   6   3 -13    5.11    0.95
  -6  -3  13    4.97    0.82
   5   3 -13    1.87    0.77
  -5  -3  13    2.13    0.68
   4   3 -13    2.71    0.76
   3   3 -13    8.44    0.99
   2   3 -13    0.10    0.63
   2   3 -13    0.61    0.42
   1   3 -13   21.04    1.38
   1   3 -13   20.58    1.09
   0   3 -13    4.13    0.80
   0   3 -13    4.20    0.56
  -1   3 -13    3.87    0.58
  -1   3 -13    2.65    0.71
  -2   3 -13    1.15    0.64
  -2   3 -13    1.01    0.49
  -3   3 -13   10.21    0.89
  -3   3 -13   11.47    1.12
  -4   3 -13    2.59    0.61
  -4   3 -13    3.60    0.80
  -5   3 -13   16.25    1.29
  -5   3 -13   13.60    1.04
  -6   3 -13    1.98    0.74
  -7   3 -13    3.07    0.87
  -8   3 -13    0.27    0.77
  -9   3 -13    0.91    0.81
  10   2 -13   -0.32    0.96
 -10  -2  13    1.53    0.74
   9   2 -13    0.98    0.90
  -9  -2  13    1.44    0.70
   8   2 -13    1.61    0.93
  -8  -2  13    1.59    0.72
   7   2 -13    1.45    0.80
  -7  -2  13    1.07    0.68
   6   2 -13    1.88    0.84
  -6  -2  13    2.74    0.73
   5   2 -13    0.99    0.73
   4   2 -13    3.40    0.80
   3   2 -13    7.13    0.63
   3   2 -13    9.33    1.02
   2   2 -13    0.05    0.38
   2   2 -13    0.26    0.59
   1   2 -13    2.34    0.50
   1   2 -13    2.49    0.72
   0   2 -13    0.06    0.57
   0   2 -13   -0.49    0.41
  -1   2 -13    0.31    0.60
  -1   2 -13   -0.09    0.42
  -2   2 -13    0.09    0.60
  -2   2 -13    0.04    0.45
  -3   2 -13    0.72    0.49
  -3   2 -13    0.98    0.67
  -4   2 -13    0.81    0.53
  -4   2 -13    1.36    0.64
  -5   2 -13    0.01    0.51
  -5   2 -13   -0.22    0.61
  -6   2 -13    0.88    0.60
  -6   2 -13    0.58    0.65
  -7   2 -13    0.31    0.68
  -7   2 -13    0.58    0.61
  -8   2 -13    1.83    0.83
  -9   2 -13    0.69    0.80
  10   1 -13   -0.16    0.97
 -10  -1  13    1.01    0.72
   9   1 -13    2.25    0.97
  -9  -1  13    2.64    0.75
   8   1 -13    2.14    0.90
  -8  -1  13    2.82    0.77
   7   1 -13    8.82    1.15
  -7  -1  13    7.50    0.95
   6   1 -13    2.12    0.79
   5   1 -13    1.76    0.76
   4   1 -13    1.86    0.72
   3   1 -13    0.66    0.42
   3   1 -13    0.91    0.64
   2   1 -13    3.39    0.53
   2   1 -13    4.50    0.79
   1   1 -13    1.20    0.44
   1   1 -13    1.50    0.67
   0   1 -13    5.32    0.65
   0   1 -13    5.90    0.84
  -1   1 -13    4.44    0.79
  -1   1 -13    3.86    0.61
  -2   1 -13    7.57    0.91
  -2   1 -13    8.08    0.79
  -3   1 -13    2.78    0.61
  -3   1 -13    3.12    0.71
  -4   1 -13    3.34    0.65
  -4   1 -13    3.70    0.79
  -5   1 -13   -0.07    0.54
  -5   1 -13    0.73    0.62
  -6   1 -13    1.04    0.62
  -6   1 -13    1.40    0.70
  -7   1 -13    2.20    0.68
  -7   1 -13    0.87    0.71
  -8   1 -13    1.81    0.72
  -8   1 -13    1.72    0.79
  -9   1 -13    0.27    0.73
  10   0 -13    0.73    0.99
 -10   0  13    0.22    0.69
   9   0 -13    0.92    0.98
  -9   0  13    0.42    0.67
   8   0 -13    1.78    0.92
  -8   0  13    0.60    0.62
   7   0 -13    3.03    0.94
  -7   0  13    3.47    0.71
   6   0 -13    6.52    1.00
   5   0 -13    6.13    0.95
   4   0 -13    2.72    0.79
   3   0 -13    8.10    1.02
   3   0 -13    9.33    0.75
   2   0 -13    3.12    0.76
   2   0 -13    2.86    0.54
   1   0 -13   24.23    1.23
   1   0 -13   23.40    1.49
   0   0 -13    2.38    0.69
   0   0 -13    2.06    0.53
  -1   0 -13   21.44    1.19
  -1   0 -13   21.60    1.43
  -2   0 -13    1.01    0.60
  -2   0 -13    1.09    0.53
  -3   0 -13    1.27    0.64
  -3   0 -13    2.79    0.62
  -4   0 -13    0.36    0.52
  -4   0 -13    0.43    0.60
  -5   0 -13    1.81    0.69
  -5   0 -13    2.53    0.64
  -6   0 -13    0.40    0.60
  -6   0 -13   -0.76    0.58
  -7   0 -13    2.78    0.76
  -8   0 -13    0.01    0.66
  10  -1 -13    1.74    1.00
   9  -1 -13    1.48    0.95
  -9   1  13    1.46    0.73
   8  -1 -13   -0.54    0.80
  -8   1  13   -0.39    0.62
   7  -1 -13    6.51    1.05
   6  -1 -13    0.39    0.78
   5  -1 -13    7.17    1.04
   4  -1 -13    0.97    0.69
   3  -1 -13   16.84    1.32
   3  -1 -13   15.47    0.98
   2  -1 -13    1.53    0.50
   2  -1 -13    1.54    0.70
   1  -1 -13   11.73    1.08
   1  -1 -13    9.89    0.84
   0  -1 -13    0.01    0.52
   0  -1 -13    0.19    0.45
  -1  -1 -13   12.78    1.10
  -1  -1 -13   11.30    0.94
  -2  -1 -13    0.91    0.52
  -2  -1 -13    0.39    0.55
  -3  -1 -13    3.50    0.66
  -3  -1 -13    3.45    0.72
  -4  -1 -13    0.82    0.57
  -4  -1 -13    1.55    0.65
  -5  -1 -13    0.60    0.56
  -6  -1 -13   -0.29    0.57
  -7  -1 -13    0.04    0.68
  -8  -1 -13   -0.11    0.70
  10  -2 -13    1.10    1.03
   9  -2 -13    0.93    0.93
   8  -2 -13    3.00    1.03
  -8   2  13    1.58    0.70
   7  -2 -13    1.65    0.83
   6  -2 -13    1.82    0.82
   5  -2 -13    2.52    0.79
   4  -2 -13    1.60    0.74
   4  -2 -13    0.45    0.48
   3  -2 -13    2.19    0.74
   3  -2 -13    2.26    0.55
   2  -2 -13    0.44    0.65
   2  -2 -13    0.32    0.48
   1  -2 -13    0.24    0.60
   1  -2 -13    1.13    0.53
   0  -2 -13    0.92    0.60
   0  -2 -13    0.57    0.54
  -1  -2 -13   -0.33    0.49
  -1  -2 -13    0.21    0.56
  -2  -2 -13    3.26    0.65
  -3  -2 -13    0.25    0.54
  -4  -2 -13    0.94    0.60
  -5  -2 -13    6.82    0.86
  -6  -2 -13    2.50    0.75
  -7  -2 -13    2.21    0.75
   9  -3 -13    0.79    1.00
   8  -3 -13    0.38    0.92
   7  -3 -13    3.33    0.92
   6  -3 -13    1.62    0.82
   5  -3 -13    4.22    0.91
   4  -3 -13    1.50    0.57
   4  -3 -13    2.07    0.79
   3  -3 -13    0.27    0.51
   3  -3 -13    0.86    0.71
   2  -3 -13   -0.06    0.62
   2  -3 -13   -0.03    0.49
   1  -3 -13    0.05    0.57
   1  -3 -13    0.62    0.55
   0  -3 -13    0.40    0.54
  -1  -3 -13    0.18    0.54
  -2  -3 -13    1.49    0.60
  -3  -3 -13    0.40    0.58
  -4  -3 -13    0.95    0.61
  -5  -3 -13    0.17    0.61
  -6  -3 -13    1.13    0.69
  -7  -3 -13    0.10    0.65
   8  -4 -13    0.52    0.89
   7  -4 -13   -0.43    0.77
   6  -4 -13    0.69    0.83
   5  -4 -13    1.12    0.80
   4  -4 -13   -0.09    0.76
   4  -4 -13    0.30    0.56
   3  -4 -13    9.21    0.91
   2  -4 -13    0.16    0.55
   1  -4 -13    7.36    0.83
   0  -4 -13    1.24    0.60
  -1  -4 -13    4.57    0.77
  -2  -4 -13    0.26    0.61
  -3  -4 -13    1.65    0.67
  -4  -4 -13   -0.07    0.64
  -5  -4 -13    0.98    0.65
  -6  -4 -13   -0.09    0.70
   7  -5 -13    3.60    1.02
   4  -5 -13   -0.19    0.58
   3  -5 -13    1.73    0.64
   2  -5 -13   -0.32    0.54
   1  -5 -13    1.98    0.68
   0  -5 -13    0.75    0.61
  -1  -5 -13    1.44    0.70
  -2  -5 -13    1.23    0.68
  -3  -5 -13   -0.49    0.61
  -4  -5 -13    0.79    0.71
  -5  -5 -13    0.63    0.72
   4  -6 -13    0.81    0.66
   3  -6 -13    2.78    0.75
   2  -6 -13    1.10    0.69
   1  -6 -13    3.21    0.78
   0  -6 -13    2.26    0.71
  -1  -6 -13    0.99    0.70
  -2  -6 -13    1.39    0.74
  -3  -6 -13    1.94    0.74
   4  -7 -13    1.01    0.72
   3  -7 -13   -0.93    0.64
   2  -7 -13    3.16    0.81
   1  -7 -13    0.53    0.69
   0  -7 -13    1.04    0.73
   2  12 -14    2.71    0.98
  -2 -12  14    0.37    0.76
   1  12 -14    0.25    0.81
   0  12 -14    0.26    0.86
  -1  12 -14    0.77    0.76
  -2  12 -14   -0.81    0.73
   2 -12  14    0.18    0.76
  -5 -11  14    6.60    1.10
   4  11 -14    1.76    0.90
  -4 -11  14    1.54    0.84
   3  11 -14    8.57    1.20
  -3 -11  14    8.69    1.12
   2  11 -14    0.63    0.86
  -2 -11  14   -0.12    0.71
   1  11 -14    7.77    1.18
  -1 -11  14    8.53    1.03
   0  11 -14    1.94    0.84
  -1  11 -14    6.35    1.09
   1 -11  14    5.56    0.90
  -2  11 -14    0.86    0.82
   2 -11  14    1.60    0.77
  -3  11 -14    4.24    0.99
   3 -11  14    4.43    0.87
  -4  11 -14   -0.06    0.82
   4 -11  14    1.10    0.75
   6  10 -14    0.63    0.93
  -6 -10  14    1.31    0.80
   5  10 -14    4.52    1.08
  -5 -10  14    8.03    1.13
   4  10 -14    0.28    0.79
  -4 -10  14    0.50    0.78
   3  10 -14    6.92    1.05
  -3 -10  14    5.53    0.92
   2  10 -14    3.45    0.93
  -2 -10  14    4.43    0.85
   1  10 -14    5.86    1.04
  -1 -10  14    5.60    0.87
   0  10 -14    5.09    1.01
   0 -10  14    4.64    0.81
  -1  10 -14    3.64    0.89
   1 -10  14    2.10    0.71
  -2  10 -14    2.17    0.90
   2 -10  14    3.01    0.77
  -3  10 -14    8.13    1.12
   3 -10  14    9.09    1.02
  -4  10 -14   -0.15    0.80
   4 -10  14    1.41    0.76
  -5  10 -14    5.64    1.08
   5 -10  14    3.66    0.86
  -6  10 -14    0.81    0.83
   6 -10  14    0.42    0.81
   7   9 -14    0.43    0.94
  -7  -9  14    0.09    0.76
   6   9 -14    1.43    0.93
  -6  -9  14    0.35    0.75
   5   9 -14    1.06    0.88
  -5  -9  14    0.85    0.78
   4   9 -14    2.77    0.92
  -4  -9  14    1.26    0.70
   3   9 -14    2.05    0.84
  -3  -9  14    1.84    0.74
   2   9 -14    3.71    0.89
  -2  -9  14    4.20    0.82
   1   9 -14    5.33    0.98
  -1  -9  14    5.52    0.85
   0   9 -14    5.74    1.05
   0  -9  14    6.15    0.79
   0  -9  14    5.78    0.83
  -1   9 -14    0.36    0.76
   1  -9  14    1.40    0.59
   1  -9  14    0.00    0.61
  -2   9 -14   12.49    1.36
   2  -9  14   15.67    1.18
  -3   9 -14   -0.80    0.70
  -4   9 -14    5.26    0.99
  -5   9 -14   -0.42    0.74
  -6   9 -14    4.08    1.03
  -7   9 -14    1.11    0.86
   8   8 -14    1.00    1.03
  -8  -8  14    1.17    0.81
   7   8 -14    1.35    0.92
  -7  -8  14   -0.04    0.75
   6   8 -14    1.06    0.87
  -6  -8  14    0.88    0.75
   5   8 -14    3.86    0.94
  -5  -8  14    2.65    0.82
   4   8 -14    2.73    0.91
  -4  -8  14    2.47    0.74
   3   8 -14    4.48    0.93
  -3  -8  14    2.40    0.70
   2   8 -14    6.64    1.02
  -2  -8  14    5.93    0.87
   1   8 -14    2.10    0.83
  -1  -8  14    2.38    0.70
   0   8 -14    2.29    0.85
   0  -8  14    3.39    0.71
  -1   8 -14    3.50    0.93
   1  -8  14    3.36    0.74
  -2   8 -14   -0.11    0.70
   2  -8  14   -0.88    0.58
  -3   8 -14    0.85    0.83
  -4   8 -14    0.67    0.74
  -5   8 -14    1.88    0.85
  -6   8 -14    0.03    0.83
  -7   8 -14    1.34    0.93
   8   7 -14    1.71    1.03
  -8  -7  14    0.90    0.83
   7   7 -14    0.26    0.93
  -7  -7  14    0.80    0.77
   6   7 -14    1.61    0.92
  -6  -7  14    1.75    0.77
   5   7 -14    2.93    0.92
  -5  -7  14    2.83    0.79
   4   7 -14    0.74    0.76
  -4  -7  14    1.31    0.65
   3   7 -14    8.17    1.10
  -3  -7  14   10.59    1.06
   2   7 -14   -0.15    0.69
  -2  -7  14    0.67    0.63
   1   7 -14   11.98    1.21
  -1  -7  14   11.64    1.10
   0   7 -14    1.11    0.74
   0  -7  14   -0.64    0.53
  -1   7 -14   17.46    1.40
  -2   7 -14    0.26    0.75
  -3   7 -14   21.91    1.62
  -4   7 -14    1.68    0.80
  -5   7 -14    5.65    1.02
  -6   7 -14    4.91    1.03
  -7   7 -14    1.62    0.94
  -8   7 -14    0.69    0.93
   9   6 -14    2.16    1.09
  -9  -6  14    0.48    0.77
   8   6 -14    1.11    0.95
  -8  -6  14   -0.13    0.76
   7   6 -14    3.00    1.02
  -7  -6  14    2.00    0.77
   6   6 -14    1.90    0.92
  -6  -6  14    0.20    0.64
   5   6 -14    5.76    1.01
  -5  -6  14    6.46    0.90
   4   6 -14   -0.16    0.70
  -4  -6  14    1.18    0.66
   3   6 -14    8.48    1.05
  -3  -6  14    6.05    0.89
   2   6 -14    5.13    0.90
  -2  -6  14    4.41    0.78
   1   6 -14   14.57    1.34
   0   6 -14   11.36    1.18
  -1   6 -14   20.80    1.49
  -2   6 -14   11.62    1.24
  -3   6 -14    7.48    1.04
  -4   6 -14    8.60    1.17
  -5   6 -14    4.37    0.95
  -6   6 -14    3.40    0.95
  -7   6 -14    2.34    0.91
  -8   6 -14    1.92    0.99
   9   5 -14   -0.34    0.91
  -9  -5  14   -0.04    0.75
   8   5 -14    3.02    1.01
  -8  -5  14    1.24    0.78
   7   5 -14    2.90    0.94
  -7  -5  14    2.93    0.83
   6   5 -14    0.81    0.82
  -6  -5  14    0.50    0.66
   5   5 -14    6.19    1.02
  -5  -5  14    7.67    0.95
   4   5 -14    3.27    0.82
  -4  -5  14    1.74    0.70
   3   5 -14    5.72    0.96
  -3  -5  14    5.78    0.86
   2   5 -14    5.91    0.91
   1   5 -14    3.16    0.81
   0   5 -14   13.32    1.24
  -1   5 -14    1.20    0.70
  -2   5 -14    5.00    0.96
  -3   5 -14    1.88    0.78
  -4   5 -14    4.97    0.93
  -5   5 -14    5.48    0.97
  -6   5 -14    2.55    0.87
  -7   5 -14    1.54    0.86
  -8   5 -14    3.15    0.99
  10   4 -14    1.83    1.03
 -10  -4  14    0.15    0.83
   9   4 -14    0.57    0.92
  -9  -4  14   -0.11    0.67
   8   4 -14    5.33    1.10
  -8  -4  14    3.53    0.85
   7   4 -14    0.35    0.83
  -7  -4  14    1.54    0.71
   6   4 -14    6.16    1.03
  -6  -4  14    4.43    0.87
   5   4 -14    2.23    0.85
  -5  -4  14    0.77    0.65
   4   4 -14    2.43    0.78
  -4  -4  14    1.25    0.67
   3   4 -14    1.27    0.72
   2   4 -14    1.93    0.74
   1   4 -14    1.45    0.70
   0   4 -14    2.17    0.73
  -1   4 -14    4.26    0.84
  -2   4 -14    7.58    1.01
  -3   4 -14    1.50    0.78
  -4   4 -14    0.57    0.69
  -5   4 -14    1.47    0.74
  -6   4 -14    0.14    0.71
  -7   4 -14    1.81    0.83
  -8   4 -14   -0.03    0.84
  10   3 -14    1.54    1.04
 -10  -3  14    0.80    0.78
   9   3 -14    0.02    0.96
  -9  -3  14    0.42    0.70
   8   3 -14   -0.72    0.80
  -8  -3  14    0.73    0.71
   7   3 -14    1.18    0.90
  -7  -3  14    3.01    0.79
   6   3 -14    1.14    0.79
  -6  -3  14   -0.19    0.62
   5   3 -14   10.04    1.15
  -5  -3  14    9.18    1.02
   4   3 -14    5.27    0.91
   3   3 -14    9.74    1.10
   2   3 -14    1.87    0.49
   2   3 -14    2.03    0.72
   1   3 -14    1.21    0.48
   1   3 -14    1.11    0.68
   0   3 -14    1.45    0.71
   0   3 -14    2.44    0.54
  -1   3 -14    8.88    0.81
  -1   3 -14   10.99    1.10
  -2   3 -14    0.33    0.65
  -2   3 -14    0.04    0.47
  -3   3 -14    5.88    0.77
  -3   3 -14    8.06    1.02
  -4   3 -14    0.22    0.66
  -4   3 -14   -0.69    0.49
  -5   3 -14    2.83    0.67
  -5   3 -14    4.39    0.86
  -6   3 -14    0.99    0.77
  -7   3 -14    1.05    0.82
  -8   3 -14    2.03    0.91
  10   2 -14    1.41    1.07
 -10  -2  14    0.00    0.72
   9   2 -14    0.64    0.92
  -9  -2  14    0.53    0.71
   8   2 -14    0.35    0.90
  -8  -2  14    1.28    0.76
   7   2 -14    0.31    0.81
  -7  -2  14    0.67    0.72
   6   2 -14    0.07    0.79
  -6  -2  14    1.59    0.68
   5   2 -14    6.75    1.02
   4   2 -14   -0.12    0.71
   3   2 -14    6.79    0.98
   2   2 -14    3.66    0.55
   2   2 -14    4.34    0.82
   1   2 -14    1.41    0.71
   1   2 -14    0.29    0.46
   0   2 -14    7.49    0.96
   0   2 -14    7.12    0.73
  -1   2 -14    0.97    0.65
  -1   2 -14    0.28    0.50
  -2   2 -14    1.29    0.66
  -2   2 -14    0.85    0.53
  -3   2 -14    0.83    0.54
  -3   2 -14    0.71    0.64
  -4   2 -14    4.64    0.74
  -4   2 -14    5.63    0.94
  -5   2 -14    0.69    0.70
  -5   2 -14    0.17    0.57
  -6   2 -14    1.07    0.77
  -6   2 -14    1.02    0.64
  -7   2 -14    0.41    0.76
  -7   2 -14    1.39    0.67
  -8   2 -14    0.11    0.76
  10   1 -14    1.45    1.06
 -10  -1  14    0.73    0.76
   9   1 -14    0.98    0.96
  -9  -1  14    1.96    0.72
   8   1 -14    0.15    0.87
  -8  -1  14    1.34    0.75
   7   1 -14    9.79    1.24
  -7  -1  14   10.50    1.11
   6   1 -14    1.35    0.81
   5   1 -14    9.60    1.15
   4   1 -14    7.51    1.03
   3   1 -14    1.29    0.71
   2   1 -14   13.10    1.24
   2   1 -14   14.69    0.97
   1   1 -14    0.57    0.47
   1   1 -14   -0.13    0.61
   0   1 -14    2.91    0.57
   0   1 -14    1.57    0.70
  -1   1 -14    0.88    0.51
  -1   1 -14   -0.03    0.63
  -2   1 -14    6.87    0.95
  -2   1 -14    6.57    0.75
  -3   1 -14    0.89    0.54
  -3   1 -14    1.08    0.65
  -4   1 -14   11.78    1.03
  -4   1 -14   13.00    1.22
  -5   1 -14    2.41    0.77
  -5   1 -14    3.22    0.72
  -6   1 -14    2.71    0.81
  -6   1 -14    1.65    0.66
  -7   1 -14    1.13    0.74
  -7   1 -14    0.38    0.64
  -8   1 -14    0.74    0.69
  10   0 -14    1.59    1.09
   9   0 -14   -0.37    0.90
  -9   0  14    0.01    0.70
   8   0 -14    0.83    0.89
  -8   0  14    1.33    0.75
   7   0 -14   -0.18    0.78
  -7   0  14    0.32    0.67
   6   0 -14    1.69    0.82
   5   0 -14    1.90    0.86
   4   0 -14    1.65    0.80
   3   0 -14    1.74    0.52
   3   0 -14    1.00    0.74
   2   0 -14    3.00    0.57
   2   0 -14    3.27    0.79
   1   0 -14    3.93    0.63
   1   0 -14    4.49    0.82
   0   0 -14    4.87    0.86
   0   0 -14    5.17    0.68
  -1   0 -14    2.43    0.70
  -1   0 -14    3.01    0.61
  -2   0 -14    0.80    0.66
  -2   0 -14    0.28    0.50
  -3   0 -14   -0.12    0.54
  -3   0 -14    0.23    0.61
  -4   0 -14   -0.24    0.61
  -4   0 -14    0.21    0.56
  -5   0 -14    0.97    0.65
  -5   0 -14   -0.04    0.57
  -6   0 -14   -0.84    0.58
  -7   0 -14    1.65    0.71
   9  -1 -14    0.13    0.91
  -9   1  14    0.85    0.73
   8  -1 -14    0.18    0.93
  -8   1  14    0.24    0.69
   7  -1 -14    0.60    0.83
   6  -1 -14    1.23    0.87
   5  -1 -14    0.43    0.79
   4  -1 -14   -0.04    0.72
   3  -1 -14    0.66    0.49
   3  -1 -14    0.83    0.70
   2  -1 -14    0.44    0.48
   2  -1 -14   -0.66    0.65
   1  -1 -14    2.05    0.74
   1  -1 -14    1.21    0.55
   0  -1 -14   -0.24    0.61
   0  -1 -14    0.12    0.51
  -1  -1 -14    2.40    0.60
  -1  -1 -14    2.20    0.73
  -2  -1 -14    0.22    0.60
  -2  -1 -14    0.65    0.57
  -3  -1 -14    0.06    0.58
  -3  -1 -14   -0.30    0.50
  -4  -1 -14    0.82    0.60
  -5  -1 -14    1.47    0.64
  -6  -1 -14    1.74    0.68
  -7  -1 -14    2.39    0.77
   9  -2 -14    2.35    1.03
   8  -2 -14    0.72    0.97
  -8   2  14    2.46    0.78
   7  -2 -14    6.94    1.17
   6  -2 -14    3.15    0.95
   5  -2 -14    4.11    0.96
   4  -2 -14    1.87    0.82
   3  -2 -14    1.27    0.55
   3  -2 -14    1.18    0.75
   2  -2 -14    1.82    0.59
   2  -2 -14    3.14    0.81
   1  -2 -14    3.16    0.78
   1  -2 -14    2.26    0.62
   0  -2 -14    4.27    0.71
   0  -2 -14    4.85    0.84
  -1  -2 -14    3.34    0.66
  -2  -2 -14    4.11    0.74
  -3  -2 -14    1.21    0.63
  -4  -2 -14    5.24    0.81
  -5  -2 -14    0.11    0.60
  -6  -2 -14    4.52    0.84
   8  -3 -14    0.41    0.89
   7  -3 -14    2.13    1.00
   6  -3 -14    1.34    0.91
   5  -3 -14    4.72    0.98
   4  -3 -14    4.77    0.98
   3  -3 -14    8.43    1.06
   3  -3 -14    5.64    0.78
   2  -3 -14    4.95    0.74
   2  -3 -14    6.57    0.94
   1  -3 -14    2.33    0.65
   0  -3 -14    9.07    0.92
  -1  -3 -14    1.65    0.62
  -2  -3 -14    1.91    0.68
  -3  -3 -14   -0.05    0.59
  -4  -3 -14    1.13    0.65
  -5  -3 -14    1.17    0.68
   7  -4 -14    0.96    0.94
   6  -4 -14    1.11    0.89
   5  -4 -14    1.28    0.87
   4  -4 -14    0.42    0.58
   3  -4 -14    0.98    0.61
   2  -4 -14    1.79    0.63
   1  -4 -14    0.56    0.58
   0  -4 -14    2.42    0.69
  -1  -4 -14   -0.46    0.58
  -2  -4 -14    1.74    0.71
  -3  -4 -14    0.97    0.70
  -4  -4 -14    1.28    0.69
   4  -5 -14    0.18    0.62
   3  -5 -14    0.06    0.62
   2  -5 -14    1.06    0.67
   1  -5 -14    0.66    0.63
   0  -5 -14   -0.38    0.60
  -1  -5 -14    0.61    0.67
  -2  -5 -14    0.32    0.66
  -3  -5 -14    2.11    0.76
   4  -6 -14    2.26    0.75
   3  -6 -14    0.46    0.66
   2  -6 -14    3.30    0.80
   1  -6 -14    0.68    0.68
   0  -6 -14    1.00    0.69
   3  11 -15    0.20    0.88
  -3 -11  15    0.68    0.80
   2  11 -15    0.59    0.88
  -2 -11  15    0.01    0.68
   1  11 -15    1.43    0.88
  -1 -11  15   -0.29    0.72
   0  11 -15    1.46    0.92
  -1  11 -15    0.90    0.87
  -2  11 -15    0.28    0.83
   2 -11  15    2.43    0.81
  -3  11 -15    1.25    0.88
   3 -11  15    1.40    0.81
   5  10 -15    1.23    0.98
  -5 -10  15    2.25    0.84
   4  10 -15    0.58    0.90
  -4 -10  15    0.02    0.71
   3  10 -15    2.18    0.93
  -3 -10  15    3.25    0.88
   2  10 -15    0.79    0.87
  -2 -10  15   -0.37    0.63
   1  10 -15    3.37    0.95
  -1 -10  15    2.97    0.78
   0  10 -15    3.44    0.98
   0 -10  15    2.95    0.79
  -1  10 -15    7.51    1.15
   1 -10  15    9.40    0.99
  -2  10 -15    0.91    0.80
   2 -10  15    1.34    0.69
  -3  10 -15    4.93    1.00
   3 -10  15    3.77    0.85
  -4  10 -15    0.48    0.87
   4 -10  15    0.77    0.78
  -5  10 -15    2.88    0.96
   5 -10  15    2.44    0.84
   6   9 -15    0.03    0.88
  -6  -9  15    1.81    0.84
   5   9 -15    0.59    0.94
  -5  -9  15    1.78    0.80
   4   9 -15    1.65    0.94
  -4  -9  15    2.23    0.78
   3   9 -15    0.80    0.87
  -3  -9  15    0.19    0.70
   2   9 -15    7.78    1.12
  -2  -9  15    9.25    1.05
   1   9 -15   -0.15    0.81
  -1  -9  15   -0.27    0.65
   0   9 -15   14.64    1.46
   0  -9  15   15.65    1.25
  -1   9 -15   -0.08    0.78
   1  -9  15    0.39    0.63
   1  -9  15    0.38    0.68
  -2   9 -15    6.23    1.08
  -3   9 -15    0.80    0.87
  -4   9 -15    7.12    1.13
  -5   9 -15    1.54    0.87
  -6   9 -15    2.64    1.00
   7   8 -15    0.49    0.97
  -7  -8  15    1.07    0.80
   6   8 -15    5.27    1.13
  -6  -8  15    6.67    1.02
   5   8 -15    0.36    0.89
  -5  -8  15    0.13    0.73
   4   8 -15    4.08    0.99
  -4  -8  15    3.66    0.88
   3   8 -15    1.07    0.83
  -3  -8  15    0.36    0.68
   2   8 -15    4.20    0.99
  -2  -8  15    3.96    0.82
   1   8 -15   -0.17    0.71
  -1  -8  15    0.46    0.68
   0   8 -15    7.34    1.09
   0  -8  15    7.27    0.95
  -1   8 -15    0.05    0.76
   1  -8  15    0.52    0.66
  -2   8 -15    5.53    1.01
   2  -8  15    5.27    0.85
  -3   8 -15   -0.08    0.78
  -4   8 -15    0.50    0.78
  -5   8 -15    1.53    0.92
  -6   8 -15    0.89    0.91
   8   7 -15    1.37    1.08
  -8  -7  15    1.51    0.84
   7   7 -15    0.38    0.98
  -7  -7  15    0.77    0.75
   6   7 -15    2.92    1.04
  -6  -7  15    2.24    0.80
   5   7 -15    1.42    0.85
  -5  -7  15    0.62    0.69
   4   7 -15    3.18    0.93
  -4  -7  15    2.99    0.78
   3   7 -15    5.85    1.01
  -3  -7  15    4.99    0.88
   2   7 -15    4.32    0.96
  -2  -7  15    3.63    0.79
   1   7 -15    6.95    1.05
  -1  -7  15    8.31    0.97
   0   7 -15    1.51    0.81
   0  -7  15    0.89    0.66
  -1   7 -15    6.98    1.09
  -2   7 -15    2.43    0.85
  -3   7 -15    2.03    0.91
  -4   7 -15   -0.01    0.77
  -5   7 -15    3.44    0.94
  -6   7 -15    5.08    1.09
  -7   7 -15    2.81    1.01
   8   6 -15   -0.33    0.96
  -8  -6  15   -0.55    0.72
   7   6 -15    1.00    0.98
  -7  -6  15    1.35    0.77
   6   6 -15    0.09    0.89
  -6  -6  15    1.10    0.70
   5   6 -15    3.90    0.99
  -5  -6  15    3.41    0.86
   4   6 -15   -0.36    0.71
  -4  -6  15    0.20    0.63
   3   6 -15    5.97    0.99
  -3  -6  15    4.73    0.90
   2   6 -15    0.39    0.75
  -2  -6  15    0.47    0.64
   1   6 -15    4.94    0.94
   0   6 -15   -0.23    0.68
  -1   6 -15    3.52    0.89
  -2   6 -15    0.55    0.81
  -3   6 -15    2.08    0.85
  -4   6 -15    1.06    0.88
  -5   6 -15    1.23    0.89
  -6   6 -15    1.18    0.92
  -7   6 -15    3.52    1.02
   9   5 -15    0.18    1.05
  -9  -5  15    0.23    0.82
   8   5 -15    2.56    1.02
  -8  -5  15    2.21    0.80
   7   5 -15    0.34    0.94
   6   5 -15    2.56    0.97
  -6  -5  15    3.18    0.84
   5   5 -15    2.27    0.94
  -5  -5  15    1.14    0.69
   4   5 -15    6.68    1.03
  -4  -5  15    7.42    0.96
   3   5 -15    3.50    0.89
  -3  -5  15    4.33    0.81
   2   5 -15    2.54    0.85
   1   5 -15    1.43    0.76
   0   5 -15    9.81    1.14
  -1   5 -15    1.55    0.77
  -2   5 -15    7.54    1.08
  -3   5 -15    1.47    0.77
  -4   5 -15    3.89    0.99
  -5   5 -15    2.28    0.87
  -6   5 -15    4.95    1.09
  -7   5 -15    2.19    0.98
   9   4 -15   -0.67    0.94
  -9  -4  15   -0.15    0.76
   8   4 -15    1.96    1.07
  -8  -4  15    1.96    0.81
   7   4 -15    1.39    0.94
  -7  -4  15    1.99    0.78
   6   4 -15    1.76    0.90
  -6  -4  15    2.10    0.77
   5   4 -15    0.98    0.81
  -5  -4  15    1.00    0.74
   4   4 -15    4.01    0.89
  -4  -4  15    3.32    0.83
   3   4 -15    0.21    0.69
   2   4 -15   11.51    1.20
   1   4 -15    1.92    0.79
   0   4 -15   30.40    1.84
  -1   4 -15    0.45    0.70
  -2   4 -15    9.56    1.17
  -3   4 -15    4.25    0.94
  -4   4 -15    3.24    0.92
  -5   4 -15    1.03    0.81
  -6   4 -15    1.82    0.83
  -7   4 -15    0.64    0.86
   9   3 -15   -0.54    0.90
  -9  -3  15    1.06    0.81
   8   3 -15    2.86    1.01
  -8  -3  15    1.91    0.82
   7   3 -15    1.00    0.90
  -7  -3  15    1.48    0.80
   6   3 -15    3.24    0.94
  -6  -3  15    3.29    0.84
   5   3 -15    4.89    1.02
  -5  -3  15    4.20    0.85
   4   3 -15    3.63    0.88
   3   3 -15    2.86    0.86
   2   3 -15    4.12    0.87
   1   3 -15   12.68    1.24
   1   3 -15    9.09    0.82
   0   3 -15   14.84    1.29
   0   3 -15   16.57    1.06
  -1   3 -15    3.20    0.64
  -1   3 -15    3.55    0.84
  -2   3 -15    5.05    0.92
  -2   3 -15    3.91    0.68
  -3   3 -15    0.26    0.74
  -3   3 -15   -0.37    0.50
  -4   3 -15    3.65    0.89
  -4   3 -15    2.92    0.67
  -5   3 -15    0.12    0.56
  -5   3 -15    0.12    0.74
  -6   3 -15    1.99    0.87
  -7   3 -15    0.90    0.84
   9   2 -15    2.74    1.05
  -9  -2  15    1.60    0.80
   8   2 -15   -0.21    0.93
  -8  -2  15   -0.76    0.66
   7   2 -15    4.79    1.07
  -7  -2  15    3.13    0.89
   6   2 -15    0.58    0.80
  -6  -2  15    0.42    0.68
   5   2 -15    3.82    0.92
   4   2 -15   -0.24    0.71
   3   2 -15    1.42    0.76
   2   2 -15   -0.22    0.72
   2   2 -15    0.62    0.49
   1   2 -15    1.83    0.78
   1   2 -15    1.91    0.57
   0   2 -15    2.04    0.55
   0   2 -15    1.49    0.73
  -1   2 -15    3.83    0.87
  -1   2 -15    2.91    0.61
  -2   2 -15    0.07    0.53
  -2   2 -15    1.09    0.75
  -3   2 -15    2.48    0.64
  -3   2 -15    3.10    0.85
  -4   2 -15    1.01    0.76
  -4   2 -15    1.03    0.59
  -5   2 -15    1.18    0.63
  -5   2 -15    0.73    0.73
  -6   2 -15    1.53    0.67
  -6   2 -15    0.65    0.78
  -7   2 -15    0.26    0.65
  -7   2 -15    0.48    0.79
   9   1 -15    0.40    1.01
  -9  -1  15    0.23    0.77
   8   1 -15    0.92    0.94
  -8  -1  15    1.51    0.81
   7   1 -15    1.20    0.96
  -7  -1  15    0.46    0.74
   6   1 -15    3.23    0.97
   5   1 -15    1.45    0.87
   4   1 -15    4.88    0.94
   3   1 -15    0.34    0.76
   2   1 -15    1.56    0.52
   2   1 -15    1.69    0.73
   1   1 -15    3.43    0.86
   1   1 -15    3.09    0.60
   0   1 -15    2.02    0.58
   0   1 -15    3.51    0.84
  -1   1 -15    0.04    0.67
  -1   1 -15   -0.17    0.49
  -2   1 -15    2.83    0.81
  -2   1 -15    1.63    0.57
  -3   1 -15    0.65    0.57
  -3   1 -15   -0.10    0.62
  -4   1 -15    0.92    0.75
  -4   1 -15   -0.02    0.56
  -5   1 -15    0.87    0.73
  -5   1 -15    0.57    0.63
  -6   1 -15    0.68    0.64
  -6   1 -15    0.87    0.75
  -7   1 -15    0.52    0.67
   9   0 -15    0.88    1.05
  -9   0  15    2.24    0.81
   8   0 -15    2.28    0.99
  -8   0  15    1.75    0.81
   7   0 -15    0.47    0.85
  -7   0  15    0.18    0.72
   6   0 -15    3.13    1.00
   5   0 -15   -0.40    0.75
   4   0 -15    2.55    0.91
   3   0 -15    2.62    0.87
   2   0 -15    5.71    0.93
   2   0 -15    4.49    0.66
   1   0 -15    7.73    1.01
   1   0 -15    7.54    0.77
   0   0 -15    6.46    0.75
   0   0 -15    5.86    0.95
  -1   0 -15    1.50    0.56
  -1   0 -15    1.52    0.68
  -2   0 -15    3.43    0.66
  -2   0 -15    3.11    0.82
  -3   0 -15    0.40    0.58
  -3   0 -15    0.16    0.68
  -4   0 -15    3.20    0.72
  -4   0 -15    5.37    0.94
  -5   0 -15    2.07    0.70
  -6   0 -15    0.75    0.66
   8  -1 -15    5.68    1.16
  -8   1  15    4.17    0.90
   7  -1 -15    2.56    0.98
   6  -1 -15    1.37    0.92
   5  -1 -15   -0.89    0.78
   4  -1 -15    2.21    0.84
   3  -1 -15    4.29    0.94
   2  -1 -15    3.43    0.66
   2  -1 -15    3.35    0.86
   1  -1 -15    4.61    0.92
   1  -1 -15    4.68    0.72
   0  -1 -15    1.10    0.73
   0  -1 -15    1.86    0.59
  -1  -1 -15    1.06    0.71
  -1  -1 -15    2.11    0.64
  -2  -1 -15    1.06    0.61
  -3  -1 -15    1.87    0.63
  -4  -1 -15    4.39    0.78
  -5  -1 -15    1.40    0.66
  -6  -1 -15    0.59    0.69
   8  -2 -15    0.75    0.95
  -8   2  15    0.48    0.75
   7  -2 -15    1.56    1.00
   6  -2 -15    0.28    0.90
   5  -2 -15    0.76    0.88
   4  -2 -15    0.44    0.83
   3  -2 -15    1.04    0.58
   3  -2 -15    0.87    0.82
   2  -2 -15   -0.24    0.54
   2  -2 -15    0.70    0.75
   1  -2 -15    2.93    0.82
   1  -2 -15    2.51    0.63
   0  -2 -15    0.54    0.57
  -1  -2 -15    1.34    0.62
  -2  -2 -15    0.27    0.60
  -3  -2 -15    0.80    0.62
  -4  -2 -15   -0.59    0.60
  -5  -2 -15    0.02    0.65
   7  -3 -15    0.03    0.92
   6  -3 -15    1.99    0.99
   5  -3 -15    0.74    0.88
   4  -3 -15    1.28    0.84
   3  -3 -15   -0.67    0.76
   3  -3 -15   -0.22    0.56
   2  -3 -15    0.80    0.59
   1  -3 -15    0.17    0.60
   0  -3 -15    0.73    0.63
  -1  -3 -15    0.27    0.59
  -2  -3 -15    0.98    0.65
  -3  -3 -15   -0.12    0.61
  -4  -3 -15    2.25    0.79
   3  -4 -15    4.21    0.77
   2  -4 -15    2.92    0.74
   1  -4 -15    3.17    0.77
   0  -4 -15    2.48    0.75
  -1  -4 -15    2.42    0.76
  -2  -4 -15    0.71    0.69
   3  -5 -15   -0.47    0.62
   2  -5 -15    2.82    0.79
   1  -5 -15    0.23    0.68
   0  -5 -15    4.15    0.83
   4  10 -16    4.03    1.10
   3  10 -16    4.77    1.05
  -3 -10  16    4.33    0.96
   2  10 -16    0.23    0.89
  -2 -10  16    0.86    0.76
   1  10 -16    8.98    1.32
  -1 -10  16    9.75    1.11
   0  10 -16   -0.24    0.83
   0 -10  16    0.96    0.75
  -1  10 -16   11.72    1.35
  -2  10 -16    1.63    0.93
   2 -10  16    0.14    0.71
  -3  10 -16   11.20    1.33
   3 -10  16   11.73    1.16
   5   9 -16    2.49    1.01
  -5  -9  16   -0.19    0.78
   4   9 -16    0.81    0.96
  -4  -9  16    1.50    0.78
   3   9 -16    1.21    0.89
  -3  -9  16    0.49    0.72
   2   9 -16    6.39    1.10
  -2  -9  16    3.98    0.85
   1   9 -16    2.45    0.96
  -1  -9  16    2.08    0.77
   0   9 -16    2.67    0.98
   0  -9  16    1.87    0.79
  -1   9 -16   -0.51    0.85
   1  -9  16    1.71    0.70
   1  -9  16    0.80    0.74
  -2   9 -16    0.58    0.85
  -3   9 -16    1.01    0.85
  -4   9 -16    0.73    0.81
   6   8 -16    2.75    1.04
  -6  -8  16    1.12    0.84
   5   8 -16   -0.13    0.92
  -5  -8  16   -0.14    0.71
   4   8 -16    0.15    0.92
  -4  -8  16   -0.37    0.67
   3   8 -16    2.92    0.97
  -3  -8  16    1.87    0.80
   2   8 -16    2.83    0.94
  -2  -8  16    3.81    0.85
   1   8 -16    0.39    0.80
  -1  -8  16    0.84    0.69
   0   8 -16    3.82    0.99
   0  -8  16    3.58    0.84
  -1   8 -16   -0.19    0.79
   1  -8  16    0.83    0.72
  -2   8 -16    0.18    0.82
   2  -8  16   -0.15    0.67
  -3   8 -16   -0.41    0.86
  -4   8 -16    0.19    0.81
  -5   8 -16   -0.07    0.81
   7   7 -16    0.54    0.97
  -7  -7  16    0.78    0.81
   6   7 -16    1.48    0.97
  -6  -7  16    0.85    0.81
   5   7 -16    1.88    0.98
  -5  -7  16    1.35    0.77
   4   7 -16    4.00    1.00
  -4  -7  16    2.80    0.87
   3   7 -16    3.13    0.95
  -3  -7  16    3.67    0.87
   2   7 -16    4.07    0.97
  -2  -7  16    3.99    0.85
   1   7 -16    6.12    1.05
  -1  -7  16    7.56    1.01
   0   7 -16    5.57    1.05
   0  -7  16    6.54    0.96
  -1   7 -16    6.65    1.10
  -2   7 -16    2.13    0.87
  -3   7 -16   15.03    1.50
  -4   7 -16    2.47    0.93
  -5   7 -16    6.47    1.18
  -6   7 -16    2.21    0.96
   7   6 -16    1.93    1.04
  -7  -6  16    3.36    0.89
   6   6 -16    0.62    0.91
  -6  -6  16    2.00    0.80
   5   6 -16    6.71    1.18
  -5  -6  16    5.92    1.00
   4   6 -16    1.36    0.88
  -4  -6  16    0.83    0.74
   3   6 -16    2.63    0.92
  -3  -6  16    4.50    0.90
   2   6 -16    0.56    0.77
  -2  -6  16    0.01    0.66
   1   6 -16    6.02    1.02
   0   6 -16    1.90    0.82
  -1   6 -16    6.56    1.07
  -2   6 -16    0.62    0.78
  -3   6 -16    2.71    0.90
  -4   6 -16    1.22    0.87
  -5   6 -16    2.78    0.95
  -6   6 -16   -0.14    0.89
   8   5 -16    3.44    1.12
  -8  -5  16    2.44    0.87
   7   5 -16    2.10    1.02
  -7  -5  16    2.23    0.82
   6   5 -16    1.43    0.96
  -6  -5  16    1.37    0.84
   5   5 -16    3.16    0.97
  -5  -5  16    2.39    0.83
   4   5 -16    0.58    0.84
  -4  -5  16    1.04    0.74
   3   5 -16    5.53    1.02
  -3  -5  16    7.47    1.00
   2   5 -16    0.29    0.75
   1   5 -16    7.08    1.10
   0   5 -16    0.86    0.75
  -1   5 -16    4.72    0.97
  -2   5 -16    0.51    0.79
  -3   5 -16    2.52    0.88
  -4   5 -16    2.34    0.97
  -5   5 -16    1.59    0.93
  -6   5 -16    0.45    0.91
   8   4 -16    0.75    1.03
  -8  -4  16    1.43    0.79
   7   4 -16   -0.67    0.88
  -7  -4  16    0.85    0.78
   6   4 -16    0.12    0.86
  -6  -4  16    0.35    0.79
   5   4 -16    0.72    0.86
  -5  -4  16    0.44    0.72
   4   4 -16    0.38    0.81
  -4  -4  16    0.46    0.72
   3   4 -16    0.19    0.76
   2   4 -16    2.70    0.90
   1   4 -16   -0.34    0.78
   0   4 -16    0.90    0.76
  -1   4 -16   -0.26    0.73
  -2   4 -16    0.96    0.79
  -3   4 -16    0.27    0.73
  -4   4 -16    2.10    0.92
  -5   4 -16    1.60    0.85
  -6   4 -16    1.54    0.93
   8   3 -16    1.30    0.97
  -8  -3  16    0.79    0.79
   7   3 -16    4.06    1.11
  -7  -3  16    2.93    0.91
   6   3 -16    0.96    0.89
  -6  -3  16    1.92    0.81
   5   3 -16    6.72    1.13
  -5  -3  16    6.83    1.01
   4   3 -16    3.42    0.96
   3   3 -16   -0.28    0.71
   2   3 -16    2.39    0.85
   1   3 -16    2.02    0.58
   1   3 -16    1.74    0.82
   0   3 -16    2.61    0.84
   0   3 -16    2.72    0.64
  -1   3 -16    3.81    0.97
  -1   3 -16    4.28    0.69
  -2   3 -16    1.38    0.59
  -2   3 -16    1.34    0.78
  -3   3 -16    0.50    0.56
  -3   3 -16   -0.40    0.70
  -4   3 -16    0.88    0.64
  -4   3 -16    0.73    0.78
  -5   3 -16    1.10    0.66
  -5   3 -16    1.40    0.82
  -6   3 -16    0.75    0.83
   8   2 -16    2.99    1.13
  -8  -2  16    2.94    0.93
   7   2 -16    2.62    0.99
  -7  -2  16    0.22    0.80
   6   2 -16    0.29    0.89
  -6  -2  16    0.10    0.71
   5   2 -16    3.93    1.00
   4   2 -16    0.43    0.77
   3   2 -16    8.52    1.13
   2   2 -16    0.52    0.77
   1   2 -16   20.16    1.55
   1   2 -16   19.04    1.17
   0   2 -16    4.01    0.68
   0   2 -16    3.52    0.89
  -1   2 -16   12.35    1.05
  -1   2 -16   18.30    1.47
  -2   2 -16    2.04    0.86
  -2   2 -16    1.85    0.60
  -3   2 -16    7.23    0.88
  -3   2 -16   10.36    1.21
  -4   2 -16    2.62    0.70
  -4   2 -16    3.71    0.94
  -5   2 -16    3.35    0.92
  -5   2 -16    2.18    0.72
  -6   2 -16    0.71    0.83
  -6   2 -16   -0.02    0.68
   8   1 -16    1.55    1.03
  -8  -1  16    2.01    0.87
   7   1 -16    0.37    1.00
  -7  -1  16    2.30    0.82
   6   1 -16    2.63    1.01
   5   1 -16    6.79    1.19
   4   1 -16    0.17    0.85
   3   1 -16    1.56    0.83
   2   1 -16    0.07    0.72
   1   1 -16    3.28    0.64
   1   1 -16    3.76    0.94
   0   1 -16    3.82    0.68
   0   1 -16    4.66    0.96
  -1   1 -16    1.10    0.81
  -1   1 -16    0.87    0.58
  -2   1 -16    0.47    0.78
  -2   1 -16   -0.20    0.55
  -3   1 -16    1.06    0.77
  -3   1 -16    0.21    0.61
  -4   1 -16   -0.19    0.72
  -4   1 -16   -0.23    0.58
  -5   1 -16    2.31    0.72
  -5   1 -16    1.41    0.79
   7   0 -16    2.22    1.01
  -7   0  16    1.44    0.83
   6   0 -16    0.50    0.87
   5   0 -16    0.54    0.84
   4   0 -16    0.23    0.84
   3   0 -16   -0.34    0.73
   2   0 -16    0.26    0.54
   2   0 -16   -0.04    0.76
   1   0 -16    0.22    0.75
   1   0 -16    0.40    0.55
   0   0 -16    1.52    0.59
   0   0 -16    0.12    0.76
  -1   0 -16    0.22    0.74
  -1   0 -16    0.04    0.54
  -2   0 -16    1.04    0.81
  -2   0 -16    1.93    0.66
  -3   0 -16   -0.34    0.55
  -3   0 -16    1.27    0.76
  -4   0 -16    0.19    0.64
  -5   0 -16    0.41    0.69
   7  -1 -16    2.04    1.07
   6  -1 -16    1.04    0.97
   5  -1 -16    0.95    0.86
   4  -1 -16    1.27    0.92
   3  -1 -16    5.96    1.11
   2  -1 -16    1.59    0.79
   2  -1 -16    0.27    0.56
   1  -1 -16   13.30    1.30
   1  -1 -16   10.03    0.97
   0  -1 -16    0.72    0.58
   0  -1 -16    1.85    0.79
  -1  -1 -16    7.49    0.88
  -2  -1 -16    0.14    0.61
  -3  -1 -16    2.37    0.70
  -4  -1 -16    0.43    0.63
   6  -2 -16   -0.12    0.93
   5  -2 -16    3.19    1.04
   4  -2 -16    1.05    0.90
   3  -2 -16    3.03    0.95
   2  -2 -16   -0.24    0.58
   2  -2 -16    0.19    0.77
   1  -2 -16    1.32    0.65
   0  -2 -16    0.13    0.59
  -1  -2 -16    0.48    0.62
  -2  -2 -16    0.38    0.65
  -3  -2 -16    0.33    0.62
   5  -3 -16    0.41    0.91
   2  -3 -16    0.37    0.62
   1  -3 -16    4.15    0.79
   0  -3 -16    1.11    0.66
  -1  -3 -16    1.27    0.72
  -2  -3 -16    1.89    0.74
   2  -4 -16   -0.06    0.62
   3   9 -17    2.04    0.96
  -3  -9  17    2.86    0.86
   2   9 -17    2.15    0.97
  -2  -9  17    1.97    0.83
   1   9 -17    0.61    0.89
  -1  -9  17    0.29    0.77
   0   9 -17    1.79    0.99
   0  -9  17    2.66    0.86
  -1   9 -17    1.24    0.94
   1  -9  17    1.53    0.80
  -2   9 -17    2.46    1.00
   5   8 -17    2.77    1.11
  -5  -8  17    3.78    0.97
   4   8 -17    1.60    0.95
  -4  -8  17    0.15    0.79
   3   8 -17    3.71    1.08
  -3  -8  17    1.31    0.81
   2   8 -17    2.56    1.01
  -2  -8  17    2.37    0.86
   1   8 -17    8.32    1.24
  -1  -8  17    7.92    1.10
   0   8 -17    2.37    0.95
   0  -8  17    2.64    0.83
  -1   8 -17    9.85    1.33
   1  -8  17    9.35    1.10
  -2   8 -17    7.89    1.24
   2  -8  17    7.99    1.07
  -3   8 -17    8.38    1.25
   5   7 -17    1.38    0.96
  -5  -7  17    0.54    0.80
   4   7 -17    1.98    0.99
  -4  -7  17    3.24    0.89
   3   7 -17   -0.03    0.84
  -3  -7  17    0.36    0.75
   2   7 -17    7.67    1.20
  -2  -7  17    8.43    1.15
   1   7 -17    0.01    0.86
  -1  -7  17   -0.20    0.71
   0   7 -17    0.99    0.82
   0  -7  17    0.39    0.72
  -1   7 -17    0.66    0.85
  -2   7 -17   -0.78    0.77
  -3   7 -17    0.54    0.87
  -4   7 -17    0.34    0.85
   6   6 -17   -0.27    0.94
  -6  -6  17    0.63    0.81
   5   6 -17   -0.30    0.88
  -5  -6  17    1.71    0.83
   4   6 -17    1.25    0.96
  -4  -6  17    1.62    0.82
   3   6 -17    1.81    0.89
  -3  -6  17    1.00    0.78
   2   6 -17   -0.59    0.79
  -2  -6  17   -0.59    0.73
   1   6 -17    1.04    0.84
   0   6 -17   -0.79    0.74
  -1   6 -17    1.19    0.86
  -2   6 -17   -0.31    0.81
  -3   6 -17    2.52    1.00
  -4   6 -17    0.53    0.86
  -5   6 -17    2.78    1.04
   6   5 -17   -0.26    0.96
  -6  -5  17    1.24    0.86
   5   5 -17    3.06    1.02
  -5  -5  17    4.48    0.96
   4   5 -17    0.35    0.91
  -4  -5  17    0.50    0.76
   3   5 -17    5.22    1.11
  -3  -5  17    7.24    1.08
   2   5 -17    1.97    0.91
   1   5 -17    9.35    1.25
   0   5 -17    8.28    1.17
  -1   5 -17    7.30    1.18
  -2   5 -17    3.11    0.99
  -3   5 -17    4.40    1.05
  -4   5 -17    1.21    0.96
  -5   5 -17    0.11    0.90
   7   4 -17    1.60    1.00
  -7  -4  17    1.78    0.86
   6   4 -17    0.91    0.93
  -6  -4  17    0.33    0.79
   5   4 -17    4.77    1.08
  -5  -4  17    5.58    1.01
   4   4 -17    1.13    0.85
  -4  -4  17    0.50    0.76
   3   4 -17    6.29    1.15
   2   4 -17    1.59    0.88
   1   4 -17    4.51    1.01
   0   4 -17    5.23    1.04
  -1   4 -17    4.16    1.02
  -2   4 -17   11.72    1.38
  -3   4 -17    2.41    0.92
  -4   4 -17   11.47    1.40
  -5   4 -17    0.58    0.84
   7   3 -17   -1.25    0.89
  -7  -3  17    0.43    0.79
   6   3 -17    1.14    0.96
  -6  -3  17    0.34    0.83
   5   3 -17    4.37    1.06
  -5  -3  17    2.38    0.88
   4   3 -17    0.22    0.90
   3   3 -17    2.31    0.92
   2   3 -17    3.12    0.92
   1   3 -17    1.10    0.85
   0   3 -17    2.70    0.94
   0   3 -17    2.07    0.63
  -1   3 -17    0.82    0.60
  -1   3 -17    0.09    0.81
  -2   3 -17    2.95    0.97
  -2   3 -17    1.20    0.61
  -3   3 -17    0.96    0.81
  -3   3 -17    0.40    0.59
  -4   3 -17    2.51    1.01
  -4   3 -17    3.59    0.75
  -5   3 -17    2.01    0.94
   7   2 -17   -0.54    0.98
  -7  -2  17    1.17    0.90
   6   2 -17   -0.26    0.95
  -6  -2  17    0.95    0.80
   5   2 -17    0.44    0.96
   4   2 -17    0.83    0.93
   3   2 -17    4.29    1.01
   2   2 -17   -0.53    0.84
   1   2 -17    0.88    0.88
   0   2 -17    3.09    0.68
   0   2 -17    2.98    0.95
  -1   2 -17    1.40    0.87
  -1   2 -17    1.58    0.64
  -2   2 -17    0.38    0.62
  -2   2 -17    0.20    0.82
  -3   2 -17    0.69    0.65
  -3   2 -17    0.94    0.84
  -4   2 -17    0.77    0.85
  -4   2 -17    0.35    0.64
   6   1 -17    0.60    0.95
   5   1 -17    1.76    0.96
   4   1 -17   -0.48    0.82
   3   1 -17    0.13    0.80
   2   1 -17    2.30    0.91
   1   1 -17    1.09    0.60
   1   1 -17    0.21    0.85
   0   1 -17    0.98    0.85
   0   1 -17    1.10    0.61
  -1   1 -17    1.43    0.61
  -1   1 -17    0.02    0.80
  -2   1 -17    3.38    0.99
  -2   1 -17    2.50    0.70
  -3   1 -17    0.36    0.65
  -3   1 -17    0.86    0.83
  -4   1 -17    4.64    0.87
   6   0 -17    3.10    1.07
   5   0 -17    0.47    0.96
   4   0 -17    2.06    0.99
   3   0 -17    1.32    0.92
   2   0 -17    0.30    0.84
   1   0 -17    1.42    0.62
   1   0 -17    2.11    0.92
   0   0 -17    1.44    0.83
   0   0 -17    1.38    0.63
  -1   0 -17    3.08    0.70
  -1   0 -17    3.31    0.93
  -2   0 -17    2.56    0.72
  -3   0 -17    1.72    0.72
   5  -1 -17   -0.92    0.91
   4  -1 -17    0.45    0.94
   3  -1 -17    4.61    1.06
   2  -1 -17    0.24    0.84
   1  -1 -17    0.70    0.60
   1  -1 -17    0.82    0.86
   0  -1 -17   -0.06    0.59
  -1  -1 -17    1.63    0.67
  -2  -1 -17    1.21    0.68
   4  -2 -17    1.98    0.99
   1  -2 -17    0.05    0.60
   0  -2 -17    1.26    0.67
   2   8 -18    4.74    1.09
  -2  -8  18    3.87    0.96
   1   8 -18    0.50    0.89
  -1  -8  18    0.17    0.78
   0   8 -18    6.81    1.24
   0  -8  18    5.25    1.05
  -1   8 -18    0.25    0.93
   1  -8  18    0.26    0.82
   3   7 -18   -0.33    0.85
  -3  -7  18    0.25    0.84
   2   7 -18    0.89    0.88
  -2  -7  18    1.16    0.85
   1   7 -18   -0.37    0.85
  -1  -7  18    0.39    0.79
   0   7 -18    1.01    0.90
   0  -7  18    0.25    0.78
  -1   7 -18    3.09    1.02
  -2   7 -18    2.98    1.04
   4   6 -18    1.80    1.00
  -4  -6  18    2.10    0.93
   3   6 -18    1.19    0.93
  -3  -6  18   -0.77    0.82
   2   6 -18    5.75    1.13
  -2  -6  18    5.54    1.04
   1   6 -18    0.14    0.88
   0   6 -18    2.21    0.97
  -1   6 -18    2.10    0.96
  -2   6 -18    3.45    1.03
  -3   6 -18    1.42    0.96
   5   5 -18    1.41    1.05
  -5  -5  18    0.46    0.80
   4   5 -18   -0.42    0.93
  -4  -5  18   -1.19    0.72
   3   5 -18    0.64    0.95
  -3  -5  18    1.15    0.84
   2   5 -18    1.60    0.93
   1   5 -18    1.42    0.90
   0   5 -18    1.72    0.92
  -1   5 -18    2.42    0.94
  -2   5 -18    1.54    0.93
  -3   5 -18    2.34    1.01
   5   4 -18    2.20    1.04
  -5  -4  18    2.62    0.96
   4   4 -18    4.31    1.14
  -4  -4  18    2.59    0.94
   3   4 -18    0.35    0.96
   2   4 -18    5.24    1.13
   1   4 -18    0.85    0.89
   0   4 -18    6.03    1.12
  -1   4 -18    0.38    0.91
  -2   4 -18    1.12    0.90
  -3   4 -18    0.70    0.91
   5   3 -18    1.26    0.99
  -5  -3  18    0.01    0.78
   4   3 -18    2.49    1.06
   3   3 -18    0.69    0.94
   2   3 -18    4.64    1.10
   1   3 -18   -0.77    0.79
   0   3 -18   10.76    1.31
   0   3 -18    9.11    0.92
  -1   3 -18    0.85    0.63
  -1   3 -18    0.88    0.91
  -2   3 -18    5.49    0.82
  -2   3 -18    6.86    1.20
  -3   3 -18    0.09    0.87
  -3   3 -18   -0.51    0.63
   5   2 -18   -0.82    0.91
   4   2 -18    1.98    1.03
   3   2 -18   -0.61    0.81
   2   2 -18    3.84    1.04
   1   2 -18    5.65    1.10
   0   2 -18    9.84    1.29
   0   2 -18    6.15    0.84
  -1   2 -18    1.65    0.70
  -1   2 -18    2.86    0.94
  -2   2 -18    4.19    0.81
  -2   2 -18    4.56    1.10
   4   1 -18    0.70    0.96
   3   1 -18   -0.01    0.91
   2   1 -18   -0.59    0.86
   1   1 -18    1.18    0.92
   0   1 -18    0.79    0.89
   0   1 -18    1.12    0.65
  -1   1 -18   -0.01    0.86
  -1   1 -18   -0.15    0.61
  -2   1 -18   -0.04    0.65
  -2   1 -18   -0.90    0.82
   3   0 -18    2.11    0.99
   2   0 -18   -0.07    0.83
   1   0 -18    0.17    0.87
   0   0 -18    1.37    0.66
   0   0 -18    0.49    0.87
   1   4 -19    1.29    0.96
   0   0   0    0.00    0.00
;
_shelx_hkl_checksum              58704
loop_
_space_group_symop_operation_xyz
'x, y, z'
loop_
_atom_site_label
_atom_site_type_symbol
_atom_site_fract_x
_atom_site_fract_y
_atom_site_fract_z
_atom_site_U_iso_or_equiv
_atom_site_adp_type
_atom_site_occupancy
_atom_site_site_symmetry_order
_atom_site_calc_flag
_atom_site_refinement_flags_posn
_atom_site_refinement_flags_adp
Br1 Br 0.77237(7) -0.12670(6) 0.56157(5) 0.0487(2) Uani 1 1 d . .
S1 S 0.73160(14) 0.10591(15) 0.08924(12) 0.0225(3) Uani 1 1 d . .
O1 O 0.6983(4) -0.0121(5) 0.1241(4) 0.0271(10) Uani 1 1 d . .
O2 O 0.6699(4) 0.1148(5) -0.0093(4) 0.0299(10) Uani 1 1 d . .
O3 O 0.5780(4) 0.4819(5) 0.4851(4) 0.0395(11) Uani 1 1 d . .
N1 N 0.6859(5) 0.2443(5) 0.1816(4) 0.0199(10) Uani 1 1 d . .
C66 C 0.7556(6) 0.4087(7) 0.3350(5) 0.0215(14) Uani 1 1 d . .
N3 N 0.7942(5) 0.4740(5) 0.4427(4) 0.0266(11) Uani 1 1 d . .
H3A H 0.8800 0.4949 0.4643 0.032 Uiso 1 1 calc R U
C1 C 0.7613(7) -0.0087(8) 0.4728(7) 0.0322(17) Uani 1 1 d . .
C2 C 0.6454(7) -0.0230(7) 0.4045(6) 0.0296(16) Uani 1 1 d . .
H2 H 0.5741 -0.0900 0.4007 0.036 Uiso 1 1 calc R U
C3 C 0.6368(6) 0.0659(7) 0.3407(6) 0.0257(15) Uani 1 1 d . .
H3 H 0.5591 0.0585 0.2939 0.031 Uiso 1 1 calc R U
C4 C 0.7440(6) 0.1645(7) 0.3471(5) 0.0204(13) Uani 1 1 d . .
C5 C 0.7341(5) 0.2701(6) 0.2893(5) 0.0184(13) Uani 1 1 d . .
C6 C 0.9105(6) 0.1375(6) 0.0970(5) 0.0210(12) Uani 1 1 d . .
C7 C 0.9937(6) 0.0679(7) 0.1504(5) 0.0253(14) Uani 1 1 d . .
H7 H 0.9557 0.0025 0.1797 0.030 Uiso 1 1 calc R U
C8 C 1.1335(6) 0.0981(7) 0.1588(6) 0.0276(15) Uani 1 1 d . .
H8 H 1.1901 0.0523 0.1946 0.033 Uiso 1 1 calc R U
C9 C 1.1923(6) 0.1943(7) 0.1157(6) 0.0265(14) Uani 1 1 d . .
C10 C 1.1077(6) 0.2611(7) 0.0625(6) 0.0305(16) Uani 1 1 d . .
H10 H 1.1462 0.3259 0.0328 0.037 Uiso 1 1 calc R U
C11 C 0.9665(6) 0.2337(7) 0.0525(6) 0.0317(16) Uani 1 1 d . .
H11 H 0.9103 0.2793 0.0164 0.038 Uiso 1 1 calc R U
C12 C 1.3455(6) 0.2231(8) 0.1241(7) 0.0332(17) Uani 1 1 d . .
H12A H 1.3874 0.1812 0.1738 0.050 Uiso 1 1 calc R U
H12B H 1.3694 0.3211 0.1478 0.050 Uiso 1 1 calc R U
H12C H 1.3776 0.1855 0.0562 0.050 Uiso 1 1 calc R U
C13 C 0.6856(6) 0.3756(7) 0.1611(5) 0.0229(13) Uani 1 1 d . .
C14 C 0.7243(6) 0.4766(7) 0.2560(6) 0.0230(15) Uani 1 1 d . .
C15 C 0.7025(6) 0.5041(6) 0.5119(5) 0.0275(13) Uani 1 1 d . .
C16 C 0.7628(8) 0.5674(7) 0.6266(6) 0.0369(18) Uani 1 1 d . .
C17 C 0.7844(7) 0.4552(8) 0.6810(6) 0.0280(15) Uani 1 1 d . .
C18 C 0.6756(7) 0.3850(8) 0.7080(6) 0.0338(17) Uani 1 1 d . .
H18 H 0.5870 0.4054 0.6915 0.041 Uiso 1 1 calc R U
C19 C 0.6931(7) 0.2849(9) 0.7588(7) 0.0383(19) Uani 1 1 d . .
H19 H 0.6168 0.2376 0.7743 0.046 Uiso 1 1 calc R U
C20 C 0.8224(8) 0.2550(10) 0.7864(7) 0.043(2) Uani 1 1 d . .
H20 H 0.8351 0.1895 0.8224 0.051 Uiso 1 1 calc R U
C21 C 0.9324(8) 0.3235(10) 0.7600(8) 0.049(2) Uani 1 1 d . .
H21 H 1.0207 0.3031 0.7774 0.059 Uiso 1 1 calc R U
C22 C 0.9147(7) 0.4240(8) 0.7072(7) 0.0407(19) Uani 1 1 d . .
H22 H 0.9909 0.4696 0.6899 0.049 Uiso 1 1 calc R U
C23 C 0.7278(6) 0.6159(7) 0.2604(6) 0.0252(15) Uani 1 1 d . .
H23 H 0.7526 0.6841 0.3240 0.030 Uiso 1 1 calc R U
C24 C 0.6945(6) 0.6506(8) 0.1701(7) 0.0344(18) Uani 1 1 d . .
H24 H 0.6986 0.7432 0.1717 0.041 Uiso 1 1 calc R U
C25 C 0.6540(6) 0.5478(8) 0.0748(6) 0.0338(17) Uani 1 1 d . .
H25 H 0.6303 0.5737 0.0143 0.041 Uiso 1 1 calc R U
C26 C 0.6484(6) 0.4082(7) 0.0682(6) 0.0278(14) Uani 1 1 d . .
H26 H 0.6211 0.3401 0.0050 0.033 Uiso 1 1 calc R U
C27 C 0.8599(6) 0.1732(7) 0.4146(6) 0.0254(15) Uani 1 1 d . .
H27 H 0.9331 0.2375 0.4168 0.030 Uiso 1 1 calc R U
C28 C 0.8695(7) 0.0870(7) 0.4798(6) 0.0315(16) Uani 1 1 d . .
H28 H 0.9471 0.0942 0.5267 0.038 Uiso 1 1 calc R U
Br2 Br 0.28628(7) 1.12808(6) 0.43562(5) 0.0451(2) Uani 1 1 d . .
S2 S 0.26685(14) 0.88674(16) 0.90394(12) 0.0212(3) Uani 1 1 d . .
O4 O 0.3274(4) 0.8826(5) 1.0041(4) 0.0269(10) Uani 1 1 d . .
O5 O 0.2973(4) 1.0032(4) 0.8671(4) 0.0260(10) Uani 1 1 d . .
O6 O 0.0816(4) 0.4937(4) 0.5052(3) 0.0334(10) Uani 1 1 d . .
N4 N 0.3193(4) 0.7514(5) 0.8169(4) 0.0199(11) Uani 1 1 d . .
N5 N 0.3092(5) 0.5271(5) 0.5490(4) 0.0249(11) Uani 1 1 d . .
H5 H 0.3888 0.5161 0.5264 0.030 Uiso 1 1 calc R U
C29 C 0.2907(7) 1.0080(7) 0.5218(6) 0.0269(15) Uani 1 1 d . .
C30 C 0.4026(7) 1.0228(8) 0.5973(6) 0.0299(16) Uani 1 1 d . .
H30 H 0.4744 1.0907 0.6052 0.036 Uiso 1 1 calc R U
C31 C 0.4043(6) 0.9359(7) 0.6594(6) 0.0258(15) Uani 1 1 d . .
H31 H 0.4785 0.9453 0.7098 0.031 Uiso 1 1 calc R U
C32 C 0.2984(6) 0.8340(7) 0.6494(5) 0.0204(13) Uani 1 1 d . .
C33 C 0.3036(5) 0.7270(7) 0.7041(5) 0.0193(13) Uani 1 1 d . .
C34 C 0.0886(6) 0.8522(6) 0.8949(5) 0.0231(13) Uani 1 1 d . .
C35 C 0.0338(6) 0.7577(7) 0.9439(6) 0.0267(15) Uani 1 1 d . .
H35 H 0.0917 0.7155 0.9816 0.032 Uiso 1 1 calc R U
C36 C -0.1052(6) 0.7282(7) 0.9357(6) 0.0306(16) Uani 1 1 d . .
H36 H -0.1415 0.6633 0.9662 0.037 Uiso 1 1 calc R U
C37 C -0.1937(6) 0.7943(7) 0.8822(5) 0.0240(13) Uani 1 1 d . .
C38 C -0.1374(6) 0.8881(7) 0.8362(5) 0.0247(14) Uani 1 1 d . .
H38 H -0.1950 0.9342 0.8015 0.030 Uiso 1 1 calc R U
C39 C 0.0020(6) 0.9149(7) 0.8405(6) 0.0270(15) Uani 1 1 d . .
H39 H 0.0381 0.9759 0.8064 0.032 Uiso 1 1 calc R U
C40 C -0.3467(6) 0.7636(8) 0.8764(6) 0.0316(16) Uani 1 1 d . .
H40A H -0.3757 0.7918 0.9463 0.047 Uiso 1 1 calc R U
H40B H -0.3706 0.6663 0.8458 0.047 Uiso 1 1 calc R U
H40C H -0.3916 0.8133 0.8336 0.047 Uiso 1 1 calc R U
C41 C 0.3220(5) 0.6183(7) 0.8348(5) 0.0209(13) Uani 1 1 d . .
C42 C 0.3107(6) 0.5189(7) 0.7377(6) 0.0210(14) Uani 1 1 d . .
C43 C 0.3028(5) 0.5902(6) 0.6585(5) 0.0191(13) Uani 1 1 d . .
C44 C 0.1993(6) 0.4841(6) 0.4795(5) 0.0272(13) Uani 1 1 d . .
C45 C 0.2300(8) 0.4244(8) 0.3649(6) 0.0356(17) Uani 1 1 d . .
C46 C 0.2263(7) 0.5405(7) 0.3100(6) 0.0271(15) Uani 1 1 d . .
C47 C 0.1037(7) 0.5757(8) 0.2728(7) 0.0391(18) Uani 1 1 d . .
H47 H 0.0219 0.5316 0.2829 0.047 Uiso 1 1 calc R U
C48 C 0.1000(7) 0.6746(9) 0.2210(7) 0.042(2) Uani 1 1 d . .
H48 H 0.0160 0.6963 0.1954 0.050 Uiso 1 1 calc R U
C49 C 0.2196(8) 0.7421(8) 0.2067(7) 0.0350(18) Uani 1 1 d . .
H49 H 0.2167 0.8111 0.1732 0.042 Uiso 1 1 calc R U
C50 C 0.3422(7) 0.7078(8) 0.2417(7) 0.0365(19) Uani 1 1 d . .
H50 H 0.4234 0.7510 0.2295 0.044 Uiso 1 1 calc R U
C51 C 0.3474(7) 0.6085(8) 0.2956(6) 0.0324(16) Uani 1 1 d . .
H51 H 0.4315 0.5878 0.3218 0.039 Uiso 1 1 calc R U
C52 C 0.3126(6) 0.3786(8) 0.7309(7) 0.0313(17) Uani 1 1 d . .
H52 H 0.3048 0.3110 0.6661 0.038 Uiso 1 1 calc R U
C53 C 0.3266(6) 0.3450(8) 0.8263(6) 0.0311(17) Uani 1 1 d . .
H53 H 0.3275 0.2528 0.8250 0.037 Uiso 1 1 calc R U
C54 C 0.3393(6) 0.4454(8) 0.9218(6) 0.0315(16) Uani 1 1 d . .
H54 H 0.3492 0.4193 0.9836 0.038 Uiso 1 1 calc R U
C55 C 0.3376(6) 0.5833(7) 0.9289(5) 0.0280(14) Uani 1 1 d . .
H55 H 0.3466 0.6505 0.9940 0.034 Uiso 1 1 calc R U
C56 C 0.1874(6) 0.8210(7) 0.5735(6) 0.0260(15) Uani 1 1 d . .
H56 H 0.1153 0.7536 0.5659 0.031 Uiso 1 1 calc R U
C57 C 0.1839(7) 0.9085(8) 0.5088(6) 0.0346(17) Uani 1 1 d . .
H57 H 0.1104 0.8994 0.4579 0.042 Uiso 1 1 calc R U
loop_
_atom_site_aniso_label
_atom_site_aniso_U_11
_atom_site_aniso_U_22
_atom_site_aniso_U_33
_atom_site_aniso_U_23
_atom_site_aniso_U_13
_atom_site_aniso_U_12
Br1 0.0862(6) 0.0325(5) 0.0366(5) 0.0232(4) 0.0056(4) 0.0122(4)
S1 0.0221(7) 0.0249(8) 0.0191(8) 0.0047(6) 0.0020(6) 0.0010(6)
O1 0.032(2) 0.023(2) 0.025(3) 0.007(2) 0.0055(19) -0.0010(18)
O2 0.030(2) 0.038(3) 0.020(2) 0.006(2) -0.0005(18) 0.0029(19)
O3 0.039(3) 0.048(3) 0.034(3) 0.013(2) 0.009(2) 0.012(2)
N1 0.022(2) 0.023(3) 0.014(3) 0.004(2) 0.0023(19) 0.0041(19)
C66 0.022(3) 0.028(4) 0.014(3) 0.005(3) -0.001(2) 0.003(2)
N3 0.036(3) 0.022(3) 0.021(3) 0.004(2) 0.003(2) 0.003(2)
C1 0.048(4) 0.023(4) 0.030(5) 0.011(3) 0.008(3) 0.013(3)
C2 0.043(4) 0.020(4) 0.030(4) 0.014(3) 0.007(3) 0.000(3)
C3 0.034(3) 0.024(4) 0.022(4) 0.011(3) 0.002(3) 0.004(2)
C4 0.023(3) 0.018(3) 0.020(4) 0.003(3) 0.004(2) 0.006(2)
C5 0.017(3) 0.019(3) 0.019(3) 0.006(3) 0.000(2) 0.003(2)
C6 0.026(3) 0.022(3) 0.016(3) 0.007(2) 0.002(2) 0.005(2)
C7 0.032(3) 0.025(3) 0.021(3) 0.009(3) 0.007(3) 0.005(2)
C8 0.033(3) 0.029(4) 0.022(4) 0.008(3) 0.001(3) 0.007(3)
C9 0.021(3) 0.027(3) 0.027(4) 0.000(3) 0.003(3) 0.003(2)
C10 0.028(3) 0.030(4) 0.037(4) 0.016(3) 0.004(3) 0.000(3)
C11 0.028(3) 0.035(4) 0.036(4) 0.017(3) 0.002(3) 0.004(3)
C12 0.031(4) 0.029(4) 0.035(4) 0.003(3) -0.003(3) 0.003(3)
C13 0.023(3) 0.025(3) 0.024(4) 0.013(3) 0.004(2) 0.004(2)
C14 0.022(3) 0.027(4) 0.025(4) 0.014(3) 0.005(2) 0.005(2)
C15 0.038(4) 0.018(3) 0.032(3) 0.014(2) 0.008(3) 0.009(2)
C16 0.073(5) 0.019(3) 0.018(4) 0.006(3) 0.002(3) -0.003(3)
C17 0.035(4) 0.030(4) 0.019(4) 0.006(3) 0.003(3) 0.005(3)
C18 0.031(3) 0.038(4) 0.034(4) 0.014(4) 0.001(3) 0.003(3)
C19 0.041(4) 0.040(5) 0.040(5) 0.025(4) 0.001(3) -0.007(3)
C20 0.058(5) 0.044(6) 0.030(5) 0.017(4) -0.002(4) 0.005(4)
C21 0.047(5) 0.057(6) 0.046(6) 0.020(5) -0.006(4) 0.011(4)
C22 0.037(4) 0.045(5) 0.045(5) 0.023(4) 0.009(3) -0.005(3)
C23 0.029(3) 0.018(4) 0.032(4) 0.012(3) 0.005(3) 0.007(2)
C24 0.028(3) 0.036(4) 0.049(6) 0.026(4) 0.007(3) 0.008(3)
C25 0.028(3) 0.047(4) 0.037(4) 0.031(4) 0.001(3) 0.004(3)
C26 0.024(3) 0.035(4) 0.030(4) 0.020(3) -0.003(3) 0.001(3)
C27 0.029(3) 0.019(4) 0.026(4) 0.006(3) -0.001(3) 0.000(2)
C28 0.043(4) 0.019(4) 0.031(4) 0.006(3) -0.006(3) 0.007(3)
Br2 0.0795(6) 0.0324(5) 0.0334(5) 0.0218(4) 0.0105(4) 0.0170(3)
S2 0.0219(7) 0.0238(8) 0.0173(8) 0.0044(6) 0.0038(6) 0.0021(6)
O4 0.026(2) 0.033(3) 0.020(2) 0.005(2) 0.0014(17) 0.0026(18)
O5 0.032(2) 0.018(2) 0.026(3) 0.0022(19) 0.0089(19) -0.0024(17)
O6 0.037(3) 0.034(2) 0.030(2) 0.0120(19) -0.003(2) -0.003(2)
N4 0.019(2) 0.023(3) 0.021(3) 0.010(2) 0.0035(19) 0.0068(18)
N5 0.037(3) 0.018(3) 0.022(3) 0.009(2) 0.004(2) 0.005(2)
C29 0.049(4) 0.017(4) 0.018(4) 0.007(3) 0.010(3) 0.011(3)
C30 0.038(4) 0.026(4) 0.025(4) 0.005(3) 0.008(3) -0.001(3)
C31 0.028(3) 0.025(4) 0.024(4) 0.005(3) 0.001(2) 0.004(2)
C32 0.026(3) 0.022(4) 0.018(3) 0.010(3) 0.005(2) 0.005(2)
C33 0.019(3) 0.026(4) 0.015(3) 0.009(3) 0.004(2) 0.006(2)
C34 0.021(3) 0.025(3) 0.022(3) 0.004(3) 0.005(2) 0.003(2)
C35 0.024(3) 0.029(4) 0.032(4) 0.017(3) -0.001(3) 0.005(3)
C36 0.027(3) 0.034(4) 0.036(4) 0.019(3) 0.007(3) 0.000(3)
C37 0.024(3) 0.030(4) 0.018(3) 0.004(3) 0.003(2) 0.005(3)
C38 0.020(3) 0.029(4) 0.026(4) 0.008(3) 0.001(2) 0.011(2)
C39 0.034(4) 0.023(3) 0.030(4) 0.015(3) 0.008(3) 0.008(3)
C40 0.023(3) 0.033(4) 0.038(4) 0.012(3) -0.007(3) -0.004(3)
C41 0.017(3) 0.030(4) 0.019(3) 0.011(3) 0.003(2) 0.005(2)
C42 0.020(3) 0.021(4) 0.025(4) 0.010(3) 0.005(2) 0.004(2)
C43 0.018(3) 0.016(3) 0.025(4) 0.010(3) 0.004(2) -0.001(2)
C44 0.037(4) 0.020(3) 0.029(3) 0.015(3) 0.001(3) 0.001(2)
C45 0.062(5) 0.028(4) 0.019(4) 0.008(3) 0.010(3) 0.011(3)
C46 0.050(4) 0.015(3) 0.017(4) 0.005(3) 0.006(3) 0.004(3)
C47 0.036(4) 0.050(5) 0.032(4) 0.015(4) 0.001(3) -0.006(3)
C48 0.040(4) 0.061(6) 0.033(4) 0.025(4) -0.001(3) 0.019(4)
C49 0.055(5) 0.023(4) 0.032(5) 0.016(4) 0.006(3) 0.005(3)
C50 0.041(4) 0.027(4) 0.041(5) 0.011(4) 0.004(3) -0.007(3)
C51 0.031(3) 0.036(4) 0.029(4) 0.008(3) -0.002(3) 0.007(3)
C52 0.026(3) 0.035(5) 0.036(5) 0.016(4) 0.000(3) 0.005(3)
C53 0.032(3) 0.032(4) 0.041(5) 0.027(4) 0.004(3) 0.003(3)
C54 0.028(3) 0.045(4) 0.034(4) 0.030(4) 0.005(3) 0.009(3)
C55 0.027(3) 0.039(4) 0.022(3) 0.014(3) 0.003(3) 0.009(3)
C56 0.032(3) 0.021(4) 0.022(4) 0.003(3) -0.003(3) 0.002(2)
C57 0.052(4) 0.033(5) 0.021(4) 0.013(3) -0.010(3) 0.010(3)
loop_
_atom_type_symbol
_atom_type_description
_atom_type_scat_dispersion_real
_atom_type_scat_dispersion_imag
_atom_type_scat_source
C C 0.0033 0.0016 'International Tables Vol C Tables 4.2.6.8 and 6.1.1.4'
H H 0.0000 0.0000 'International Tables Vol C Tables 4.2.6.8 and 6.1.1.4'
Br Br -0.2901 2.4595 'International Tables Vol C Tables 4.2.6.8 and 6.1.1.4'
N N 0.0061 0.0033 'International Tables Vol C Tables 4.2.6.8 and 6.1.1.4'
O O 0.0106 0.0060 'International Tables Vol C Tables 4.2.6.8 and 6.1.1.4'
S S 0.1246 0.1234 'International Tables Vol C Tables 4.2.6.8 and 6.1.1.4'
loop_
_geom_angle_atom_site_label_1
_geom_angle_atom_site_label_2
_geom_angle_atom_site_label_3
_geom_angle
O2 S1 O1 120.2(3)
O2 S1 N1 105.6(3)
O1 S1 N1 106.7(3)
O2 S1 C6 110.3(3)
O1 S1 C6 109.4(3)
N1 S1 C6 103.2(3)
C5 N1 C13 106.9(5)
C5 N1 S1 120.6(4)
C13 N1 S1 120.0(4)
C5 C66 N3 125.5(6)
C5 C66 C14 108.5(6)
N3 C66 C14 125.9(6)
C15 N3 C66 121.9(5)
C15 N3 H3A 119.0
C66 N3 H3A 119.0
C28 C1 C2 122.8(7)
C28 C1 Br1 118.6(6)
C2 C1 Br1 118.7(5)
C1 C2 C3 118.4(6)
C1 C2 H2 120.8
C3 C2 H2 120.8
C4 C3 C2 120.0(6)
C4 C3 H3 120.0
C2 C3 H3 120.0
C27 C4 C3 119.9(6)
C27 C4 C5 118.0(5)
C3 C4 C5 122.0(6)
C66 C5 N1 109.1(5)
C66 C5 C4 124.8(6)
N1 C5 C4 125.7(5)
C11 C6 C7 121.0(5)
C11 C6 S1 119.5(5)
C7 C6 S1 119.4(5)
C8 C7 C6 118.4(6)
C8 C7 H7 120.8
C6 C7 H7 120.8
C7 C8 C9 121.8(6)
C7 C8 H8 119.1
C9 C8 H8 119.1
C10 C9 C8 118.6(6)
C10 C9 C12 120.6(6)
C8 C9 C12 120.7(6)
C9 C10 C11 121.2(6)
C9 C10 H10 119.4
C11 C10 H10 119.4
C6 C11 C10 118.9(6)
C6 C11 H11 120.6
C10 C11 H11 120.6
C9 C12 H12A 109.5
C9 C12 H12B 109.5
H12A C12 H12B 109.5
C9 C12 H12C 109.5
H12A C12 H12C 109.5
H12B C12 H12C 109.5
C14 C13 C26 122.0(6)
C14 C13 N1 107.6(6)
C26 C13 N1 130.3(6)
C13 C14 C23 120.2(7)
C13 C14 C66 107.8(6)
C23 C14 C66 132.0(7)
O3 C15 N3 122.0(6)
O3 C15 C16 123.0(6)
N3 C15 C16 115.0(6)
C17 C16 C15 110.8(5)
C18 C17 C22 117.8(7)
C18 C17 C16 121.3(6)
C22 C17 C16 120.9(6)
C17 C18 C19 122.1(7)
C17 C18 H18 118.9
C19 C18 H18 118.9
C20 C19 C18 120.3(7)
C20 C19 H19 119.9
C18 C19 H19 119.9
C21 C20 C19 118.6(8)
C21 C20 H20 120.7
C19 C20 H20 120.7
C20 C21 C22 121.2(7)
C20 C21 H21 119.4
C22 C21 H21 119.4
C17 C22 C21 120.0(6)
C17 C22 H22 120.0
C21 C22 H22 120.0
C24 C23 C14 119.0(7)
C24 C23 H23 120.5
C14 C23 H23 120.5
C23 C24 C25 120.5(7)
C23 C24 H24 119.8
C25 C24 H24 119.8
C26 C25 C24 121.8(7)
C26 C25 H25 119.1
C24 C25 H25 119.1
C25 C26 C13 116.5(7)
C25 C26 H26 121.7
C13 C26 H26 121.7
C4 C27 C28 120.9(6)
C4 C27 H27 119.5
C28 C27 H27 119.5
C1 C28 C27 118.0(7)
C1 C28 H28 121.0
C27 C28 H28 121.0
O5 S2 O4 120.3(3)
O5 S2 N4 106.5(3)
O4 S2 N4 105.0(3)
O5 S2 C34 108.9(3)
O4 S2 C34 110.2(3)
N4 S2 C34 104.7(3)
C41 N4 C33 106.4(5)
C41 N4 S2 122.5(4)
C33 N4 S2 124.8(4)
C44 N5 C43 123.7(5)
C44 N5 H5 118.2
C43 N5 H5 118.2
C57 C29 C30 121.6(7)
C57 C29 Br2 119.1(5)
C30 C29 Br2 119.3(5)
C31 C30 C29 118.7(6)
C31 C30 H30 120.6
C29 C30 H30 120.6
C30 C31 C32 121.8(6)
C30 C31 H31 119.1
C32 C31 H31 119.1
C31 C32 C56 118.6(6)
C31 C32 C33 123.7(6)
C56 C32 C33 117.2(5)
C43 C33 N4 108.0(5)
C43 C33 C32 126.3(6)
N4 C33 C32 125.6(6)
C39 C34 C35 119.6(5)
C39 C34 S2 121.4(5)
C35 C34 S2 119.0(5)
C36 C35 C34 119.5(6)
C36 C35 H35 120.2
C34 C35 H35 120.2
C35 C36 C37 120.9(6)
C35 C36 H36 119.6
C37 C36 H36 119.6
C38 C37 C36 118.5(6)
C38 C37 C40 121.2(6)
C36 C37 C40 120.3(6)
C39 C38 C37 121.2(6)
C39 C38 H38 119.4
C37 C38 H38 119.4
C38 C39 C34 120.3(6)
C38 C39 H39 119.9
C34 C39 H39 119.9
C37 C40 H40A 109.5
C37 C40 H40B 109.5
H40A C40 H40B 109.5
C37 C40 H40C 109.5
H40A C40 H40C 109.5
H40B C40 H40C 109.5
C42 C41 C55 121.5(6)
C42 C41 N4 108.4(6)
C55 C41 N4 130.1(6)
C41 C42 C52 120.9(7)
C41 C42 C43 107.0(6)
C52 C42 C43 132.1(7)
C33 C43 N5 124.9(6)
C33 C43 C42 110.2(6)
N5 C43 C42 124.5(5)
O6 C44 N5 122.5(6)
O6 C44 C45 122.6(6)
N5 C44 C45 115.0(6)
C44 C45 C46 108.5(5)
C47 C46 C51 118.9(7)
C47 C46 C45 120.7(6)
C51 C46 C45 120.4(6)
C48 C47 C46 121.0(6)
C48 C47 H47 119.5
C46 C47 H47 119.5
C47 C48 C49 120.2(7)
C47 C48 H48 119.9
C49 C48 H48 119.9
C50 C49 C48 119.9(7)
C50 C49 H49 120.1
C48 C49 H49 120.1
C49 C50 C51 120.4(6)
C49 C50 H50 119.8
C51 C50 H50 119.8
C46 C51 C50 119.5(7)
C46 C51 H51 120.2
C50 C51 H51 120.2
C53 C52 C42 116.9(8)
C53 C52 H52 121.6
C42 C52 H52 121.6
C54 C53 C52 121.3(7)
C54 C53 H53 119.3
C52 C53 H53 119.3
C53 C54 C55 122.1(7)
C53 C54 H54 118.9
C55 C54 H54 118.9
C54 C55 C41 117.3(7)
C54 C55 H55 121.4
C41 C55 H55 121.4
C57 C56 C32 120.5(6)
C57 C56 H56 119.7
C32 C56 H56 119.7
C29 C57 C56 118.8(6)
C29 C57 H57 120.6
C56 C57 H57 120.6
loop_
_geom_bond_atom_site_label_1
_geom_bond_atom_site_label_2
_geom_bond_distance
Br1 C1 1.903(8)
S1 O2 1.426(5)
S1 O1 1.426(5)
S1 N1 1.692(5)
S1 C6 1.752(6)
O3 C15 1.233(7)
N1 C5 1.414(8)
N1 C13 1.432(8)
C66 C5 1.359(9)
C66 N3 1.404(8)
C66 C14 1.432(9)
N3 C15 1.322(8)
N3 H3A 0.8600
C1 C28 1.369(10)
C1 C2 1.370(11)
C2 C3 1.401(9)
C2 H2 0.9300
C3 C4 1.382(9)
C3 H3 0.9300
C4 C27 1.374(9)
C4 C5 1.486(9)
C6 C11 1.380(9)
C6 C7 1.391(8)
C7 C8 1.374(8)
C7 H7 0.9300
C8 C9 1.379(9)
C8 H8 0.9300
C9 C10 1.377(9)
C9 C12 1.500(9)
C10 C11 1.382(9)
C10 H10 0.9300
C11 H11 0.9300
C12 H12A 0.9600
C12 H12B 0.9600
C12 H12C 0.9600
C13 C14 1.386(10)
C13 C26 1.391(9)
C14 C23 1.395(9)
C15 C16 1.528(10)
C16 C17 1.525(10)
C17 C18 1.370(10)
C17 C22 1.378(10)
C18 C19 1.379(11)
C18 H18 0.9300
C19 C20 1.370(11)
C19 H19 0.9300
C20 C21 1.366(12)
C20 H20 0.9300
C21 C22 1.401(12)
C21 H21 0.9300
C22 H22 0.9300
C23 C24 1.362(10)
C23 H23 0.9300
C24 C25 1.402(11)
C24 H24 0.9300
C25 C26 1.389(9)
C25 H25 0.9300
C26 H26 0.9300
C27 C28 1.395(10)
C27 H27 0.9300
C28 H28 0.9300
Br2 C29 1.891(7)
S2 O5 1.422(5)
S2 O4 1.426(5)
S2 N4 1.663(5)
S2 C34 1.748(6)
O6 C44 1.230(7)
N4 C41 1.436(8)
N4 C33 1.440(8)
N5 C44 1.326(8)
N5 C43 1.420(8)
N5 H5 0.8600
C29 C57 1.371(10)
C29 C30 1.397(10)
C30 C31 1.365(10)
C30 H30 0.9300
C31 C32 1.387(9)
C31 H31 0.9300
C32 C56 1.398(9)
C32 C33 1.467(8)
C33 C43 1.346(9)
C34 C39 1.371(9)
C34 C35 1.402(9)
C35 C36 1.366(8)
C35 H35 0.9300
C36 C37 1.398(9)
C36 H36 0.9300
C37 C38 1.375(9)
C37 C40 1.504(8)
C38 C39 1.370(8)
C38 H38 0.9300
C39 H39 0.9300
C40 H40A 0.9600
C40 H40B 0.9600
C40 H40C 0.9600
C41 C42 1.384(9)
C41 C55 1.391(8)
C42 C52 1.400(10)
C42 C43 1.434(9)
C44 C45 1.531(9)
C45 C46 1.549(9)
C46 C47 1.371(10)
C46 C51 1.386(10)
C47 C48 1.366(11)
C47 H47 0.9300
C48 C49 1.372(10)
C48 H48 0.9300
C49 C50 1.357(11)
C49 H49 0.9300
C50 C51 1.391(11)
C50 H50 0.9300
C51 H51 0.9300
C52 C53 1.399(10)
C52 H52 0.9300
C53 C54 1.373(11)
C53 H53 0.9300
C54 C55 1.376(9)
C54 H54 0.9300
C55 H55 0.9300
C56 C57 1.397(10)
C56 H56 0.9300
C57 H57 0.9300
loop_
_geom_torsion_atom_site_label_1
_geom_torsion_atom_site_label_2
_geom_torsion_atom_site_label_3
_geom_torsion_atom_site_label_4
_geom_torsion
O2 S1 N1 C5 -177.8(4)
O1 S1 N1 C5 53.2(5)
C6 S1 N1 C5 -62.0(5)
O2 S1 N1 C13 -40.9(5)
O1 S1 N1 C13 -169.8(4)
C6 S1 N1 C13 75.0(5)
C5 C66 N3 C15 -86.9(7)
C14 C66 N3 C15 89.1(7)
C28 C1 C2 C3 -1.1(11)
Br1 C1 C2 C3 178.9(5)
C1 C2 C3 C4 0.3(10)
C2 C3 C4 C27 1.4(10)
C2 C3 C4 C5 -173.7(6)
N3 C66 C5 N1 175.3(5)
C14 C66 C5 N1 -1.3(6)
N3 C66 C5 C4 2.0(9)
C14 C66 C5 C4 -174.6(5)
C13 N1 C5 C66 3.1(6)
S1 N1 C5 C66 145.0(4)
C13 N1 C5 C4 176.3(5)
S1 N1 C5 C4 -41.8(7)
C27 C4 C5 C66 -50.5(8)
C3 C4 C5 C66 124.7(7)
C27 C4 C5 N1 137.4(6)
C3 C4 C5 N1 -47.5(9)
O2 S1 C6 C11 35.9(6)
O1 S1 C6 C11 170.3(5)
N1 S1 C6 C11 -76.5(6)
O2 S1 C6 C7 -145.8(5)
O1 S1 C6 C7 -11.4(6)
N1 S1 C6 C7 101.8(5)
C11 C6 C7 C8 0.6(10)
S1 C6 C7 C8 -177.6(5)
C6 C7 C8 C9 -0.2(10)
C7 C8 C9 C10 -0.3(10)
C7 C8 C9 C12 -178.7(6)
C8 C9 C10 C11 0.4(11)
C12 C9 C10 C11 178.8(7)
C7 C6 C11 C10 -0.6(10)
S1 C6 C11 C10 177.7(5)
C9 C10 C11 C6 0.1(11)
C5 N1 C13 C14 -3.7(6)
S1 N1 C13 C14 -145.8(4)
C5 N1 C13 C26 179.6(6)
S1 N1 C13 C26 37.5(8)
C26 C13 C14 C23 -0.5(9)
N1 C13 C14 C23 -177.6(5)
C26 C13 C14 C66 179.9(5)
N1 C13 C14 C66 2.9(6)
C5 C66 C14 C13 -1.0(6)
N3 C66 C14 C13 -177.6(5)
C5 C66 C14 C23 179.5(6)
N3 C66 C14 C23 2.9(10)
C66 N3 C15 O3 -3.0(9)
C66 N3 C15 C16 176.6(6)
O3 C15 C16 C17 89.1(7)
N3 C15 C16 C17 -90.6(6)
C15 C16 C17 C18 -72.3(9)
C15 C16 C17 C22 109.5(8)
C22 C17 C18 C19 -0.6(12)
C16 C17 C18 C19 -178.9(8)
C17 C18 C19 C20 1.7(13)
C18 C19 C20 C21 -1.8(13)
C19 C20 C21 C22 1.0(14)
C18 C17 C22 C21 -0.2(12)
C16 C17 C22 C21 178.1(8)
C20 C21 C22 C17 0.0(14)
C13 C14 C23 C24 -0.8(9)
C66 C14 C23 C24 178.6(6)
C14 C23 C24 C25 1.5(9)
C23 C24 C25 C26 -1.0(10)
C24 C25 C26 C13 -0.3(9)
C14 C13 C26 C25 1.0(8)
N1 C13 C26 C25 177.3(5)
C3 C4 C27 C28 -2.3(10)
C5 C4 C27 C28 172.9(6)
C2 C1 C28 C27 0.2(11)
Br1 C1 C28 C27 -179.8(5)
C4 C27 C28 C1 1.5(11)
O5 S2 N4 C41 171.7(4)
O4 S2 N4 C41 43.0(5)
C34 S2 N4 C41 -73.1(5)
O5 S2 N4 C33 -40.0(5)
O4 S2 N4 C33 -168.7(4)
C34 S2 N4 C33 75.2(5)
C57 C29 C30 C31 -0.2(11)
Br2 C29 C30 C31 179.7(5)
C29 C30 C31 C32 0.0(10)
C30 C31 C32 C56 -0.1(10)
C30 C31 C32 C33 171.7(6)
C41 N4 C33 C43 -2.4(6)
S2 N4 C33 C43 -154.9(4)
C41 N4 C33 C32 -178.7(5)
S2 N4 C33 C32 28.8(7)
C31 C32 C33 C43 -115.3(8)
C56 C32 C33 C43 56.6(8)
C31 C32 C33 N4 60.4(8)
C56 C32 C33 N4 -127.7(6)
O5 S2 C34 C39 11.6(6)
O4 S2 C34 C39 145.5(5)
N4 S2 C34 C39 -102.0(6)
O5 S2 C34 C35 -168.8(5)
O4 S2 C34 C35 -34.9(6)
N4 S2 C34 C35 77.6(6)
C39 C34 C35 C36 0.7(10)
S2 C34 C35 C36 -178.9(6)
C34 C35 C36 C37 -2.1(11)
C35 C36 C37 C38 1.1(10)
C35 C36 C37 C40 -178.3(7)
C36 C37 C38 C39 1.3(10)
C40 C37 C38 C39 -179.3(6)
C37 C38 C39 C34 -2.6(10)
C35 C34 C39 C38 1.6(10)
S2 C34 C39 C38 -178.8(5)
C33 N4 C41 C42 0.9(6)
S2 N4 C41 C42 154.2(4)
C33 N4 C41 C55 178.7(5)
S2 N4 C41 C55 -28.0(8)
C55 C41 C42 C52 1.0(8)
N4 C41 C42 C52 179.0(5)
C55 C41 C42 C43 -177.2(5)
N4 C41 C42 C43 0.8(6)
N4 C33 C43 N5 -170.4(5)
C32 C33 C43 N5 5.9(9)
N4 C33 C43 C42 2.9(6)
C32 C33 C43 C42 179.3(5)
C44 N5 C43 C33 -90.9(7)
C44 N5 C43 C42 96.7(7)
C41 C42 C43 C33 -2.4(6)
C52 C42 C43 C33 179.7(6)
C41 C42 C43 N5 171.0(5)
C52 C42 C43 N5 -6.9(10)
C43 N5 C44 O6 -1.2(8)
C43 N5 C44 C45 177.6(5)
O6 C44 C45 C46 83.7(7)
N5 C44 C45 C46 -95.1(6)
C44 C45 C46 C47 -80.5(8)
C44 C45 C46 C51 100.9(8)
C51 C46 C47 C48 0.9(12)
C45 C46 C47 C48 -177.7(8)
C46 C47 C48 C49 -0.9(13)
C47 C48 C49 C50 1.8(13)
C48 C49 C50 C51 -2.5(12)
C47 C46 C51 C50 -1.6(11)
C45 C46 C51 C50 176.9(7)
C49 C50 C51 C46 2.5(12)
C41 C42 C52 C53 -0.2(9)
C43 C42 C52 C53 177.6(6)
C42 C52 C53 C54 -0.6(9)
C52 C53 C54 C55 0.6(9)
C53 C54 C55 C41 0.2(9)
C42 C41 C55 C54 -1.0(8)
N4 C41 C55 C54 -178.5(5)
C31 C32 C56 C57 0.4(10)
C33 C32 C56 C57 -172.0(6)
C30 C29 C57 C56 0.5(11)
Br2 C29 C57 C56 -179.4(5)
C32 C56 C57 C29 -0.6(11)
