#------------------------------------------------------------------------------
#$Date: 2016-07-01 05:06:51 +0300 (Fri, 01 Jul 2016) $
#$Revision: 184085 $
#$URL: file:///home/coder/svn-repositories/cod/cif/1/54/35/1543574.cif $
#------------------------------------------------------------------------------
#
# This file is available in the Crystallography Open Database (COD),
# http://www.crystallography.net/. The original data for this entry
# were provided by IUCr Journals, http://journals.iucr.org/.
#
# The file may be used within the scientific community so long as
# proper attribution is given to the journal article from which the
# data were obtained.
#
data_1543574
loop_
_publ_author_name
'\"Ozt\"urk, Filiz'
'Bulut, \.Iclal'
'Yavuz, Yunus Emre'
'Bulut, Ahmet'
_publ_section_title
;
 Sulfamethizole--2-amino-4,6-dimethoxypyrimidine (1/1)
;
_journal_coeditor_code           HB4056
_journal_issue                   6
_journal_name_full               IUCrData
_journal_page_first              x161030
_journal_paper_doi               10.1107/S2414314616010300
_journal_volume                  1
_journal_year                    2016
_chemical_formula_moiety         'C9 H10 N4 O2 S2, C6 H9 N3 O2'
_chemical_formula_sum            'C15 H19 N7 O4 S2'
_chemical_formula_weight         425.49
_chemical_name_common
;
Sulfamethizole--2-amino-4,6-dimethoxypyrimidine (1/1)
;
_chemical_name_systematic
;
4-Amino-<i>N</i>-(5-methyl-1,3,4-thiadiazol-2-yl)benzenesulfonamide;
2-amino-4,6-dimethoxypyrimidine
;
_space_group_crystal_system      triclinic
_space_group_IT_number           2
_space_group_name_Hall           '-P 1'
_space_group_name_H-M_alt        'P -1'
_symmetry_space_group_name_Hall  '-P 1'
_symmetry_space_group_name_H-M   'P -1'
_atom_sites_solution_hydrogens   mixed
_audit_creation_method           SHELXL-2014/7
_cell_angle_alpha                101.576(5)
_cell_angle_beta                 101.640(5)
_cell_angle_gamma                100.566(5)
_cell_formula_units_Z            2
_cell_length_a                   7.9645(5)
_cell_length_b                   10.3576(6)
_cell_length_c                   12.7222(7)
_cell_measurement_reflns_used    19970
_cell_measurement_temperature    293(2)
_cell_measurement_theta_max      26
_cell_measurement_theta_min      2.7
_cell_volume                     979.21(11)
_computing_cell_refinement
;
X-AREA (Stoe & Cie, 2002)
;
_computing_data_collection
;
X-AREA (Stoe & Cie, 2002)
;
_computing_data_reduction
;
X-RED32 (Stoe & Cie, 2002)
;
_computing_molecular_graphics
;
ORTEP-3 for Windows(Farrugia,2012)
;
_computing_publication_material
;
WinGX (Farrugia, 2012)
;
_computing_structure_refinement
;
SHELXL2014 (Sheldrick, 2015)
;
_computing_structure_solution
;
SHELXS97 (Sheldrick, 2008)
;
_diffrn_ambient_temperature      293(2)
_diffrn_detector_area_resol_mean 6.67
_diffrn_measured_fraction_theta_full 0.997
_diffrn_measured_fraction_theta_max 0.990
_diffrn_measurement_device_type  'Stoe IPDS II'
_diffrn_measurement_method       'rotation method'
_diffrn_radiation_type           MoK\a
_diffrn_radiation_wavelength     0.71073
_diffrn_reflns_av_R_equivalents  0.1183
_diffrn_reflns_limit_h_max       10
_diffrn_reflns_limit_h_min       -10
_diffrn_reflns_limit_k_max       13
_diffrn_reflns_limit_k_min       -13
_diffrn_reflns_limit_l_max       16
_diffrn_reflns_limit_l_min       -16
_diffrn_reflns_number            19762
_diffrn_reflns_theta_full        25.242
_diffrn_reflns_theta_max         27.597
_diffrn_reflns_theta_min         2.685
_exptl_absorpt_coefficient_mu    0.310
_exptl_absorpt_correction_T_max  0.875
_exptl_absorpt_correction_T_min  0.843
_exptl_absorpt_correction_type   integration
_exptl_absorpt_process_details
;
(X-RED32; Stoe & Cie, 2002)
;
_exptl_crystal_colour            colorless
_exptl_crystal_density_diffrn    1.443
_exptl_crystal_density_method    'not measured'
_exptl_crystal_description       prism
_exptl_crystal_F_000             444
_exptl_crystal_size_max          0.55
_exptl_crystal_size_mid          0.50
_exptl_crystal_size_min          0.43
_refine_diff_density_max         0.383
_refine_diff_density_min         -0.284
_refine_ls_extinction_method     none
_refine_ls_goodness_of_fit_ref   1.077
_refine_ls_hydrogen_treatment    mixed
_refine_ls_matrix_type           full
_refine_ls_number_parameters     273
_refine_ls_number_reflns         4515
_refine_ls_number_restraints     0
_refine_ls_restrained_S_all      1.077
_refine_ls_R_factor_all          0.0533
_refine_ls_R_factor_gt           0.0451
_refine_ls_shift/su_max          0.001
_refine_ls_shift/su_mean         0.000
_refine_ls_structure_factor_coef Fsqd
_refine_ls_weighting_details
'w=1/[\s^2^(Fo^2^)+(0.0598P)^2^+0.2223P] where P=(Fo^2^+2Fc^2^)/3'
_refine_ls_weighting_scheme      calc
_refine_ls_wR_factor_gt          0.1065
_refine_ls_wR_factor_ref         0.1109
_reflns_number_gt                3910
_reflns_number_total             4515
_reflns_threshold_expression     'I > 2\s(I)'
_cod_data_source_file            hb4056sup1.cif
_cod_data_source_block           I
_cod_original_cell_volume        979.21(10)
_cod_database_code               1543574
_shelx_space_group_comment
;
The symmetry employed for this shelxl refinement is uniquely defined
by the following loop, which should always be used as a source of
symmetry information in preference to the above space-group names.
They are only intended as comments.
;
_shelx_hkl_file
;
  -1   0   0   37.93    0.59   0
   1   0   0   38.11    0.72   0
  -1   0   0   36.78    0.50   0
   1   0   0   36.75    0.50   0
   2   0   0    4.10    0.33   0
   2   0   0    3.99    0.26   0
  -2   0   0    4.01    0.25   0
  -2   0   0    4.17    0.33   0
   2   0   0    4.33    0.27   0
   3   0   0   14.31    0.28   0
  -3   0   0   13.59    0.22   0
  -3   0   0   13.96    0.34   0
   3   0   0   13.14    0.33   0
   3   0   0   13.10    0.23   0
   4   0   0    3.27    0.24   0
  -4   0   0    3.30    0.15   0
   4   0   0    3.33    0.17   0
   4   0   0    3.64    0.19   0
  -4   0   0    3.42    0.23   0
  -5   0   0    1.46    0.22   0
   5   0   0    1.34    0.15   0
   5   0   0    1.51    0.25   0
   5   0   0    1.65    0.18   0
  -5   0   0    1.46    0.15   0
   6   0   0    5.40    0.19   0
   6   0   0    5.61    0.20   0
  -6   0   0    5.34    0.26   0
   6   0   0    5.27    0.27   0
  -6   0   0    5.49    0.16   0
  -7   0   0    1.98    0.14   0
   7   0   0    1.82    0.19   0
   7   0   0    1.88    0.17   0
   7   0   0    1.78    0.32   0
   8   0   0    1.42    0.19   0
   8   0   0    1.17    0.15   0
  -8   0   0    1.23    0.14   0
   9   0   0    0.53    0.21   0
  -9   0   0    0.71    0.17   0
   9   0   0    0.33    0.16   0
  10  -1   0    0.45    0.22   0
   9  -1   0    0.07    0.19   0
  -9   1   0    0.22    0.16   0
   9  -1   0    0.05    0.17   0
   8  -1   0    1.59    0.18   0
   8  -1   0    1.56    0.20   0
   8  -1   0    1.33    0.23   0
  -8   1   0    1.35    0.23   0
  -8   1   0    1.55    0.14   0
   7  -1   0   12.95    0.19   0
   7  -1   0   14.21    0.25   0
  -7   1   0   13.80    0.27   0
  -7   1   0   14.16    0.19   0
   7  -1   0   13.46    0.27   0
  -6   1   0   11.00    0.17   0
   6  -1   0   10.54    0.25   0
  -6   1   0   10.62    0.25   0
   6  -1   0   10.84    0.24   0
   6  -1   0   10.28    0.18   0
  -5   1   0   28.56    0.25   0
   5  -1   0   28.05    0.24   0
   5  -1   0   29.59    0.32   0
   5  -1   0   27.26    0.31   0
  -5   1   0   28.73    0.32   0
   4  -1   0    8.45    0.19   0
   4  -1   0    8.01    0.23   0
  -4   1   0    8.52    0.23   0
  -4   1   0    8.14    0.17   0
   4  -1   0    8.63    0.24   0
  -4   1   0    8.32    0.23   0
   3  -1   0   46.31    0.32   0
   3  -1   0   46.83    0.42   0
  -3   1   0   47.55    0.43   0
  -3   1   0   44.58    0.39   0
   3  -1   0   45.02    0.39   0
  -3   1   0   45.96    0.31   0
  -2   1   0   63.37    0.59   0
   2  -1   0   62.23    0.48   0
  -2   1   0   62.06    0.42   0
  -2   1   0   60.66    0.48   0
   2  -1   0   60.88    0.57   0
   2  -1   0   63.68    0.43   0
  -1   1   0   50.81    0.50   0
   1  -1   0   52.99    0.50   0
   1  -1   0   51.86    0.48   0
  -1   1   0   52.52    0.48   0
   1   1   0   63.41    0.81   0
   1   1   0   71.59    0.89   0
  -1  -1   0   65.61    0.82   0
  -1  -1   0   69.89    0.89   0
   2   1   0   12.26    0.52   0
   2   1   0   13.15    0.34   0
  -2  -1   0   13.88    0.34   0
   2   1   0   14.10    0.54   0
   3   1   0   59.72    0.80   0
   3   1   0   57.68    0.41   0
   3   1   0   59.95    0.39   0
   3   1   0   59.29    0.79   0
  -3  -1   0   61.75    0.43   0
  -4  -1   0   12.50    0.22   0
   4   1   0   12.76    0.46   0
   4   1   0   12.63    0.22   0
   4   1   0   12.19    0.46   0
   4   1   0   11.92    0.23   0
   5   1   0    7.45    0.19   0
  -5  -1   0    7.28    0.19   0
   5   1   0    7.23    0.20   0
  -6  -1   0    0.96    0.17   0
   6   1   0    0.90    0.16   0
   6   1   0    0.95    0.18   0
  -7  -1   0    1.00    0.16   0
   7   1   0    0.94    0.18   0
   7   1   0    0.94    0.16   0
  -8  -1   0    3.68    0.18   0
   8   1   0    3.57    0.19   0
   8   1   0    4.06    0.19   0
   9   1   0    2.62    0.20   0
   9   1   0    3.09    0.20   0
  -9  -1   0    3.13    0.18   0
  10  -2   0    0.37    0.33   0
  10  -2   0    0.39    0.19   0
 -10   2   0    0.39    0.15   0
   9  -2   0    1.71    0.22   0
  -9   2   0    1.70    0.14   0
  -9   2   0    1.67    0.22   0
   9  -2   0    1.73    0.16   0
  -8   2   0    0.56    0.17   0
   8  -2   0    0.74    0.19   0
   8  -2   0    0.70    0.15   0
  -8   2   0    0.65    0.14   0
   8  -2   0    0.74    0.19   0
  -7   2   0    4.65    0.20   0
   7  -2   0    4.62    0.20   0
   7  -2   0    4.49    0.20   0
  -7   2   0    4.32    0.15   0
   7  -2   0    4.38    0.16   0
   6  -2   0    0.36    0.15   0
   6  -2   0    0.32    0.16   0
   6  -2   0    0.45    0.18   0
  -6   2   0    0.57    0.14   0
  -6   2   0    0.49    0.16   0
  -5   2   0   60.09    0.30   0
   5  -2   0   59.59    0.41   0
  -5   2   0   59.16    0.35   0
   5  -2   0   58.29    0.35   0
  -5   2   0   61.49    0.43   0
   5  -2   0   59.95    0.30   0
   4  -2   0    0.15    0.16   0
  -4   2   0    0.12    0.19   0
  -4   2   0    0.16    0.15   0
  -4   2   0    0.36    0.12   0
   4  -2   0    0.14    0.18   0
   4  -2   0    0.06    0.13   0
  -3   2   0   51.43    0.31   0
   3  -2   0   51.06    0.34   0
  -3   2   0   49.55    0.34   0
  -3   2   0   52.20    0.44   0
   3  -2   0   51.92    0.32   0
   2  -2   0    5.10    0.22   0
   2  -2   0    5.18    0.22   0
  -2   2   0    4.87    0.21   0
  -2   2   0    5.26    0.25   0
  -2   2   0    5.21    0.22   0
   1  -2   0    4.99    0.23   0
   1  -2   0    4.85    0.21   0
  -1   2   0    4.81    0.21   0
  -1   2   0    5.12    0.23   0
   0   2   0  103.16    0.58   0
   0  -2   0  102.26    0.74   0
   0  -2   0  104.60    0.58   0
   0   2   0  104.81    0.75   0
  -1  -2   0   62.13    0.52   0
   1   2   0   61.55    0.53   0
   1   2   0   59.33    0.94   0
   2   2   0   17.05    0.43   0
  -2  -2   0   16.35    0.38   0
   2   2   0   15.46    0.39   0
  -2  -2   0   17.75    0.42   0
   3   2   0   19.52    0.51   0
   3   2   0   20.67    0.33   0
  -3  -2   0   22.21    0.33   0
   3   2   0   22.05    0.51   0
  -4  -2   0   53.34    0.40   0
   4   2   0   51.08    0.32   0
   4   2   0   48.38    0.37   0
   5   2   0    0.08    0.19   0
   5   2   0    0.02    0.14   0
  -5  -2   0   -0.06    0.18   0
  -6  -2   0    5.74    0.18   0
   6   2   0    5.72    0.19   0
   6   2   0    5.53    0.22   0
  -7  -2   0    2.68    0.20   0
   7   2   0    2.41    0.18   0
   7   2   0    2.34    0.19   0
   8   2   0    0.61    0.18   0
  -8  -2   0    0.53    0.19   0
   8   2   0    0.64    0.18   0
   9   2   0    0.91    0.21   0
  -9  -2   0    1.26    0.20   0
   9   2   0    1.31    0.18   0
 -10   3   0    0.65    0.21   0
 -10   3   0    0.99    0.15   0
  10  -3   0    0.90    0.23   0
  10  -3   0    0.61    0.16   0
   9  -3   0   -0.01    0.18   0
  -9   3   0    0.09    0.18   0
  -9   3   0    0.08    0.14   0
   9  -3   0    0.16    0.15   0
  -8   3   0    0.15    0.18   0
   8  -3   0    0.06    0.14   0
   8  -3   0    0.24    0.18   0
  -8   3   0    0.31    0.13   0
  -7   3   0   14.25    0.18   0
   7  -3   0   12.59    0.22   0
  -7   3   0   13.59    0.22   0
   7  -3   0   13.68    0.19   0
  -6   3   0   18.97    0.20   0
  -6   3   0   19.12    0.23   0
  -6   3   0   19.74    0.28   0
   6  -3   0   18.80    0.23   0
   6  -3   0   18.82    0.21   0
  -5   3   0    6.40    0.20   0
   5  -3   0    6.23    0.16   0
  -5   3   0    6.66    0.16   0
  -5   3   0    6.23    0.16   0
   5  -3   0    6.12    0.17   0
  -4   3   0   39.20    0.34   0
   4  -3   0   38.36    0.26   0
  -4   3   0   38.77    0.25   0
  -4   3   0   37.01    0.26   0
   4  -3   0   37.94    0.27   0
  -3   3   0    4.24    0.21   0
  -3   3   0    3.76    0.16   0
   3  -3   0    3.91    0.16   0
  -3   3   0    4.12    0.16   0
   3  -3   0    3.93    0.17   0
  -2   3   0    2.58    0.15   0
  -2   3   0    2.50    0.17   0
   2  -3   0    2.36    0.16   0
   2  -3   0    2.50    0.18   0
   1  -3   0   93.53    0.48   0
  -1   3   0   93.64    0.48   0
  -1   3   0   92.96    0.42   0
   1  -3   0   94.26    0.44   0
   0   3   0   35.80    0.42   0
   0   3   0   35.24    0.32   0
   0  -3   0   34.91    0.32   0
   0  -3   0   34.04    0.42   0
  -1  -3   0   17.79    0.49   0
   1   3   0   17.05    0.28   0
  -1  -3   0   17.43    0.27   0
   1   3   0   17.04    0.48   0
   2   3   0   67.80    0.49   0
   2   3   0   75.04    0.88   0
   2   3   0   66.85    0.85   0
  -2  -3   0   69.74    0.48   0
   3   3   0    0.01    0.24   0
   3   3   0    0.06    0.23   0
   3   3   0   -0.04    0.23   0
  -4  -3   0    3.42    0.24   0
   4   3   0    2.92    0.26   0
   5   3   0    7.82    0.17   0
   5   3   0    7.32    0.25   0
  -5  -3   0    8.19    0.26   0
  -6  -3   0   10.84    0.26   0
   6   3   0    9.52    0.25   0
   6   3   0   10.49    0.20   0
   7   3   0   18.86    0.28   0
   7   3   0   20.00    0.24   0
  -7  -3   0   20.98    0.29   0
   8   3   0    0.01    0.18   0
   8   3   0    0.31    0.22   0
  -8  -3   0    0.12    0.19   0
   9   3   0    0.45    0.19   0
   9   3   0    0.26    0.23   0
  10  -4   0    0.58    0.16   0
 -10   4   0    0.55    0.15   0
  10  -4   0    0.61    0.20   0
 -10   4   0    0.62    0.21   0
   9  -4   0    2.57    0.19   0
  -9   4   0    2.68    0.20   0
   9  -4   0    2.37    0.16   0
  -9   4   0    2.39    0.15   0
  -8   4   0    2.65    0.14   0
  -8   4   0    2.66    0.18   0
   8  -4   0    2.45    0.12   0
   8  -4   0    2.27    0.17   0
  -7   4   0    2.59    0.14   0
   7  -4   0    2.46    0.15   0
  -7   4   0    2.72    0.21   0
  -7   4   0    2.52    0.12   0
   7  -4   0    2.43    0.14   0
  -6   4   0    0.92    0.13   0
   6  -4   0    0.72    0.15   0
   6  -4   0    0.86    0.14   0
  -6   4   0    0.89    0.19   0
  -6   4   0    0.83    0.12   0
  -5   4   0    0.83    0.14   0
  -5   4   0    0.67    0.18   0
  -5   4   0    0.70    0.15   0
   5  -4   0    0.75    0.14   0
   5  -4   0    0.89    0.15   0
   4  -4   0    4.02    0.17   0
  -4   4   0    3.88    0.16   0
  -4   4   0    3.93    0.18   0
   4  -4   0    4.02    0.17   0
  -4   4   0    3.93    0.16   0
   3  -4   0   20.08    0.21   0
  -3   4   0   19.77    0.21   0
  -3   4   0   20.79    0.21   0
   3  -4   0   19.74    0.20   0
   2  -4   0   19.59    0.23   0
   2  -4   0   19.49    0.20   0
  -2   4   0   19.90    0.22   0
  -2   4   0   20.23    0.23   0
   1  -4   0   12.21    0.18   0
   1  -4   0   12.45    0.24   0
  -1   4   0   12.86    0.22   0
  -1   4   0   12.32    0.20   0
   0   4   0   51.45    0.41   0
   0   4   0   49.75    0.29   0
   0  -4   0   48.55    0.41   0
   0  -4   0   48.81    0.30   0
  -1  -4   0    1.40    0.27   0
   1   4   0    1.46    0.27   0
  -1  -4   0    1.26    0.15   0
   1   4   0    1.33    0.17   0
  -2  -4   0   30.76    0.30   0
   2   4   0   30.41    0.30   0
   3   4   0    1.10    0.20   0
  -3  -4   0    1.23    0.21   0
   4   4   0    2.70    0.29   0
   4   4   0    2.76    0.28   0
   4   4   0    2.67    0.35   0
   4   4   0    2.79    0.33   0
   5   4   0    0.96    0.13   0
   5   4   0    1.03    0.26   0
   5   4   0    0.96    0.26   0
   6   4   0    2.09    0.15   0
   6   4   0    1.85    0.24   0
   6   4   0    1.65    0.25   0
   7   4   0    1.00    0.24   0
   7   4   0    1.05    0.25   0
   7   4   0    1.21    0.15   0
   8   4   0    0.64    0.16   0
   8   4   0    0.64    0.24   0
   8   4   0    0.48    0.25   0
 -10   5   0    0.10    0.19   0
  10  -5   0    0.18    0.16   0
  10  -5   0    0.21    0.18   0
  -9   5   0    0.17    0.17   0
  -9   5   0    0.30    0.14   0
   9  -5   0    0.29    0.15   0
   9  -5   0    0.38    0.16   0
   8  -5   0    0.25    0.16   0
  -8   5   0    0.42    0.20   0
  -8   5   0    0.27    0.16   0
  -8   5   0    0.17    0.14   0
   8  -5   0    0.33    0.15   0
   7  -5   0    1.19    0.15   0
   7  -5   0    1.00    0.14   0
  -7   5   0    1.10    0.13   0
  -7   5   0    1.23    0.18   0
  -7   5   0    1.19    0.13   0
  -6   5   0    0.65    0.13   0
   6  -5   0    0.66    0.12   0
  -6   5   0    0.60    0.18   0
  -6   5   0    0.76    0.11   0
   6  -5   0    0.61    0.14   0
  -5   5   0    4.62    0.15   0
  -5   5   0    4.61    0.20   0
   5  -5   0    4.46    0.16   0
   5  -5   0    4.73    0.16   0
  -5   5   0    4.66    0.15   0
  -4   5   0  139.09    0.41   0
   4  -5   0  139.56    0.41   0
  -4   5   0  141.17    0.50   0
   4  -5   0  142.77    0.40   0
  -4   5   0  145.85    0.41   0
  -3   5   0   32.98    0.22   0
   3  -5   0   34.44    0.24   0
   3  -5   0   33.89    0.25   0
  -3   5   0   34.68    0.23   0
  -2   5   0    5.40    0.17   0
  -2   5   0    5.58    0.16   0
   2  -5   0    5.47    0.18   0
   2  -5   0    5.41    0.13   0
  -1   5   0   15.88    0.20   0
   1  -5   0   15.60    0.17   0
  -1   5   0   16.68    0.21   0
   1  -5   0   15.62    0.22   0
   0   5   0    2.37    0.19   0
   0  -5   0    2.26    0.20   0
   0  -5   0    2.35    0.15   0
   0   5   0    2.49    0.15   0
   1   5   0   17.97    0.23   0
   1   5   0   18.95    0.34   0
  -1  -5   0   17.85    0.34   0
  -1  -5   0   17.85    0.20   0
   2   5   0    0.30    0.16   0
  -2  -5   0    0.32    0.15   0
   3   5   0   27.32    0.32   0
  -3  -5   0   28.39    0.30   0
   4   5   0    0.29    0.22   0
   6   5   0    0.13    0.16   0
   7   5   0    2.08    0.15   0
   8   5   0    0.22    0.15   0
   9  -6   0    0.24    0.16   0
   9  -6   0    0.36    0.15   0
  -9   6   0    0.35    0.16   0
  -9   6   0    0.28    0.14   0
  -9   6   0    0.34    0.22   0
   8  -6   0    0.41    0.12   0
  -8   6   0    0.25    0.20   0
  -8   6   0   -0.00    0.13   0
  -8   6   0    0.30    0.13   0
   8  -6   0    0.24    0.16   0
   7  -6   0    7.78    0.17   0
  -7   6   0    7.85    0.14   0
  -7   6   0    7.49    0.16   0
   7  -6   0    8.13    0.17   0
  -7   6   0    7.83    0.23   0
   6  -6   0    1.46    0.15   0
  -6   6   0    1.63    0.14   0
   6  -6   0    1.55    0.12   0
  -6   6   0    1.45    0.14   0
  -6   6   0    1.58    0.18   0
  -5   6   0    1.54    0.15   0
   5  -6   0    1.75    0.16   0
   5  -6   0    1.73    0.15   0
  -5   6   0    1.78    0.15   0
  -5   6   0    1.49    0.15   0
  -4   6   0   57.26    0.26   0
   4  -6   0   60.84    0.28   0
  -4   6   0   59.95    0.28   0
   4  -6   0   57.40    0.29   0
  -3   6   0    2.06    0.14   0
   3  -6   0    2.20    0.17   0
  -3   6   0    2.13    0.15   0
   3  -6   0    2.17    0.14   0
  -2   6   0    7.89    0.16   0
   2  -6   0    7.64    0.18   0
  -2   6   0    8.22    0.17   0
   2  -6   0    7.82    0.14   0
   1  -6   0   14.41    0.23   0
  -1   6   0   15.30    0.22   0
  -1   6   0   14.82    0.17   0
   1  -6   0   14.74    0.19   0
   0   6   0    2.87    0.15   0
   0   6   0    3.00    0.18   0
   0  -6   0    2.84    0.18   0
   0  -6   0    2.84    0.15   0
  -1  -6   0   15.03    0.19   0
   1   6   0   16.49    0.32   0
   1   6   0   15.62    0.21   0
  -1  -6   0   15.45    0.32   0
   2   6   0    0.38    0.16   0
  -2  -6   0    0.48    0.15   0
   3   6   0    2.61    0.19   0
  -3  -6   0    2.89    0.17   0
   4   6   0    0.96    0.20   0
   5   6   0    2.39    0.33   0
   5   6   0    2.47    0.33   0
   6   6   0    1.56    0.18   0
   7   6   0    1.31    0.16   0
   9  -7   0    1.17    0.15   0
   9  -7   0    1.28    0.16   0
  -9   7   0    1.26    0.15   0
  -9   7   0    1.19    0.17   0
  -9   7   0    1.27    0.23   0
  -8   7   0    0.44    0.11   0
   8  -7   0    0.48    0.15   0
   8  -7   0    0.64    0.15   0
  -8   7   0    0.41    0.19   0
  -8   7   0    0.47    0.14   0
  -7   7   0    3.81    0.15   0
   7  -7   0    3.61    0.15   0
  -7   7   0    4.26    0.14   0
  -7   7   0    3.84    0.20   0
   7  -7   0    3.72    0.13   0
   6  -7   0   19.17    0.18   0
   6  -7   0   19.83    0.20   0
  -6   7   0   19.48    0.19   0
  -6   7   0   19.53    0.24   0
  -6   7   0   18.67    0.19   0
   5  -7   0    2.53    0.13   0
  -5   7   0    2.51    0.14   0
  -5   7   0    2.36    0.12   0
   5  -7   0    2.70    0.15   0
  -5   7   0    2.49    0.16   0
   4  -7   0    3.79    0.16   0
  -4   7   0    3.45    0.15   0
   4  -7   0    3.78    0.15   0
  -4   7   0    3.94    0.16   0
   3  -7   0   13.07    0.19   0
  -3   7   0   12.94    0.15   0
   3  -7   0   12.92    0.15   0
  -3   7   0   13.53    0.18   0
   2  -7   0    1.33    0.13   0
  -2   7   0    1.28    0.15   0
   2  -7   0    1.14    0.16   0
  -2   7   0    1.02    0.14   0
  -1   7   0   11.20    0.15   0
   1  -7   0   10.84    0.21   0
   1  -7   0   11.20    0.17   0
  -1   7   0   11.79    0.20   0
   0   7   0   13.01    0.25   0
   0  -7   0   12.34    0.18   0
   0   7   0   12.32    0.18   0
   0  -7   0   12.03    0.25   0
  -1  -7   0    0.14    0.22   0
  -1  -7   0    0.17    0.14   0
   1   7   0    0.00    0.20   0
   1   7   0   -0.05    0.15   0
  -2  -7   0   18.72    0.21   0
   2   7   0   18.45    0.24   0
  -3  -7   0    5.32    0.18   0
   3   7   0    5.42    0.18   0
   4   7   0    7.11    0.23   0
  -4  -7   0    7.96    0.23   0
   5   7   0    4.08    0.29   0
   5   7   0    3.74    0.28   0
   6   7   0    0.72    0.14   0
   7   7   0    0.08    0.16   0
   9  -8   0    3.03    0.16   0
  -9   8   0    2.87    0.16   0
  -9   8   0    2.81    0.16   0
  -9   8   0    3.08    0.24   0
   9  -8   0    2.96    0.14   0
   8  -8   0    0.43    0.15   0
  -8   8   0    0.40    0.14   0
   8  -8   0    0.16    0.14   0
  -8   8   0    0.24    0.11   0
  -8   8   0    0.33    0.19   0
   7  -8   0    0.15    0.14   0
  -7   8   0    0.28    0.16   0
   7  -8   0    0.00    0.13   0
  -7   8   0    0.41    0.13   0
  -7   8   0    0.31    0.10   0
   6  -8   0    0.22    0.14   0
  -6   8   0    0.41    0.14   0
  -6   8   0    0.04    0.13   0
   6  -8   0   -0.08    0.14   0
  -6   8   0    0.01    0.15   0
   5  -8   0    4.96    0.16   0
   5  -8   0    5.68    0.15   0
  -5   8   0    5.15    0.12   0
  -5   8   0    5.39    0.13   0
   4  -8   0    0.69    0.16   0
  -4   8   0    0.61    0.14   0
   4  -8   0    0.65    0.11   0
  -4   8   0    0.78    0.15   0
   3  -8   0   14.74    0.19   0
   3  -8   0   15.10    0.18   0
  -3   8   0   15.69    0.19   0
  -3   8   0   15.42    0.18   0
  -2   8   0    2.82    0.15   0
   2  -8   0    3.34    0.14   0
  -2   8   0    3.42    0.15   0
   2  -8   0    3.16    0.16   0
  -1   8   0   11.41    0.17   0
   1  -8   0   11.51    0.22   0
   1  -8   0   11.36    0.17   0
  -1   8   0   12.52    0.21   0
   0  -8   0   -0.05    0.13   0
   0   8   0    0.00    0.13   0
   0   8   0   -0.10    0.16   0
   0  -8   0    0.02    0.17   0
   1   8   0    8.25    0.26   0
   1   8   0    7.85    0.16   0
  -1  -8   0    7.98    0.25   0
  -1  -8   0    7.60    0.16   0
   2   8   0    3.67    0.17   0
  -2  -8   0    3.63    0.17   0
   3   8   0   18.88    0.24   0
  -3  -8   0   20.10    0.25   0
   4   8   0    0.59    0.17   0
  -4  -8   0    0.40    0.17   0
   5   8   0    0.03    0.22   0
   5   8   0    0.03    0.22   0
   6   8   0    0.65    0.15   0
   8  -9   0    0.60    0.15   0
  -8   9   0    0.63    0.12   0
  -8   9   0    0.58    0.14   0
   8  -9   0    0.88    0.14   0
  -8   9   0    0.73    0.19   0
   7  -9   0    1.69    0.15   0
   7  -9   0    1.86    0.14   0
  -7   9   0    1.59    0.14   0
  -7   9   0    1.64    0.17   0
  -7   9   0    1.62    0.14   0
   6  -9   0    9.75    0.18   0
  -6   9   0    9.39    0.14   0
  -6   9   0    9.42    0.20   0
  -6   9   0    9.71    0.17   0
   6  -9   0   10.04    0.17   0
  -5   9   0    2.84    0.15   0
  -5   9   0    2.74    0.14   0
   5  -9   0    2.85    0.14   0
   5  -9   0    2.85    0.16   0
  -4   9   0    2.90    0.14   0
   4  -9   0    2.66    0.15   0
  -4   9   0    2.31    0.14   0
   4  -9   0    2.76    0.14   0
  -3   9   0    9.45    0.16   0
  -3   9   0    9.59    0.17   0
   3  -9   0    8.72    0.18   0
   3  -9   0    9.26    0.16   0
  -2   9   0    0.51    0.11   0
  -2   9   0    0.53    0.14   0
   2  -9   0    0.56    0.17   0
   2  -9   0    0.57    0.11   0
  -1   9   0    1.19    0.15   0
  -1   9   0    1.12    0.17   0
   1  -9   0    1.25    0.14   0
   1  -9   0    1.23    0.18   0
   0  -9   0    0.75    0.19   0
   0   9   0    0.52    0.18   0
   0   9   0    0.54    0.14   0
   0  -9   0    0.41    0.14   0
  -1  -9   0   -0.08    0.13   0
   1   9   0    0.01    0.13   0
  -1  -9   0    0.07    0.22   0
   1   9   0    0.13    0.21   0
   2   9   0    0.79    0.15   0
  -2  -9   0    0.77    0.15   0
  -3  -9   0    0.25    0.15   0
   3   9   0    0.18    0.16   0
  -4  -9   0    0.07    0.18   0
   4   9   0    0.06    0.18   0
   5   9   0    2.02    0.25   0
   5   9   0    2.29    0.24   0
  -8  10   0    0.41    0.20   0
  -8  10   0    0.43    0.14   0
  -8  10   0    0.42    0.15   0
   8 -10   0    0.11    0.16   0
   8 -10   0    0.33    0.15   0
  -7  10   0    0.11    0.17   0
  -7  10   0    0.46    0.15   0
   7 -10   0   -0.13    0.15   0
   7 -10   0    0.09    0.12   0
  -7  10   0    0.30    0.14   0
   6 -10   0    1.85    0.15   0
   6 -10   0    1.60    0.13   0
  -6  10   0    1.45    0.14   0
  -6  10   0    1.92    0.14   0
  -6  10   0    1.71    0.16   0
  -5  10   0    4.38    0.15   0
   5 -10   0    4.11    0.15   0
   5 -10   0    4.06    0.13   0
  -5  10   0    4.30    0.15   0
  -4  10   0    0.10    0.10   0
   4 -10   0   -0.10    0.11   0
  -4  10   0   -0.09    0.13   0
   4 -10   0    0.26    0.15   0
  -3  10   0   17.15    0.21   0
   3 -10   0   15.65    0.16   0
   3 -10   0   15.49    0.20   0
  -3  10   0   15.99    0.18   0
   2 -10   0    0.82    0.15   0
  -2  10   0    0.91    0.13   0
   2 -10   0    0.85    0.14   0
  -2  10   0    0.82    0.11   0
   1 -10   0    8.04    0.16   0
  -1  10   0    7.70    0.16   0
  -1  10   0    8.68    0.20   0
   1 -10   0    7.76    0.20   0
   0  10   0    2.06    0.16   0
   0 -10   0    1.89    0.19   0
   0  10   0    2.08    0.19   0
   0 -10   0    2.02    0.14   0
   1  10   0    0.14    0.13   0
   1  10   0    0.21    0.22   0
  -1 -10   0    0.27    0.23   0
  -1 -10   0    0.29    0.12   0
  -2 -10   0    1.98    0.16   0
   2  10   0    1.97    0.16   0
  -3 -10   0    3.21    0.18   0
   3  10   0    3.00    0.18   0
   4  10   0   -0.01    0.19   0
  -4 -10   0    0.02    0.19   0
  -7  11   0    0.65    0.15   0
  -7  11   0    0.40    0.18   0
   7 -11   0    0.23    0.15   0
  -7  11   0    0.40    0.13   0
   7 -11   0    0.47    0.16   0
   6 -11   0    0.17    0.15   0
  -6  11   0   -0.02    0.14   0
   6 -11   0    0.30    0.14   0
  -6  11   0    0.36    0.14   0
  -6  11   0    0.00    0.14   0
   5 -11   0    0.06    0.11   0
   5 -11   0    0.37    0.15   0
  -5  11   0    0.06    0.14   0
  -5  11   0    0.39    0.13   0
  -4  11   0    1.80    0.14   0
   4 -11   0    1.95    0.14   0
  -4  11   0    1.95    0.18   0
   4 -11   0    1.94    0.15   0
  -3  11   0   -0.01    0.15   0
   3 -11   0    0.14    0.13   0
  -3  11   0    0.14    0.11   0
   3 -11   0    0.31    0.15   0
   2 -11   0    0.30    0.17   0
   2 -11   0    0.14    0.13   0
  -2  11   0   -0.17    0.16   0
  -2  11   0    0.00    0.13   0
  -1  11   0    0.67    0.13   0
   1 -11   0    0.62    0.16   0
   1 -11   0    0.67    0.13   0
  -1  11   0    0.55    0.18   0
   0 -11   0    0.20    0.13   0
   0  11   0    0.10    0.14   0
   0 -11   0    0.20    0.20   0
   0  11   0   -0.03    0.18   0
   1  11   0    0.22    0.14   0
   1  11   0    0.19    0.27   0
  -1 -11   0    0.28    0.13   0
  -1 -11   0    0.13    0.27   0
   2  11   0    0.10    0.17   0
  -2 -11   0   -0.03    0.15   0
  -3 -11   0    3.61    0.19   0
   3  11   0    2.92    0.19   0
   6 -12   0    0.51    0.16   0
  -6  12   0    0.24    0.15   0
   6 -12   0    0.04    0.15   0
  -6  12   0    0.21    0.15   0
  -6  12   0   -0.10    0.14   0
  -5  12   0   -0.07    0.11   0
   5 -12   0    0.32    0.14   0
  -5  12   0    0.10    0.15   0
   5 -12   0    0.00    0.15   0
   4 -12   0    0.19    0.11   0
  -4  12   0    0.16    0.13   0
   4 -12   0    0.05    0.15   0
  -4  12   0    0.12    0.14   0
  -3  12   0    1.06    0.17   0
   3 -12   0    1.00    0.18   0
   3 -12   0    1.39    0.14   0
  -3  12   0    0.81    0.12   0
   2 -12   0    0.13    0.17   0
  -2  12   0    0.01    0.14   0
  -2  12   0    0.23    0.17   0
   2 -12   0    0.20    0.13   0
  -1  12   0    0.34    0.14   0
   1 -12   0    0.32    0.14   0
   1 -12   0    0.29    0.18   0
  -1  12   0    0.31    0.17   0
   0  12   0    1.55    0.15   0
   0 -12   0    1.65    0.22   0
   0  12   0    1.92    0.22   0
   0 -12   0    1.77    0.17   0
  -1 -12   0    0.90    0.17   0
   1  12   0    0.66    0.15   0
  -4  13   0    0.17    0.15   0
  -3  13   0    0.79    0.15   0
  -3  13   0    0.69    0.16   0
   3 -13   0    0.85    0.16   0
   3 -13   0    0.69    0.12   0
  -2  13   0    1.82    0.19   0
   2 -13   0    1.85    0.15   0
  -2  13   0    1.90    0.16   0
   2 -13   0    1.80    0.20   0
   1 -13   0    0.64    0.12   0
  -1  13   0    0.73    0.16   0
  -1  13   0    0.78    0.18   0
   1 -13   0    0.70    0.21   0
   0  13  -1    2.84    0.24   0
  -1  13  -1    0.20    0.18   0
   1 -13   1   -0.02    0.15   0
   1 -13   1    0.07    0.19   0
  -1  13  -1    0.18    0.15   0
   2 -13   1    0.13    0.14   0
  -2  13  -1    0.29    0.14   0
   2 -13   1    0.12    0.18   0
  -2  13  -1    0.01    0.18   0
  -3  13  -1    0.07    0.15   0
   3 -13   1    0.09    0.18   0
  -3  13  -1    0.13    0.17   0
   3 -13   1    0.06    0.14   0
   4 -13   1    0.31    0.15   0
   4 -13   1    0.27    0.14   0
  -4  13  -1    0.22    0.14   0
  -4  13  -1    0.23    0.15   0
   2  12  -1   -0.14    0.17   0
  -2 -12   1    0.02    0.16   0
  -1 -12   1    0.67    0.14   0
  -1 -12   1    0.45    0.27   0
   1  12  -1    0.44    0.25   0
   1  12  -1    0.72    0.15   0
   0  12  -1    1.30    0.20   0
   0 -12   1    1.58    0.20   0
   0  12  -1    1.27    0.14   0
   0 -12   1    1.21    0.14   0
   1 -12   1    2.69    0.19   0
  -1  12  -1    2.68    0.18   0
  -1  12  -1    2.80    0.15   0
   1 -12   1    2.69    0.14   0
  -2  12  -1    0.40    0.13   0
   2 -12   1    0.27    0.13   0
  -2  12  -1    0.05    0.16   0
   2 -12   1    0.43    0.17   0
  -3  12  -1    0.48    0.15   0
   3 -12   1    0.23    0.16   0
   3 -12   1    0.48    0.14   0
  -3  12  -1    0.40    0.11   0
   4 -12   1    1.59    0.16   0
  -4  12  -1    1.52    0.16   0
  -4  12  -1    1.62    0.14   0
   4 -12   1    1.44    0.14   0
  -5  12  -1    0.62    0.15   0
  -5  12  -1    0.63    0.14   0
   5 -12   1    0.67    0.14   0
   5 -12   1    0.56    0.15   0
   6 -12   1    0.32    0.15   0
  -6  12  -1    0.16    0.14   0
  -6  12  -1   -0.01    0.17   0
   6 -12   1    0.06    0.12   0
  -6  12  -1    0.25    0.12   0
   3  11  -1    1.37    0.18   0
  -3 -11   1    1.52    0.17   0
  -2 -11   1    2.46    0.17   0
   2  11  -1    2.40    0.15   0
  -1 -11   1    0.18    0.13   0
   1  11  -1    0.13    0.21   0
  -1 -11   1    0.22    0.22   0
   1  11  -1    0.31    0.14   0
   0 -11   1    0.25    0.18   0
   0 -11   1    0.22    0.13   0
   0  11  -1    0.29    0.13   0
   0  11  -1    0.28    0.18   0
  -1  11  -1    0.76    0.13   0
   1 -11   1    0.72    0.16   0
   1 -11   1    0.34    0.13   0
  -1  11  -1    0.67    0.17   0
  -2  11  -1    2.72    0.14   0
  -2  11  -1    2.76    0.17   0
   2 -11   1    2.52    0.15   0
   2 -11   1    2.55    0.12   0
  -3  11  -1    2.04    0.13   0
  -3  11  -1    2.22    0.17   0
   3 -11   1    2.03    0.18   0
   3 -11   1    2.13    0.14   0
  -4  11  -1    1.93    0.14   0
  -4  11  -1    1.96    0.15   0
   4 -11   1    1.89    0.11   0
   4 -11   1    1.82    0.15   0
   5 -11   1    0.48    0.14   0
   5 -11   1    0.54    0.15   0
  -5  11  -1    0.59    0.11   0
  -5  11  -1    0.47    0.13   0
   6 -11   1   -0.28    0.15   0
  -6  11  -1    0.21    0.14   0
  -6  11  -1    0.25    0.14   0
   6 -11   1    0.08    0.11   0
  -6  11  -1    0.05    0.14   0
  -7  11  -1    0.10    0.15   0
   7 -11   1    0.01    0.12   0
  -7  11  -1    0.27    0.15   0
  -7  11  -1    0.08    0.14   0
   7 -11   1   -0.30    0.16   0
  -4 -10   1    0.90    0.19   0
   4  10  -1    0.86    0.17   0
   3  10  -1    0.35    0.16   0
  -3 -10   1    0.26    0.15   0
  -2 -10   1    0.87    0.15   0
   2  10  -1    0.67    0.15   0
   1  10  -1    1.15    0.19   0
  -1 -10   1    1.29    0.21   0
   1  10  -1    1.08    0.14   0
  -1 -10   1    1.25    0.13   0
   0  10  -1    0.53    0.19   0
   0  10  -1    0.22    0.13   0
   0 -10   1    0.46    0.17   0
   0 -10   1    0.40    0.13   0
  -1  10  -1    1.59    0.15   0
   1 -10   1    1.64    0.15   0
   1 -10   1    1.45    0.13   0
  -1  10  -1    1.89    0.14   0
  -2  10  -1   16.20    0.18   0
  -2  10  -1   17.11    0.20   0
   2 -10   1   15.56    0.20   0
   2 -10   1   16.49    0.18   0
  -3  10  -1    0.82    0.16   0
   3 -10   1    0.70    0.11   0
  -3  10  -1    0.87    0.13   0
   3 -10   1    0.63    0.15   0
  -4  10  -1    2.00    0.14   0
   4 -10   1    1.80    0.15   0
  -4  10  -1    2.07    0.13   0
   4 -10   1    2.04    0.11   0
   5 -10   1    0.25    0.15   0
  -5  10  -1    0.64    0.13   0
   5 -10   1    0.78    0.14   0
  -5  10  -1    0.38    0.13   0
  -6  10  -1    4.80    0.16   0
  -6  10  -1    4.79    0.15   0
   6 -10   1    4.75    0.17   0
  -6  10  -1    5.05    0.16   0
   6 -10   1    5.37    0.16   0
  -7  10  -1    1.48    0.12   0
  -7  10  -1    1.64    0.15   0
  -7  10  -1    1.62    0.17   0
   7 -10   1    1.75    0.15   0
   7 -10   1    1.48    0.16   0
  -8  10  -1    0.12    0.11   0
  -8  10  -1    0.19    0.14   0
  -8  10  -1    0.02    0.20   0
   8 -10   1   -0.01    0.16   0
   8 -10   1    0.08    0.15   0
   5   9  -1    2.03    0.23   0
   5   9  -1    1.81    0.21   0
  -4  -9   1    0.17    0.17   0
   4   9  -1    0.10    0.18   0
  -3  -9   1    0.41    0.15   0
   3   9  -1    0.38    0.16   0
   2   9  -1    3.05    0.14   0
   2   9  -1    3.35    0.30   0
  -2  -9   1    3.22    0.15   0
  -1  -9   1   26.24    0.22   0
   1   9  -1   25.36    0.22   0
   1   9  -1   27.31    0.33   0
  -1  -9   1   26.55    0.33   0
   0  -9   1   23.38    0.26   0
   0   9  -1   25.31    0.27   0
   0  -9   1   24.21    0.20   0
   0   9  -1   24.23    0.21   0
   1  -9   1    1.00    0.14   0
   1  -9   1    0.91    0.15   0
  -1   9  -1    1.03    0.17   0
  -1   9  -1    0.98    0.14   0
  -2   9  -1    1.08    0.14   0
   2  -9   1    0.96    0.14   0
  -2   9  -1    0.95    0.14   0
   2  -9   1    0.74    0.14   0
  -3   9  -1   13.02    0.18   0
  -3   9  -1   12.67    0.17   0
   3  -9   1   12.28    0.18   0
   3  -9   1   12.76    0.17   0
  -4   9  -1    5.71    0.16   0
  -4   9  -1    5.44    0.14   0
   4  -9   1    5.57    0.13   0
   4  -9   1    5.24    0.17   0
   5  -9   1    0.89    0.14   0
  -5   9  -1    0.87    0.14   0
  -5   9  -1    0.95    0.14   0
  -5   9  -1    1.02    0.14   0
   5  -9   1    1.18    0.15   0
   6  -9   1    6.55    0.14   0
  -6   9  -1    6.98    0.18   0
   6  -9   1    7.03    0.16   0
  -6   9  -1    6.75    0.15   0
  -6   9  -1    6.90    0.16   0
  -7   9  -1    0.45    0.16   0
  -7   9  -1    0.70    0.13   0
  -7   9  -1    0.41    0.11   0
   7  -9   1    0.65    0.12   0
   7  -9   1    0.62    0.14   0
   8  -9   1    0.87    0.15   0
  -8   9  -1    0.91    0.14   0
  -8   9  -1    0.88    0.14   0
  -8   9  -1    0.57    0.18   0
   8  -9   1    0.93    0.15   0
   5   8  -1    0.02    0.19   0
   5   8  -1    0.10    0.20   0
   4   8  -1    4.30    0.20   0
  -4  -8   1    4.46    0.18   0
  -3  -8   1    1.31    0.16   0
   3   8  -1    1.49    0.17   0
   2   8  -1   10.59    0.35   0
  -2  -8   1    9.99    0.17   0
   2   8  -1   10.00    0.18   0
  -1  -8   1   23.04    0.31   0
   1   8  -1   21.99    0.20   0
   1   8  -1   23.45    0.30   0
  -1  -8   1   22.83    0.20   0
   0   8  -1   11.13    0.22   0
   0   8  -1   10.61    0.17   0
   0  -8   1   10.25    0.17   0
   0  -8   1   10.52    0.24   0
  -1   8  -1    6.73    0.16   0
  -1   8  -1    6.73    0.19   0
   1  -8   1    6.98    0.16   0
   1  -8   1    6.98    0.17   0
   2  -8   1    4.35    0.18   0
  -2   8  -1    4.61    0.16   0
   2  -8   1    4.48    0.15   0
  -2   8  -1    4.65    0.15   0
  -3   8  -1   10.22    0.17   0
  -3   8  -1    9.78    0.17   0
   3  -8   1    9.70    0.16   0
   3  -8   1    9.75    0.18   0
   4  -8   1   17.39    0.17   0
   4  -8   1   16.67    0.20   0
  -4   8  -1   17.69    0.20   0
  -4   8  -1   17.04    0.17   0
   5  -8   1    0.09    0.11   0
  -5   8  -1    0.04    0.13   0
   5  -8   1   -0.09    0.13   0
  -5   8  -1    0.23    0.11   0
  -5   8  -1    0.21    0.13   0
  -6   8  -1    0.38    0.14   0
  -6   8  -1    0.32    0.13   0
   6  -8   1    0.32    0.13   0
   6  -8   1    0.42    0.15   0
  -6   8  -1    0.29    0.13   0
   7  -8   1    0.06    0.13   0
  -7   8  -1    0.29    0.16   0
   7  -8   1    0.33    0.12   0
  -7   8  -1    0.13    0.13   0
  -7   8  -1    0.17    0.13   0
   8  -8   1    1.37    0.12   0
  -8   8  -1    1.11    0.14   0
  -8   8  -1    1.32    0.14   0
  -8   8  -1    1.24    0.18   0
   8  -8   1    0.84    0.15   0
   9  -8   1    0.18    0.15   0
  -9   8  -1    0.53    0.15   0
   9  -8   1    0.55    0.16   0
  -9   8  -1    0.23    0.20   0
  -9   8  -1    0.33    0.14   0
   7   7  -1    0.27    0.15   0
   5   7  -1    0.54    0.21   0
   5   7  -1    0.50    0.20   0
   4   7  -1    1.98    0.18   0
  -4  -7   1    2.21    0.16   0
  -3  -7   1   22.18    0.24   0
   3   7  -1   20.61    0.24   0
  -2  -7   1    0.25    0.15   0
   2   7  -1    0.26    0.24   0
   2   7  -1    0.03    0.14   0
  -1  -7   1    1.86    0.23   0
   1   7  -1    1.78    0.22   0
  -1  -7   1    1.86    0.16   0
   1   7  -1    1.69    0.15   0
   0  -7   1    2.82    0.17   0
   0   7  -1    2.64    0.16   0
   0  -7   1    2.91    0.15   0
   0   7  -1    2.98    0.18   0
  -1   7  -1   32.82    0.21   0
  -1   7  -1   33.37    0.27   0
   1  -7   1   32.09    0.27   0
   1  -7   1   31.18    0.22   0
  -2   7  -1    3.64    0.15   0
   2  -7   1    4.03    0.14   0
   2  -7   1    4.03    0.17   0
  -2   7  -1    4.31    0.17   0
   3  -7   1    2.07    0.15   0
  -3   7  -1    1.96    0.15   0
   3  -7   1    2.23    0.14   0
  -3   7  -1    1.84    0.14   0
   4  -7   1    9.24    0.18   0
   4  -7   1    9.17    0.17   0
  -4   7  -1    9.66    0.17   0
  -4   7  -1    9.44    0.17   0
  -5   7  -1    0.15    0.11   0
   5  -7   1    0.17    0.14   0
  -5   7  -1    0.20    0.14   0
  -5   7  -1    0.16    0.15   0
   5  -7   1    0.23    0.15   0
   6  -7   1    0.26    0.14   0
  -6   7  -1    0.05    0.13   0
  -6   7  -1    0.17    0.13   0
   6  -7   1    0.25    0.13   0
  -6   7  -1    0.06    0.15   0
  -7   7  -1    2.89    0.12   0
   7  -7   1    2.66    0.15   0
  -7   7  -1    2.83    0.15   0
  -7   7  -1    3.01    0.18   0
   7  -7   1    2.76    0.15   0
  -8   7  -1    0.22    0.19   0
   8  -7   1    0.35    0.14   0
   8  -7   1    0.03    0.15   0
  -8   7  -1    0.23    0.14   0
  -8   7  -1    0.09    0.15   0
  -9   7  -1    0.79    0.14   0
  -9   7  -1    0.80    0.20   0
  -9   7  -1    0.64    0.15   0
   9  -7   1    0.73    0.16   0
   9  -7   1    0.82    0.17   0
   7   6  -1    1.67    0.15   0
   5   6  -1    0.17    0.21   0
   5   6  -1    0.16    0.21   0
   4   6  -1   10.26    0.24   0
  -3  -6   1   25.90    0.26   0
   3   6  -1   24.50    0.27   0
   2   6  -1    3.15    0.28   0
  -2  -6   1    2.87    0.14   0
   2   6  -1    2.86    0.17   0
   1   6  -1   10.11    0.18   0
  -1  -6   1   10.34    0.25   0
   1   6  -1   10.38    0.25   0
  -1  -6   1   10.43    0.18   0
   0   6  -1   47.33    0.33   0
   0   6  -1   46.31    0.27   0
   0  -6   1   46.17    0.26   0
   0  -6   1   46.35    0.33   0
  -1   6  -1    2.69    0.16   0
  -1   6  -1    2.69    0.13   0
   1  -6   1    2.66    0.19   0
   1  -6   1    2.56    0.14   0
  -2   6  -1    4.64    0.16   0
   2  -6   1    4.47    0.17   0
  -2   6  -1    4.55    0.13   0
   2  -6   1    4.65    0.15   0
   3  -6   1   12.85    0.20   0
   3  -6   1   13.56    0.18   0
  -3   6  -1   13.07    0.18   0
  -3   6  -1   13.43    0.19   0
  -4   6  -1    1.14    0.15   0
   4  -6   1    0.96    0.15   0
   4  -6   1    1.16    0.15   0
  -4   6  -1    1.14    0.15   0
  -4   6  -1    1.03    0.15   0
   5  -6   1   32.61    0.24   0
  -5   6  -1   33.05    0.23   0
   5  -6   1   31.89    0.23   0
  -5   6  -1   33.19    0.25   0
  -5   6  -1   31.11    0.23   0
  -6   6  -1    6.02    0.15   0
  -6   6  -1    6.20    0.19   0
   6  -6   1    6.38    0.16   0
  -6   6  -1    6.56    0.15   0
   6  -6   1    5.98    0.16   0
  -7   6  -1    0.09    0.14   0
   7  -6   1    0.22    0.15   0
  -7   6  -1    0.22    0.18   0
  -7   6  -1    0.39    0.11   0
   7  -6   1    0.17    0.16   0
   8  -6   1   -0.20    0.15   0
   8  -6   1    0.22    0.14   0
  -8   6  -1    0.14    0.16   0
  -8   6  -1    0.25    0.18   0
  -8   6  -1    0.03    0.11   0
   9  -6   1    0.52    0.15   0
  -9   6  -1    0.49    0.21   0
  -9   6  -1    0.58    0.17   0
  -9   6  -1    0.49    0.15   0
   9  -6   1    0.30    0.15   0
   8   5  -1    0.06    0.31   0
   8   5  -1    0.11    0.16   0
   8   5  -1    0.01    0.34   0
   7   5  -1    1.31    0.28   0
   7   5  -1    1.46    0.15   0
   7   5  -1    1.21    0.29   0
   6   5  -1    0.08    0.25   0
   6   5  -1    0.29    0.28   0
   6   5  -1    0.10    0.16   0
   5   5  -1    0.40    0.29   0
   5   5  -1    0.33    0.26   0
   5   5  -1    0.35    0.25   0
   5   5  -1    0.36    0.29   0
   4   5  -1    0.19    0.28   0
   4   5  -1    0.15    0.29   0
   4   5  -1    0.15    0.19   0
   4   5  -1   -0.00    0.18   0
   3   5  -1    0.26    0.18   0
   3   5  -1    0.15    0.30   0
   3   5  -1    0.15    0.26   0
  -3  -5   1    0.27    0.17   0
   2   5  -1   35.42    0.43   0
  -2  -5   1   37.37    0.28   0
   2   5  -1   35.75    0.28   0
  -1  -5   1   15.41    0.20   0
  -1  -5   1   15.61    0.28   0
   1   5  -1   15.29    0.20   0
   1   5  -1   14.90    0.28   0
   0  -5   1    3.56    0.16   0
   0   5  -1    3.54    0.16   0
   0   5  -1    3.55    0.20   0
   0  -5   1    3.29    0.17   0
   1  -5   1    9.96    0.22   0
   1  -5   1    9.65    0.17   0
  -1   5  -1   10.02    0.20   0
  -1   5  -1    9.79    0.15   0
  -2   5  -1    1.09    0.16   0
   2  -5   1    1.29    0.17   0
   2  -5   1    1.20    0.15   0
  -2   5  -1    1.11    0.12   0
   3  -5   1    1.62    0.16   0
  -3   5  -1    1.62    0.16   0
  -3   5  -1    1.52    0.15   0
   3  -5   1    1.58    0.17   0
   4  -5   1   72.32    0.29   0
  -4   5  -1   75.82    0.31   0
  -4   5  -1   76.02    0.36   0
  -4   5  -1   71.69    0.30   0
   4  -5   1   74.68    0.33   0
  -5   5  -1    9.84    0.17   0
   5  -5   1    8.98    0.18   0
  -5   5  -1    9.80    0.20   0
  -5   5  -1    9.29    0.17   0
   5  -5   1    9.60    0.17   0
   6  -5   1    4.06    0.16   0
  -6   5  -1    4.18    0.15   0
  -6   5  -1    3.98    0.14   0
   6  -5   1    4.45    0.16   0
  -6   5  -1    4.19    0.18   0
   7  -5   1    0.59    0.15   0
  -7   5  -1    0.45    0.15   0
  -7   5  -1    0.32    0.17   0
  -7   5  -1    0.56    0.13   0
   7  -5   1    0.42    0.15   0
  -8   5  -1    4.87    0.21   0
  -8   5  -1    4.96    0.16   0
   8  -5   1    4.62    0.18   0
   8  -5   1    4.90    0.16   0
  -8   5  -1    4.44    0.13   0
  -9   5  -1    5.05    0.16   0
   9  -5   1    4.87    0.17   0
   9  -5   1    5.19    0.19   0
  -9   5  -1    5.03    0.19   0
   8   4  -1    0.26    0.22   0
   8   4  -1    0.26    0.17   0
   8   4  -1    0.39    0.20   0
   7   4  -1    1.14    0.22   0
   7   4  -1    1.12    0.14   0
   7   4  -1    1.18    0.21   0
   6   4  -1    6.45    0.24   0
   6   4  -1    6.78    0.16   0
   6   4  -1    6.79    0.24   0
   5   4  -1   18.20    0.31   0
   5   4  -1   18.71    0.44   0
   5   4  -1   17.46    0.30   0
   5   4  -1   17.10    0.42   0
   4   4  -1   14.98    0.29   0
   4   4  -1   15.28    0.32   0
   4   4  -1   14.88    0.31   0
   4   4  -1   15.57    0.32   0
   3   4  -1   16.59    0.33   0
  -3  -4   1   16.39    0.26   0
   3   4  -1   15.05    0.33   0
   3   4  -1   15.23    0.26   0
   2   4  -1    0.66    0.22   0
   2   4  -1    0.71    0.17   0
  -2  -4   1    0.68    0.16   0
   2   4  -1    0.67    0.24   0
  -1  -4   1   59.11    0.33   0
  -1  -4   1   60.58    0.48   0
   1   4  -1   57.42    0.47   0
   1   4  -1   57.59    0.33   0
   0  -4   1   20.04    0.29   0
   0   4  -1   20.40    0.23   0
   0   4  -1   19.71    0.29   0
   0  -4   1   20.95    0.23   0
   1  -4   1  106.05    0.45   0
   1  -4   1  107.77    0.41   0
  -1   4  -1  108.53    0.46   0
  -1   4  -1  106.98    0.41   0
  -2   4  -1   46.38    0.27   0
  -2   4  -1   48.28    0.30   0
   2  -4   1   46.67    0.30   0
   2  -4   1   47.67    0.27   0
   3  -4   1   15.61    0.20   0
  -3   4  -1   16.22    0.20   0
   3  -4   1   16.36    0.20   0
  -3   4  -1   15.78    0.20   0
  -3   4  -1   16.35    0.21   0
   4  -4   1    2.19    0.15   0
  -4   4  -1    2.20    0.15   0
  -4   4  -1    2.58    0.15   0
   4  -4   1    2.15    0.13   0
  -4   4  -1    2.30    0.15   0
   5  -4   1    0.75    0.12   0
  -5   4  -1    0.83    0.15   0
   5  -4   1    0.72    0.14   0
  -5   4  -1    0.78    0.13   0
  -5   4  -1    0.57    0.14   0
  -6   4  -1    2.55    0.17   0
  -6   4  -1    2.65    0.15   0
   6  -4   1    2.85    0.17   0
   6  -4   1    2.27    0.16   0
  -6   4  -1    2.64    0.20   0
   7  -4   1    8.31    0.19   0
  -7   4  -1    8.16    0.16   0
  -7   4  -1    8.38    0.22   0
  -7   4  -1    8.14    0.19   0
   7  -4   1    8.36    0.17   0
  -8   4  -1    0.08    0.18   0
   8  -4   1    0.20    0.16   0
  -8   4  -1    0.10    0.13   0
   8  -4   1    0.06    0.11   0
  -8   4  -1    0.33    0.16   0
  -9   4  -1    0.66    0.19   0
  -9   4  -1    0.76    0.14   0
   9  -4   1    0.71    0.19   0
   9  -4   1    0.59    0.15   0
   9   3  -1    1.14    0.21   0
   9   3  -1    1.28    0.19   0
   8   3  -1    0.15    0.17   0
   8   3  -1    0.15    0.19   0
  -8  -3   1    0.01    0.19   0
   7   3  -1    2.51    0.18   0
  -7  -3   1    2.53    0.20   0
   7   3  -1    2.61    0.21   0
   6   3  -1   14.06    0.25   0
  -6  -3   1   15.29    0.26   0
   6   3  -1   14.72    0.22   0
   5   3  -1   48.73    0.37   0
   5   3  -1   46.86    0.66   0
  -5  -3   1   54.31    0.40   0
   5   3  -1   50.78    0.67   0
   4   3  -1   17.81    0.28   0
   4   3  -1   17.23    0.35   0
   4   3  -1   18.46    0.35   0
   3   3  -1    0.25    0.21   0
   3   3  -1    0.36    0.19   0
   3   3  -1    0.30    0.20   0
   3   3  -1    0.41    0.21   0
   2   3  -1   11.43    0.32   0
   2   3  -1   11.99    0.31   0
  -2  -3   1   11.52    0.24   0
   2   3  -1   10.93    0.26   0
  -1  -3   1  121.65    0.71   0
   1   3  -1  116.93    0.53   0
   1   3  -1  113.04    0.69   0
  -1  -3   1  119.18    0.52   0
   0  -3   1    1.79    0.26   0
   0   3  -1    1.81    0.19   0
   0   3  -1    1.84    0.22   0
   0  -3   1    1.75    0.19   0
  -1   3  -1    2.07    0.21   0
   1  -3   1    2.38    0.19   0
  -1   3  -1    2.56    0.16   0
   1  -3   1    2.17    0.22   0
   2  -3   1   46.40    0.31   0
  -2   3  -1   45.46    0.31   0
   2  -3   1   44.90    0.32   0
  -2   3  -1   46.37    0.32   0
  -3   3  -1    1.86    0.15   0
   3  -3   1    1.71    0.15   0
  -3   3  -1    1.76    0.17   0
   3  -3   1    1.46    0.16   0
  -3   3  -1    1.58    0.15   0
  -4   3  -1    5.84    0.16   0
  -4   3  -1    5.90    0.19   0
   4  -3   1    5.66    0.18   0
  -4   3  -1    5.89    0.16   0
   4  -3   1    5.75    0.18   0
   5  -3   1    1.30    0.15   0
  -5   3  -1    1.27    0.17   0
   5  -3   1    1.31    0.13   0
  -5   3  -1    1.29    0.14   0
  -5   3  -1    1.58    0.15   0
  -6   3  -1   22.63    0.25   0
  -6   3  -1   23.67    0.21   0
   6  -3   1   23.70    0.22   0
   6  -3   1   22.85    0.25   0
  -6   3  -1   24.94    0.29   0
   7  -3   1   11.02    0.18   0
  -7   3  -1   11.71    0.22   0
  -7   3  -1   10.89    0.17   0
  -7   3  -1   11.40    0.23   0
   7  -3   1   11.21    0.23   0
  -8   3  -1    1.46    0.14   0
   8  -3   1    1.34    0.14   0
  -8   3  -1    1.54    0.19   0
   8  -3   1    1.38    0.18   0
  -9   3  -1    2.61    0.15   0
  -9   3  -1    2.83    0.21   0
   9  -3   1    2.64    0.21   0
   9  -3   1    2.38    0.16   0
  -9  -2   1   -0.02    0.19   0
   9   2  -1    0.35    0.21   0
   9   2  -1    0.10    0.18   0
  -8  -2   1    1.97    0.17   0
   8   2  -1    1.66    0.18   0
   8   2  -1    1.76    0.18   0
  -7  -2   1    8.69    0.20   0
   7   2  -1    8.70    0.23   0
   7   2  -1    8.79    0.23   0
   6   2  -1    0.87    0.18   0
   6   2  -1    0.77    0.17   0
  -6  -2   1    0.94    0.18   0
   5   2  -1    2.14    0.17   0
   5   2  -1    2.10    0.29   0
   5   2  -1    2.05    0.29   0
  -5  -2   1    2.09    0.17   0
   5   2  -1    2.08    0.16   0
   4   2  -1    0.51    0.18   0
   4   2  -1    0.55    0.23   0
   4   2  -1    0.63    0.24   0
  -4  -2   1    0.74    0.16   0
   3   2  -1 1233.33    2.09   0
  -3  -2   1  229.97    0.79   0
   3   2  -1  227.12    0.78   0
   3   2  -1  813.86    1.68   0
   2   2  -1   39.34    0.41   0
   2   2  -1   41.96    0.44   0
  -1  -2   1    0.60    0.25   0
   1   2  -1    0.41    0.27   0
  -1  -2   1    0.57    0.22   0
   1   2  -1    0.45    0.22   0
   0  -2   1  336.59    1.10   0
   0  -2   1  348.58    0.97   0
   0   2  -1  337.71    1.11   0
   0   2  -1  349.05    0.98   0
   1  -2   1   20.29    0.30   0
   1  -2   1   21.47    0.29   0
  -1   2  -1   20.56    0.29   0
  -1   2  -1   20.09    0.30   0
  -2   2  -1   24.21    0.28   0
   2  -2   1   23.40    0.28   0
   2  -2   1   23.69    0.29   0
  -2   2  -1   24.01    0.30   0
  -2   2  -1   23.41    0.29   0
   3  -2   1   13.97    0.21   0
  -3   2  -1   14.82    0.23   0
  -3   2  -1   14.13    0.21   0
   3  -2   1   14.23    0.23   0
  -3   2  -1   13.83    0.21   0
   3  -2   1   14.40    0.24   0
  -4   2  -1    0.16    0.16   0
  -4   2  -1    0.05    0.15   0
   4  -2   1    0.05    0.15   0
   4  -2   1    0.10    0.16   0
   4  -2   1    0.12    0.16   0
  -4   2  -1    0.10    0.15   0
  -5   2  -1    0.95    0.15   0
   5  -2   1    1.23    0.16   0
   5  -2   1    1.04    0.18   0
   5  -2   1    1.00    0.17   0
  -5   2  -1    1.10    0.16   0
  -5   2  -1    1.27    0.16   0
  -6   2  -1    7.82    0.16   0
  -6   2  -1    8.06    0.22   0
   6  -2   1    7.40    0.18   0
   6  -2   1    7.64    0.21   0
   6  -2   1    7.94    0.20   0
  -6   2  -1    8.51    0.22   0
   7  -2   1    0.18    0.18   0
  -7   2  -1    0.16    0.20   0
   7  -2   1    0.25    0.18   0
  -7   2  -1    0.40    0.14   0
   7  -2   1    0.19    0.15   0
   8  -2   1    0.24    0.15   0
  -8   2  -1    0.15    0.20   0
  -8   2  -1    0.10    0.13   0
   8  -2   1    0.14    0.20   0
   8  -2   1    0.15    0.17   0
  -9   2  -1    0.23    0.26   0
   9  -2   1    0.40    0.19   0
  -9   2  -1    0.15    0.14   0
   9  -2   1    0.26    0.25   0
   9  -2   1    0.25    0.15   0
  -9  -1   1    2.22    0.18   0
   9   1  -1    2.15    0.21   0
   9   1  -1    2.00    0.18   0
   8   1  -1    5.35    0.20   0
   8   1  -1    4.90    0.19   0
  -8  -1   1    5.45    0.18   0
   7   1  -1    0.79    0.14   0
   7   1  -1    0.77    0.19   0
  -7  -1   1    1.00    0.15   0
  -6  -1   1    1.72    0.14   0
   6   1  -1    1.68    0.17   0
   6   1  -1    1.52    0.25   0
   6   1  -1    1.88    0.20   0
  -5  -1   1    3.62    0.24   0
   5   1  -1    3.61    0.18   0
   5   1  -1    3.48    0.25   0
   5   1  -1    3.77    0.20   0
  -5  -1   1    3.85    0.17   0
  -4  -1   1   10.97    0.21   0
   4   1  -1   10.83    0.22   0
   4   1  -1   10.43    0.21   0
  -4  -1   1   10.27    0.26   0
   4   1  -1   10.28    0.28   0
  -3  -1   1    2.84    0.19   0
   3   1  -1    2.84    0.25   0
  -3  -1   1    2.77    0.24   0
   3   1  -1    2.96    0.17   0
  -2  -1   1    0.38    0.24   0
  -2  -1   1    0.43    0.22   0
   2   1  -1    0.42    0.24   0
   2   1  -1    0.25    0.22   0
   1   1  -1   63.11    0.56   0
   1   1  -1   63.96    0.57   0
   1   1  -1   63.40    0.59   0
   1   1  -1   67.24    0.59   0
  -1   1  -1  144.44    0.77   0
   1  -1   1  149.48    0.77   0
   1  -1   1  138.27    0.69   0
   1  -1   1  138.26    0.74   0
  -1   1  -1  136.49    0.74   0
  -1   1  -1  140.98    0.70   0
  -2   1  -1  165.90    0.76   0
   2  -1   1  172.65    0.77   0
  -2   1  -1  165.57    0.62   0
   2  -1   1  173.23    0.72   0
  -2   1  -1  170.80    0.72   0
   2  -1   1  166.52    0.62   0
  -3   1  -1    2.60    0.19   0
  -3   1  -1    2.25    0.16   0
   3  -1   1    2.48    0.20   0
  -3   1  -1    2.40    0.22   0
   3  -1   1    2.46    0.17   0
   3  -1   1    2.34    0.17   0
  -4   1  -1    4.74    0.18   0
   4  -1   1    4.28    0.17   0
  -4   1  -1    4.39    0.16   0
   4  -1   1    4.74    0.19   0
  -4   1  -1    4.54    0.22   0
   4  -1   1    4.55    0.22   0
  -5   1  -1    0.40    0.20   0
  -5   1  -1    0.42    0.14   0
   5  -1   1    0.43    0.16   0
   5  -1   1    0.46    0.20   0
   5  -1   1    0.46    0.16   0
   6  -1   1    0.69    0.19   0
  -6   1  -1    0.67    0.19   0
  -6   1  -1    0.77    0.15   0
   6  -1   1    0.76    0.15   0
   6  -1   1    0.85    0.17   0
  -7   1  -1   19.84    0.22   0
   7  -1   1   20.12    0.35   0
   7  -1   1   19.15    0.21   0
  -7   1  -1   19.96    0.37   0
   7  -1   1   20.67    0.27   0
  -8   1  -1    4.79    0.17   0
   8  -1   1    4.32    0.17   0
   8  -1   1    4.80    0.19   0
  -9   1  -1    1.11    0.16   0
   9  -1   1    1.17    0.19   0
   9  -1   1    1.09    0.18   0
  10   0  -1    0.30    0.18   0
  10   0  -1    0.20    0.24   0
  -9   0   1    1.84    0.17   0
   9   0  -1    1.78    0.22   0
   9   0  -1    1.88    0.16   0
  -8   0   1    0.24    0.13   0
   8   0  -1    0.24    0.17   0
   8   0  -1    0.20    0.26   0
   8   0  -1    0.19    0.14   0
   7   0  -1   28.17    0.31   0
  -7   0   1   27.87    0.24   0
   7   0  -1   25.84    0.36   0
   7   0  -1   26.31    0.23   0
  -7   0   1   26.72    0.36   0
  -6   0   1   19.13    0.20   0
   6   0  -1   19.50    0.28   0
   6   0  -1   17.98    0.29   0
  -6   0   1   18.68    0.29   0
   6   0  -1   18.20    0.21   0
  -5   0   1    4.93    0.15   0
  -5   0   1    5.09    0.21   0
   5   0  -1    4.66    0.23   0
   5   0  -1    5.11    0.22   0
   5   0  -1    4.73    0.17   0
   4   0  -1    0.07    0.14   0
   4   0  -1   -0.01    0.18   0
   4   0  -1    0.11    0.19   0
  -4   0   1    0.07    0.18   0
  -4   0   1   -0.13    0.13   0
   3   0  -1    3.63    0.18   0
  -3   0   1    3.81    0.19   0
   3   0  -1    3.58    0.22   0
  -3   0   1    3.85    0.21   0
   3   0  -1    3.96    0.27   0
   2   0  -1   29.18    0.56   0
  -2   0   1   29.17    0.34   0
  -2   0   1   30.33    0.41   0
   2   0  -1   30.40    0.40   0
   2   0  -1   29.33    0.34   0
   1   0  -1    1.11    0.27   0
   1   0  -1    1.18    0.23   0
  -1   0   1    1.19    0.25   0
  -1   0  -1 2352.99    4.56   0
  -1   0  -1  418.42    1.42   0
  -1   0  -1  373.22    1.19   0
   1   0   1 3104.00    3.77   0
   1   0   1  393.72    1.24   0
   2   0   1   77.39    0.50   0
  -2   0  -1   67.25    0.79   0
   2   0   1   73.83    0.79   0
  -2   0  -1   72.97    0.47   0
  -2   0  -1   67.03    0.47   0
   2   0   1   68.39    0.49   0
  -3   0  -1   11.95    0.23   0
   3   0   1   13.04    0.22   0
  -3   0  -1   12.55    0.21   0
   3   0   1   12.45    0.39   0
   3   0   1   11.52    0.24   0
  -3   0  -1   12.40    0.38   0
  -4   0  -1    4.47    0.29   0
  -4   0  -1    4.16    0.16   0
   4   0   1    4.70    0.19   0
   4   0   1    4.32    0.28   0
   4   0   1    3.97    0.19   0
   5   0   1   21.84    0.45   0
  -5   0  -1   21.87    0.46   0
   5   0   1   20.55    0.22   0
  -5   0  -1   21.40    0.21   0
   5   0   1   22.68    0.25   0
   6   0   1    4.56    0.17   0
   6   0   1    4.47    0.19   0
  -6   0  -1    4.66    0.18   0
   7   0   1    2.31    0.18   0
  -7   0  -1    2.13    0.16   0
   7   0   1    2.17    0.18   0
   8   0   1    0.10    0.15   0
  -8   0  -1    0.14    0.15   0
   8   0   1   -0.19    0.17   0
   9   0   1    0.39    0.16   0
  -9   0  -1    0.31    0.17   0
   9   0   1    0.51    0.20   0
  10  -1  -1    0.23    0.16   0
 -10   1   1    0.11    0.15   0
  -9   1   1    2.35    0.15   0
   9  -1  -1    2.36    0.25   0
   9  -1  -1    2.59    0.16   0
   9  -1  -1    2.53    0.25   0
  -9   1   1    2.56    0.26   0
  -8   1   1    0.17    0.18   0
   8  -1  -1    0.16    0.15   0
   8  -1  -1    0.31    0.18   0
  -8   1   1    0.23    0.13   0
   8  -1  -1    0.08    0.19   0
  -7   1   1    0.14    0.18   0
   7  -1  -1    0.25    0.17   0
   7  -1  -1    0.46    0.15   0
  -7   1   1    0.04    0.13   0
   7  -1  -1    0.20    0.19   0
   6  -1  -1    9.28    0.23   0
  -6   1   1    9.82    0.18   0
  -6   1   1    9.91    0.23   0
   6  -1  -1    9.30    0.18   0
   6  -1  -1   10.06    0.26   0
  -5   1   1    5.59    0.16   0
   5  -1  -1    5.60    0.20   0
   5  -1  -1    5.75    0.18   0
  -5   1   1    5.77    0.19   0
   5  -1  -1    5.68    0.24   0
  -4   1   1   22.24    0.26   0
   4  -1  -1   21.22    0.26   0
  -4   1   1   21.96    0.22   0
   4  -1  -1   21.87    0.23   0
   4  -1  -1   21.92    0.36   0
  -3   1   1  150.29    0.59   0
   3  -1  -1  151.14    0.61   0
  -3   1   1  824.04    2.18   0
  -3   1   1  155.39    0.52   0
   3  -1  -1  155.71    0.53   0
   3  -1  -1  699.74    2.00   0
  -2   1   1    0.53    0.41   0
   2  -1  -1    0.59    0.22   0
   2  -1  -1    0.66    0.21   0
  -2   1   1    0.55    0.21   0
  -2   1   1    0.55    0.21   0
   1  -1  -1    4.71    0.24   0
  -1   1   1    4.43    0.21   0
  -1   1   1    4.61    0.21   0
   1  -1  -1    4.54    0.23   0
   0   1   1   52.92    0.56   0
   0  -1  -1   50.53    0.53   0
   0  -1  -1   54.11    0.68   0
   0   1   1   51.26    0.67   0
  -1  -1  -1   11.44    0.50   0
  -1  -1  -1   11.35    0.43   0
   1   1   1   12.50    0.45   0
   1   1   1   11.62    0.48   0
   2   1   1   72.10    0.60   0
  -2  -1  -1   74.99    0.59   0
   2   1   1   78.81    0.44   0
   3   1   1   10.41    0.19   0
  -3  -1  -1    9.90    0.23   0
   3   1   1    9.30    0.26   0
   4   1   1   28.29    0.29   0
   4   1   1   32.94    0.28   0
  -4  -1  -1   31.38    0.30   0
   5   1   1   18.28    0.25   0
   5   1   1   20.88    0.22   0
  -5  -1  -1   20.36    0.24   0
   6   1   1    0.31    0.18   0
   6   1   1    0.37    0.17   0
  -6  -1  -1    0.48    0.16   0
   7   1   1    8.87    0.20   0
   7   1   1    8.27    0.21   0
  -7  -1  -1    8.88    0.20   0
  -8  -1  -1    0.49    0.16   0
   8   1   1    0.69    0.18   0
   8   1   1    0.39    0.18   0
  -9  -1  -1    1.05    0.17   0
   9   1   1    0.76    0.18   0
   9   1   1    0.79    0.19   0
  10  -2  -1    1.19    0.16   0
 -10   2   1    1.09    0.23   0
 -10   2   1    1.16    0.15   0
  10  -2  -1    1.09    0.25   0
   9  -2  -1    2.34    0.16   0
  -9   2   1    2.27    0.21   0
  -9   2   1    2.51    0.15   0
   9  -2  -1    2.44    0.21   0
   8  -2  -1    0.94    0.13   0
   8  -2  -1    0.94    0.16   0
  -8   2   1    1.20    0.13   0
  -8   2   1    0.90    0.18   0
   7  -2  -1    0.29    0.16   0
   7  -2  -1    0.34    0.15   0
  -7   2   1    0.26    0.14   0
  -7   2   1    0.13    0.15   0
   6  -2  -1   15.89    0.20   0
  -6   2   1   15.70    0.19   0
  -6   2   1   15.75    0.23   0
   6  -2  -1   15.45    0.22   0
  -5   2   1    1.02    0.16   0
   5  -2  -1    0.96    0.16   0
  -5   2   1    0.97    0.21   0
  -5   2   1    1.01    0.15   0
   5  -2  -1    0.90    0.16   0
  -4   2   1   26.92    0.22   0
  -4   2   1   26.52    0.26   0
   4  -2  -1   26.75    0.25   0
   4  -2  -1   27.07    0.24   0
  -4   2   1   27.34    0.40   0
  -3   2   1  125.24    0.47   0
  -3   2   1  131.15    0.45   0
   3  -2  -1  127.17    0.48   0
  -3   2   1  121.31    0.75   0
   3  -2  -1  130.02    0.46   0
   2  -2  -1   25.99    0.29   0
   2  -2  -1   25.41    0.27   0
  -2   2   1   24.65    0.28   0
  -2   2   1   26.39    0.29   0
   1  -2  -1   44.78    0.36   0
   1  -2  -1   48.10    0.41   0
  -1   2   1   48.54    0.41   0
  -1   2   1   44.84    0.36   0
   0   2   1   49.37    0.41   0
   0  -2  -1   48.10    0.41   0
   0   2   1   52.43    0.58   0
   0  -2  -1   50.39    0.57   0
   1   2   1    1.19    0.25   0
  -1  -2  -1    1.18    0.23   0
  -2  -2  -1   14.48    0.47   0
   2   2   1   13.13    0.40   0
   2   2   1   12.37    0.46   0
  -2  -2  -1   12.65    0.38   0
   3   2   1   40.64    0.28   0
  -3  -2  -1   41.91    0.44   0
   3   2   1   36.61    0.43   0
  -4  -2  -1    7.52    0.23   0
   4   2   1    7.60    0.17   0
   4   2   1    6.91    0.24   0
   5   2   1   14.12    0.20   0
  -5  -2  -1   14.56    0.25   0
   5   2   1   13.10    0.26   0
  -6  -2  -1   27.87    0.29   0
   6   2   1   28.60    0.26   0
   6   2   1   25.60    0.30   0
  -7  -2  -1    5.06    0.19   0
   7   2   1    4.83    0.22   0
   7   2   1    5.36    0.19   0
  -8  -2  -1    0.63    0.18   0
   8   2   1    0.63    0.18   0
   8   2   1    0.86    0.19   0
  -9  -2  -1    0.38    0.20   0
   9   2   1    0.41    0.21   0
   9   2   1    0.57    0.19   0
 -10   3   1    0.02    0.15   0
 -10   3   1   -0.05    0.19   0
  10  -3  -1    0.20    0.16   0
  10  -3  -1    0.15    0.19   0
   9  -3  -1    0.26    0.15   0
   9  -3  -1    0.21    0.16   0
  -9   3   1    0.09    0.14   0
  -9   3   1    0.16    0.18   0
  -8   3   1    3.01    0.14   0
   8  -3  -1    3.11    0.18   0
  -8   3   1    3.12    0.17   0
   8  -3  -1    2.93    0.15   0
  -7   3   1    3.81    0.15   0
  -7   3   1    3.86    0.18   0
   7  -3  -1    3.85    0.16   0
   7  -3  -1    3.70    0.18   0
   6  -3  -1    1.18    0.15   0
   6  -3  -1    1.09    0.18   0
  -6   3   1    1.13    0.12   0
  -6   3   1    1.05    0.16   0
  -6   3   1    1.08    0.22   0
  -5   3   1    1.89    0.24   0
  -5   3   1    1.93    0.12   0
  -5   3   1    2.14    0.16   0
   5  -3  -1    1.93    0.16   0
   5  -3  -1    1.86    0.17   0
  -4   3   1   37.45    0.26   0
   4  -3  -1   40.08    0.26   0
  -4   3   1   40.12    0.25   0
  -4   3   1   38.28    0.39   0
   4  -3  -1   38.71    0.27   0
  -3   3   1    6.74    0.17   0
  -3   3   1    6.93    0.15   0
   3  -3  -1    6.99    0.18   0
   3  -3  -1    6.90    0.18   0
   2  -3  -1   88.16    0.39   0
  -2   3   1   89.70    0.41   0
  -2   3   1   85.68    0.37   0
   2  -3  -1   90.15    0.42   0
  -1   3   1   36.64    0.33   0
   1  -3  -1   36.13    0.33   0
  -1   3   1   35.26    0.29   0
   1  -3  -1   33.96    0.27   0
   0  -3  -1   49.98    0.35   0
   0   3   1   55.25    0.51   0
   0  -3  -1   50.97    0.50   0
   0   3   1   49.63    0.35   0
  -1  -3  -1  143.17    0.59   0
   1   3   1  146.82    0.62   0
  -2  -3  -1   14.72    0.29   0
   2   3   1   15.15    0.30   0
  -3  -3  -1   33.10    0.50   0
   3   3   1   32.53    0.51   0
   3   3   1   30.42    0.63   0
   4   3   1    0.22    0.27   0
   4   3   1    0.11    0.14   0
  -4  -3  -1    0.24    0.27   0
  -5  -3  -1   11.47    0.29   0
   5   3   1    9.73    0.29   0
   5   3   1   10.62    0.18   0
  -6  -3  -1    4.82    0.24   0
   6   3   1    4.69    0.24   0
   6   3   1    4.87    0.17   0
   7   3   1    0.31    0.21   0
  -7  -3  -1    0.16    0.20   0
   7   3   1    0.10    0.16   0
   8   3   1    0.37    0.18   0
   8   3   1    0.35    0.24   0
  -8  -3  -1    0.53    0.21   0
  10  -4  -1   -0.02    0.16   0
  10  -4  -1    0.25    0.19   0
 -10   4   1   -0.00    0.14   0
 -10   4   1    0.08    0.17   0
  -9   4   1    1.30    0.14   0
   9  -4  -1    1.16    0.19   0
   9  -4  -1    1.28    0.15   0
  -9   4   1    1.53    0.17   0
   8  -4  -1    6.46    0.19   0
  -8   4   1    6.38    0.17   0
   8  -4  -1    6.30    0.17   0
  -8   4   1    6.55    0.16   0
   7  -4  -1    0.01    0.15   0
  -7   4   1    0.08    0.21   0
   7  -4  -1    0.20    0.14   0
  -7   4   1    0.09    0.13   0
  -7   4   1   -0.02    0.15   0
   6  -4  -1    0.77    0.15   0
  -6   4   1    0.72    0.12   0
   6  -4  -1    0.85    0.16   0
  -6   4   1    1.07    0.13   0
  -6   4   1    0.83    0.20   0
   5  -4  -1    0.35    0.14   0
  -5   4   1    0.76    0.13   0
  -5   4   1    0.63    0.18   0
   5  -4  -1    0.46    0.15   0
  -5   4   1    0.74    0.14   0
   4  -4  -1    8.05    0.18   0
  -4   4   1    8.30    0.22   0
  -4   4   1    8.23    0.17   0
  -4   4   1    8.28    0.17   0
   4  -4  -1    8.44    0.17   0
   3  -4  -1    3.82    0.17   0
   3  -4  -1    3.91    0.17   0
  -3   4   1    4.02    0.16   0
  -3   4   1    3.74    0.14   0
   2  -4  -1    4.47    0.17   0
  -2   4   1    4.10    0.16   0
   2  -4  -1    4.15    0.14   0
  -2   4   1    4.42    0.17   0
  -1   4   1   38.19    0.31   0
   1  -4  -1   36.12    0.30   0
   1  -4  -1   35.71    0.26   0
  -1   4   1   35.84    0.25   0
   0   4   1   14.57    0.20   0
   0   4   1   15.67    0.29   0
   0  -4  -1   14.16    0.29   0
   0  -4  -1   14.09    0.20   0
   1   4   1    0.49    0.30   0
   1   4   1    0.36    0.17   0
  -1  -4  -1    0.48    0.16   0
  -1  -4  -1    0.49    0.33   0
   2   4   1   95.36    0.49   0
  -2  -4  -1   93.59    0.47   0
   3   4   1   89.71    0.58   0
  -3  -4  -1   91.24    0.58   0
   5   4   1    1.50    0.14   0
   6   4   1    0.76    0.15   0
   6   4   1    0.72    0.30   0
   6   4   1    0.76    0.29   0
   7   4   1    0.04    0.14   0
   7   4   1    0.24    0.29   0
   7   4   1    0.32    0.29   0
   8   4   1    0.11    0.32   0
   8   4   1   -0.01    0.32   0
   8   4   1    0.01    0.17   0
 -10   5   1    2.47    0.19   0
  10  -5  -1    2.18    0.19   0
 -10   5   1    2.37    0.13   0
  10  -5  -1    2.19    0.17   0
   9  -5  -1    1.63    0.15   0
  -9   5   1    1.73    0.14   0
   9  -5  -1    1.52    0.17   0
  -9   5   1    1.58    0.17   0
   8  -5  -1    0.04    0.14   0
  -8   5   1    0.15    0.24   0
  -8   5   1   -0.10    0.11   0
   8  -5  -1    0.13    0.13   0
  -8   5   1    0.05    0.13   0
  -7   5   1    1.94    0.11   0
  -7   5   1    1.85    0.14   0
  -7   5   1    1.91    0.21   0
   7  -5  -1    1.98    0.15   0
   7  -5  -1    1.80    0.14   0
   6  -5  -1    2.04    0.15   0
  -6   5   1    2.13    0.20   0
  -6   5   1    2.18    0.11   0
  -6   5   1    2.12    0.14   0
   6  -5  -1    2.09    0.15   0
   5  -5  -1    8.83    0.15   0
  -5   5   1    9.47    0.16   0
   5  -5  -1    8.91    0.17   0
  -5   5   1    9.31    0.23   0
  -5   5   1    9.03    0.17   0
   4  -5  -1    7.04    0.17   0
  -4   5   1    6.19    0.14   0
   4  -5  -1    6.52    0.18   0
  -4   5   1    6.52    0.14   0
  -3   5   1   51.43    0.27   0
   3  -5  -1   53.06    0.29   0
   3  -5  -1   51.99    0.27   0
  -3   5   1   53.62    0.29   0
  -2   5   1    0.67    0.15   0
   2  -5  -1    0.55    0.14   0
  -2   5   1    0.83    0.14   0
   2  -5  -1    0.66    0.15   0
   1  -5  -1   28.92    0.26   0
  -1   5   1   31.68    0.28   0
  -1   5   1   29.05    0.23   0
   1  -5  -1   28.14    0.21   0
   0  -5  -1   15.74    0.28   0
   0   5   1   17.83    0.28   0
   0  -5  -1   16.00    0.20   0
   0   5   1   17.02    0.22   0
   1   5   1   10.55    0.20   0
   1   5   1   11.07    0.34   0
  -1  -5  -1   10.48    0.20   0
  -1  -5  -1   10.16    0.36   0
  -2  -5  -1    0.78    0.15   0
   2   5   1    0.65    0.18   0
  -3  -5  -1   52.51    0.40   0
   3   5   1   52.36    0.41   0
   4   5   1   10.55    0.33   0
   5   5   1    0.62    0.14   0
   6   5   1    0.27    0.14   0
   7   5   1    1.65    0.15   0
   9  -6  -1    1.65    0.16   0
   9  -6  -1    1.52    0.15   0
  -9   6   1    1.47    0.17   0
  -9   6   1    1.60    0.15   0
  -8   6   1    0.81    0.11   0
   8  -6  -1    0.73    0.13   0
   8  -6  -1    0.87    0.12   0
  -8   6   1    0.84    0.16   0
  -8   6   1    0.92    0.24   0
   7  -6  -1    6.63    0.17   0
  -7   6   1    6.99    0.14   0
  -7   6   1    6.78    0.16   0
   7  -6  -1    7.00    0.16   0
  -7   6   1    6.92    0.24   0
   6  -6  -1   14.52    0.19   0
  -6   6   1   14.79    0.25   0
  -6   6   1   15.33    0.18   0
  -6   6   1   14.61    0.19   0
   6  -6  -1   14.57    0.19   0
  -5   6   1    1.69    0.12   0
   5  -6  -1    1.74    0.13   0
   5  -6  -1    2.00    0.15   0
  -5   6   1    2.02    0.17   0
  -5   6   1    1.84    0.14   0
   4  -6  -1    0.54    0.14   0
  -4   6   1    0.71    0.12   0
   4  -6  -1    0.80    0.15   0
  -4   6   1    0.70    0.11   0
   3  -6  -1    0.93    0.13   0
   3  -6  -1    1.01    0.15   0
  -3   6   1    0.83    0.15   0
  -3   6   1    0.98    0.13   0
   2  -6  -1    6.24    0.18   0
  -2   6   1    6.43    0.16   0
  -2   6   1    6.67    0.17   0
   2  -6  -1    6.27    0.16   0
  -1   6   1   11.42    0.18   0
   1  -6  -1   11.25    0.18   0
   1  -6  -1   10.96    0.21   0
  -1   6   1   12.42    0.21   0
   0   6   1    2.37    0.16   0
   0  -6  -1    2.40    0.15   0
   0   6   1    2.67    0.20   0
   0  -6  -1    2.42    0.21   0
  -1  -6  -1    4.60    0.16   0
  -1  -6  -1    4.41    0.30   0
   1   6   1    4.69    0.28   0
   1   6   1    4.50    0.17   0
  -2  -6  -1    1.97    0.16   0
   2   6   1    2.06    0.17   0
  -3  -6  -1   16.75    0.25   0
   3   6   1   16.94    0.25   0
  -4  -6  -1    0.52    0.20   0
   4   6   1    0.60    0.21   0
   5   6   1    5.26    0.16   0
   6   6   1    0.37    0.15   0
   7   6   1    1.28    0.16   0
  -9   7   1    0.33    0.14   0
   9  -7  -1    0.01    0.16   0
  -9   7   1    0.15    0.26   0
  -9   7   1   -0.05    0.17   0
   9  -7  -1    0.33    0.17   0
  -8   7   1    0.91    0.21   0
  -8   7   1    1.05    0.14   0
   8  -7  -1    1.00    0.14   0
  -8   7   1    1.16    0.13   0
   8  -7  -1    0.97    0.15   0
  -7   7   1    1.92    0.19   0
  -7   7   1    2.21    0.14   0
   7  -7  -1    2.15    0.14   0
   7  -7  -1    2.08    0.12   0
  -7   7   1    2.05    0.11   0
  -6   7   1    0.31    0.13   0
   6  -7  -1    0.57    0.15   0
  -6   7   1    0.24    0.18   0
   6  -7  -1    0.53    0.14   0
  -6   7   1    0.02    0.14   0
  -5   7   1    0.19    0.13   0
  -5   7   1    0.02    0.14   0
   5  -7  -1    0.37    0.15   0
   5  -7  -1    0.31    0.11   0
   4  -7  -1    7.77    0.18   0
   4  -7  -1    7.85    0.16   0
  -4   7   1    8.07    0.17   0
  -4   7   1    7.63    0.16   0
  -3   7   1   12.58    0.15   0
  -3   7   1   13.29    0.18   0
   3  -7  -1   13.22    0.17   0
   3  -7  -1   12.25    0.20   0
   2  -7  -1   14.57    0.20   0
  -2   7   1   14.38    0.17   0
  -2   7   1   15.50    0.20   0
   2  -7  -1   14.30    0.18   0
   1  -7  -1    8.56    0.20   0
  -1   7   1    9.40    0.20   0
   1  -7  -1    8.61    0.16   0
  -1   7   1    8.74    0.16   0
   0   7   1   13.27    0.25   0
   0  -7  -1   12.00    0.26   0
   0  -7  -1   12.05    0.18   0
   0   7   1   12.09    0.18   0
   1   7   1    0.13    0.22   0
  -1  -7  -1    0.29    0.26   0
  -1  -7  -1    0.25    0.13   0
   1   7   1    0.11    0.13   0
  -2  -7  -1   14.26    0.21   0
   2   7   1   14.08    0.22   0
   3   7   1    2.95    0.19   0
  -3  -7  -1    2.93    0.19   0
   4   7   1    8.40    0.24   0
  -4  -7  -1    8.86    0.24   0
   6   7   1    1.45    0.15   0
  -9   8   1    0.50    0.14   0
   9  -8  -1    0.50    0.17   0
  -9   8   1    0.44    0.18   0
   9  -8  -1    0.24    0.15   0
  -9   8   1    0.44    0.25   0
  -8   8   1    0.29    0.19   0
   8  -8  -1    0.32    0.14   0
  -8   8   1    0.71    0.13   0
  -8   8   1    0.44    0.14   0
   8  -8  -1    0.40    0.15   0
  -7   8   1   -0.04    0.11   0
  -7   8   1    0.32    0.14   0
  -7   8   1    0.02    0.16   0
   7  -8  -1    0.21    0.14   0
   7  -8  -1    0.05    0.13   0
  -6   8   1    8.01    0.16   0
  -6   8   1    8.20    0.16   0
   6  -8  -1    8.34    0.17   0
   6  -8  -1    7.88    0.17   0
  -6   8   1    7.69    0.20   0
   5  -8  -1    0.53    0.14   0
  -5   8   1    0.78    0.13   0
   5  -8  -1    0.62    0.14   0
  -5   8   1    0.70    0.11   0
   4  -8  -1   29.05    0.23   0
  -4   8   1   30.09    0.21   0
   4  -8  -1   29.77    0.21   0
  -4   8   1   30.79    0.23   0
   3  -8  -1    8.82    0.18   0
   3  -8  -1    8.84    0.14   0
  -3   8   1    8.90    0.16   0
  -3   8   1    9.61    0.17   0
  -2   8   1    0.30    0.13   0
   2  -8  -1    0.23    0.14   0
  -2   8   1    0.12    0.14   0
   2  -8  -1    0.12    0.15   0
   1  -8  -1    0.09    0.18   0
  -1   8   1    0.11    0.16   0
  -1   8   1    0.07    0.14   0
   1  -8  -1   -0.10    0.13   0
   0  -8  -1    0.27    0.19   0
   0  -8  -1    0.22    0.13   0
   0   8   1    0.07    0.13   0
   0   8   1    0.09    0.17   0
  -1  -8  -1    3.28    0.14   0
   1   8   1    3.66    0.15   0
  -1  -8  -1    3.34    0.29   0
   1   8   1    3.51    0.29   0
   2   8   1    7.80    0.19   0
  -2  -8  -1    7.83    0.18   0
   3   8   1    0.46    0.16   0
  -3  -8  -1    0.37    0.16   0
  -4  -8  -1    0.00    0.19   0
   4   8   1    0.07    0.19   0
   5   8   1    0.08    0.31   0
   5   8   1    0.02    0.30   0
   6   8   1    1.21    0.16   0
  -8   9   1    0.38    0.14   0
   8  -9  -1    0.11    0.15   0
  -8   9   1    0.24    0.12   0
   8  -9  -1    0.20    0.13   0
  -8   9   1    0.21    0.19   0
  -7   9   1    0.27    0.14   0
   7  -9  -1    0.43    0.15   0
  -7   9   1    0.42    0.16   0
   7  -9  -1    0.04    0.13   0
  -7   9   1    0.49    0.14   0
   6  -9  -1    1.01    0.11   0
  -6   9   1    0.80    0.13   0
   6  -9  -1    0.49    0.15   0
  -6   9   1    0.86    0.14   0
  -6   9   1    0.72    0.16   0
   5  -9  -1    5.45    0.15   0
  -5   9   1    5.61    0.15   0
   5  -9  -1    5.58    0.15   0
  -5   9   1    5.50    0.16   0
   4  -9  -1    1.42    0.13   0
  -4   9   1    1.36    0.13   0
   4  -9  -1    1.13    0.15   0
  -4   9   1    1.48    0.14   0
   3  -9  -1    0.18    0.13   0
   3  -9  -1    0.36    0.17   0
  -3   9   1    0.47    0.16   0
  -3   9   1    0.34    0.13   0
  -2   9   1   17.99    0.23   0
   2  -9  -1   15.46    0.20   0
   2  -9  -1   16.06    0.16   0
  -2   9   1   16.65    0.18   0
   1  -9  -1   32.33    0.22   0
  -1   9   1   32.65    0.23   0
   1  -9  -1   32.35    0.31   0
  -1   9   1   35.98    0.29   0
   0   9   1    4.39    0.21   0
   0   9   1    4.11    0.15   0
   0  -9  -1    4.03    0.23   0
   0  -9  -1    4.04    0.15   0
   1   9   1    1.47    0.27   0
  -1  -9  -1    1.40    0.29   0
  -1  -9  -1    1.29    0.13   0
   1   9   1    1.49    0.14   0
   2   9   1    0.19    0.15   0
  -2  -9  -1    0.08    0.14   0
  -3  -9  -1    0.50    0.15   0
   3   9   1    0.65    0.16   0
  -4  -9  -1    0.07    0.18   0
   4   9   1    0.12    0.18   0
   5   9   1    0.22    0.28   0
   5   9   1    0.22    0.29   0
  -8  10   1    3.38    0.22   0
   8 -10  -1    2.83    0.16   0
  -8  10   1    3.14    0.16   0
  -8  10   1    2.90    0.16   0
   8 -10  -1    3.32    0.17   0
  -7  10   1    1.56    0.15   0
  -7  10   1    1.39    0.17   0
  -7  10   1    1.65    0.15   0
   7 -10  -1    1.77    0.16   0
   7 -10  -1    1.58    0.15   0
  -6  10   1    0.11    0.11   0
  -6  10   1    0.35    0.11   0
   6 -10  -1    0.46    0.15   0
   6 -10  -1    0.45    0.14   0
  -5  10   1    1.09    0.13   0
  -5  10   1    1.05    0.13   0
   5 -10  -1    0.99    0.11   0
   5 -10  -1    0.99    0.15   0
   4 -10  -1    1.00    0.13   0
   4 -10  -1    0.71    0.15   0
  -4  10   1    0.79    0.15   0
  -4  10   1    1.02    0.13   0
   3 -10  -1    2.17    0.15   0
  -3  10   1    2.45    0.12   0
  -3  10   1    2.75    0.15   0
   3 -10  -1    2.30    0.14   0
  -2  10   1    6.45    0.16   0
   2 -10  -1    6.82    0.16   0
  -2  10   1    7.29    0.19   0
   2 -10  -1    6.34    0.20   0
   1 -10  -1    8.67    0.21   0
   1 -10  -1    8.95    0.16   0
  -1  10   1    9.18    0.16   0
  -1  10   1   10.19    0.23   0
   0 -10  -1    5.43    0.23   0
   0 -10  -1    6.12    0.17   0
   0  10   1    5.78    0.16   0
   0  10   1    6.19    0.23   0
  -1 -10  -1    0.39    0.13   0
  -1 -10  -1    0.36    0.33   0
   1  10   1    0.27    0.13   0
   1  10   1    0.44    0.32   0
  -2 -10  -1   -0.06    0.16   0
   2  10   1    0.10    0.16   0
   3  10   1    4.12    0.19   0
  -3 -10  -1    4.18    0.19   0
   4  10   1    0.05    0.20   0
  -4 -10  -1    0.13    0.19   0
  -7  11   1    0.17    0.15   0
   7 -11  -1    0.31    0.16   0
   7 -11  -1    0.09    0.12   0
  -7  11   1    0.31    0.14   0
  -7  11   1    0.16    0.15   0
  -6  11   1    0.05    0.14   0
  -6  11   1   -0.01    0.13   0
   6 -11  -1   -0.00    0.11   0
   6 -11  -1    0.15    0.12   0
  -5  11   1    1.29    0.14   0
   5 -11  -1    1.36    0.15   0
  -5  11   1    0.95    0.13   0
   5 -11  -1    1.23    0.14   0
   4 -11  -1    6.39    0.13   0
   4 -11  -1    6.32    0.17   0
  -4  11   1    6.80    0.17   0
  -4  11   1    6.16    0.16   0
  -3  11   1    0.59    0.16   0
  -3  11   1    0.62    0.14   0
   3 -11  -1    0.63    0.17   0
   3 -11  -1    0.76    0.14   0
   2 -11  -1   -0.03    0.16   0
   2 -11  -1    0.42    0.13   0
  -2  11   1    0.20    0.16   0
  -2  11   1    0.30    0.11   0
   1 -11  -1    0.39    0.17   0
   1 -11  -1    0.30    0.12   0
  -1  11   1    0.26    0.18   0
  -1  11   1    0.32    0.14   0
   0 -11  -1    2.56    0.22   0
   0 -11  -1    2.87    0.14   0
   0  11   1    3.10    0.21   0
   0  11   1    2.75    0.15   0
   1  11   1    0.34    0.16   0
  -1 -11  -1    0.13    0.14   0
   2  11   1    0.32    0.15   0
  -2 -11  -1    0.54    0.16   0
  -3 -11  -1    0.14    0.17   0
   3  11   1    0.15    0.17   0
  -6  12   1    0.92    0.15   0
   6 -12  -1    1.61    0.15   0
  -6  12   1    1.13    0.15   0
   5 -12  -1    0.25    0.14   0
  -5  12   1    0.21    0.14   0
   5 -12  -1    0.39    0.16   0
  -5  12   1    0.20    0.14   0
   4 -12  -1    0.14    0.15   0
  -4  12   1    0.26    0.12   0
  -4  12   1    0.12    0.17   0
   4 -12  -1    0.04    0.11   0
  -3  12   1    0.18    0.14   0
   3 -12  -1    0.07    0.17   0
  -3  12   1    0.11    0.16   0
   3 -12  -1   -0.13    0.14   0
   2 -12  -1    0.16    0.13   0
  -2  12   1    0.07    0.14   0
   2 -12  -1    0.06    0.17   0
  -2  12   1    0.10    0.16   0
   1 -12  -1    0.17    0.20   0
   1 -12  -1    0.19    0.14   0
  -1  12   1   -0.05    0.14   0
  -1  12   1    0.08    0.17   0
   0 -12  -1    1.73    0.15   0
   0  12   1    1.62    0.24   0
   0  12   1    1.83    0.15   0
   0 -12  -1    1.72    0.25   0
  -1 -12  -1    0.34    0.14   0
   1  12   1    0.48    0.15   0
   0 -13   2    1.12    0.15   0
   0  13  -2    0.78    0.15   0
   0  13  -2    1.06    0.21   0
   0 -13   2    1.08    0.21   0
  -1  13  -2    2.62    0.21   0
   1 -13   2    2.60    0.19   0
  -1  13  -2    2.64    0.15   0
   1 -13   2    2.52    0.15   0
   2 -13   2    0.12    0.14   0
  -2  13  -2    0.10    0.15   0
   2 -13   2   -0.07    0.16   0
  -2  13  -2    0.09    0.17   0
  -3  13  -2    0.14    0.14   0
   3 -13   2    0.24    0.14   0
   3 -13   2    0.25    0.16   0
  -3  13  -2    0.26    0.15   0
  -4  13  -2    0.61    0.11   0
   4 -13   2    0.26    0.14   0
   4 -13   2    0.26    0.16   0
  -4  13  -2    0.71    0.15   0
   2  12  -2   -0.07    0.15   0
  -2 -12   2    0.24    0.17   0
   1  12  -2    1.09    0.24   0
   1  12  -2    0.95    0.15   0
  -1 -12   2    1.05    0.22   0
  -1 -12   2    1.06    0.14   0
   0  12  -2    0.76    0.14   0
   0 -12   2    0.54    0.19   0
   0 -12   2    0.20    0.13   0
   0  12  -2    0.55    0.19   0
   1 -12   2    1.04    0.17   0
  -1  12  -2    0.83    0.17   0
  -1  12  -2    0.94    0.14   0
   1 -12   2    0.74    0.13   0
   2 -12   2   -0.13    0.14   0
  -2  12  -2   -0.17    0.11   0
   2 -12   2    0.06    0.13   0
  -2  12  -2    0.03    0.14   0
   3 -12   2    0.51    0.13   0
  -3  12  -2    0.51    0.16   0
   3 -12   2    0.21    0.15   0
  -3  12  -2    0.20    0.11   0
   4 -12   2    0.24    0.15   0
  -4  12  -2    0.41    0.11   0
  -4  12  -2    0.17    0.17   0
   4 -12   2    0.35    0.13   0
   5 -12   2    1.72    0.14   0
  -5  12  -2    1.10    0.15   0
   5 -12   2    1.44    0.15   0
  -5  12  -2    1.25    0.15   0
  -5  12  -2    1.39    0.14   0
   6 -12   2    0.48    0.15   0
  -6  12  -2    0.50    0.12   0
  -6  12  -2    0.76    0.16   0
   6 -12   2    0.65    0.16   0
  -6  12  -2    0.79    0.15   0
   4  11  -2    0.26    0.18   0
  -3 -11   2    0.13    0.16   0
   3  11  -2    0.01    0.15   0
   2  11  -2    1.69    0.15   0
   2  11  -2    2.16    0.28   0
  -2 -11   2    2.36    0.16   0
  -1 -11   2    0.18    0.15   0
  -1 -11   2    0.27    0.21   0
   1  11  -2   -0.01    0.18   0
   1  11  -2    0.05    0.14   0
   0  11  -2    0.40    0.16   0
   0 -11   2    0.55    0.18   0
   0  11  -2    0.44    0.13   0
   0 -11   2    0.32    0.13   0
  -1  11  -2    6.64    0.15   0
   1 -11   2    6.33    0.15   0
  -1  11  -2    6.48    0.17   0
   1 -11   2    6.28    0.17   0
  -2  11  -2    0.30    0.14   0
  -2  11  -2    0.22    0.13   0
   2 -11   2    0.19    0.13   0
   2 -11   2    0.16    0.14   0
  -3  11  -2    2.90    0.15   0
   3 -11   2    2.86    0.14   0
   3 -11   2    2.94    0.15   0
  -3  11  -2    2.71    0.14   0
   4 -11   2    2.49    0.15   0
  -4  11  -2    2.48    0.14   0
  -4  11  -2    2.42    0.15   0
   4 -11   2    2.37    0.14   0
   5 -11   2    0.21    0.13   0
  -5  11  -2    0.01    0.13   0
  -5  11  -2    0.02    0.16   0
   5 -11   2    0.05    0.11   0
  -5  11  -2    0.28    0.14   0
  -6  11  -2    0.32    0.14   0
   6 -11   2    0.25    0.14   0
   6 -11   2    0.32    0.15   0
  -6  11  -2    0.48    0.14   0
  -6  11  -2    0.30    0.16   0
  -7  11  -2    0.27    0.17   0
   7 -11   2    0.03    0.13   0
   7 -11   2    0.11    0.15   0
  -7  11  -2    0.11    0.15   0
  -7  11  -2   -0.08    0.15   0
   5  10  -2    2.41    0.21   0
   5  10  -2    2.57    0.23   0
  -4 -10   2    0.96    0.17   0
   4  10  -2    0.74    0.17   0
  -3 -10   2    0.45    0.15   0
   3  10  -2    0.40    0.16   0
   2  10  -2    0.07    0.13   0
  -2 -10   2    0.14    0.14   0
   2  10  -2    0.13    0.23   0
  -1 -10   2    1.13    0.13   0
  -1 -10   2    0.96    0.18   0
   1  10  -2    0.94    0.18   0
   1  10  -2    1.02    0.14   0
   0 -10   2    0.81    0.13   0
   0 -10   2    0.79    0.17   0
   0  10  -2    0.71    0.17   0
   0  10  -2    0.52    0.13   0
   1 -10   2    5.64    0.18   0
  -1  10  -2    5.96    0.18   0
   1 -10   2    5.67    0.15   0
  -1  10  -2    5.51    0.15   0
   2 -10   2    4.24    0.16   0
  -2  10  -2    4.77    0.16   0
   2 -10   2    4.62    0.15   0
  -2  10  -2    4.68    0.15   0
   3 -10   2    0.25    0.14   0
  -3  10  -2    0.19    0.13   0
  -3  10  -2    0.45    0.13   0
   3 -10   2    0.33    0.10   0
  -4  10  -2    2.79    0.14   0
  -4  10  -2    2.90    0.14   0
   4 -10   2    3.02    0.11   0
   4 -10   2    3.24    0.15   0
  -5  10  -2    0.71    0.11   0
  -5  10  -2    0.87    0.13   0
   5 -10   2    0.77    0.11   0
  -5  10  -2    0.79    0.13   0
   5 -10   2    0.94    0.15   0
  -6  10  -2    1.23    0.14   0
  -6  10  -2    1.49    0.14   0
   6 -10   2    1.67    0.14   0
  -6  10  -2    0.92    0.14   0
   6 -10   2    1.31    0.15   0
  -7  10  -2    0.68    0.17   0
   7 -10   2    0.74    0.15   0
   7 -10   2    0.88    0.15   0
  -7  10  -2    0.73    0.14   0
  -7  10  -2    1.12    0.14   0
   8 -10   2    0.44    0.15   0
   8 -10   2    0.16    0.13   0
  -8  10  -2    0.29    0.14   0
  -8  10  -2    0.48    0.12   0
  -8  10  -2    0.16    0.18   0
   6   9  -2    0.69    0.27   0
   6   9  -2    0.73    0.27   0
   5   9  -2    0.80    0.21   0
   5   9  -2    0.76    0.19   0
   4   9  -2    0.06    0.16   0
  -4  -9   2    0.16    0.15   0
   3   9  -2    2.76    0.17   0
  -3  -9   2    2.76    0.14   0
  -2  -9   2    0.99    0.15   0
   2   9  -2    0.94    0.14   0
   2   9  -2    0.79    0.22   0
  -2  -9   2    1.07    0.21   0
   1   9  -2    0.66    0.14   0
  -1  -9   2    0.77    0.15   0
  -1  -9   2    0.67    0.17   0
   1   9  -2    0.76    0.19   0
   0   9  -2    0.25    0.17   0
   0   9  -2    0.23    0.14   0
   0  -9   2    0.16    0.14   0
   0  -9   2    0.09    0.17   0
   1  -9   2   32.30    0.20   0
  -1   9  -2   32.45    0.21   0
   1  -9   2   31.64    0.25   0
  -1   9  -2   33.23    0.25   0
  -2   9  -2   10.84    0.17   0
   2  -9   2   10.96    0.17   0
   2  -9   2   11.19    0.16   0
  -2   9  -2   10.65    0.17   0
  -3   9  -2   12.45    0.14   0
   3  -9   2   12.36    0.18   0
   3  -9   2   12.64    0.16   0
  -3   9  -2   13.00    0.18   0
   4  -9   2   18.43    0.20   0
  -4   9  -2   18.12    0.17   0
  -4   9  -2   19.16    0.20   0
   4  -9   2   19.21    0.19   0
   5  -9   2    2.41    0.15   0
  -5   9  -2    2.40    0.15   0
   5  -9   2    2.56    0.15   0
  -5   9  -2    2.36    0.16   0
  -5   9  -2    2.40    0.14   0
  -6   9  -2    0.20    0.13   0
   6  -9   2    0.19    0.11   0
  -6   9  -2    0.23    0.13   0
  -6   9  -2    0.24    0.13   0
   6  -9   2    0.13    0.14   0
  -7   9  -2    1.44    0.14   0
  -7   9  -2    1.53    0.14   0
   7  -9   2    1.19    0.15   0
  -7   9  -2    1.44    0.16   0
   7  -9   2    1.46    0.15   0
   8  -9   2    0.51    0.14   0
  -8   9  -2    0.79    0.16   0
   8  -9   2    0.65    0.15   0
  -8   9  -2    0.60    0.18   0
  -8   9  -2    0.47    0.11   0
   6   8  -2    0.58    0.25   0
   6   8  -2    0.56    0.25   0
   5   8  -2    2.43    0.21   0
   5   8  -2    2.49    0.21   0
   4   8  -2    0.73    0.16   0
  -4  -8   2    0.97    0.16   0
   3   8  -2   10.73    0.20   0
   3   8  -2   11.37    0.37   0
   3   8  -2   11.29    0.35   0
  -3  -8   2   11.79    0.20   0
  -2  -8   2    4.44    0.23   0
   2   8  -2    4.04    0.18   0
   2   8  -2    4.37    0.25   0
  -2  -8   2    4.62    0.15   0
  -1  -8   2    1.38    0.20   0
  -1  -8   2    1.60    0.13   0
   1   8  -2    1.33    0.14   0
   1   8  -2    1.39    0.18   0
   0   8  -2    4.22    0.19   0
   0  -8   2    4.34    0.19   0
   0  -8   2    4.45    0.15   0
   0   8  -2    4.41    0.15   0
   1  -8   2    0.08    0.15   0
  -1   8  -2    0.29    0.14   0
   1  -8   2    0.16    0.13   0
  -1   8  -2    0.09    0.17   0
   2  -8   2    4.18    0.17   0
   2  -8   2    4.39    0.15   0
  -2   8  -2    5.05    0.16   0
  -2   8  -2    4.70    0.13   0
   3  -8   2   15.11    0.20   0
   3  -8   2   15.48    0.16   0
  -3   8  -2   15.88    0.20   0
  -3   8  -2   15.78    0.18   0
  -4   8  -2   24.50    0.21   0
   4  -8   2   25.18    0.21   0
   4  -8   2   23.29    0.22   0
  -4   8  -2   24.14    0.20   0
   5  -8   2    8.89    0.17   0
  -5   8  -2    9.58    0.17   0
  -5   8  -2    9.13    0.16   0
  -5   8  -2    8.92    0.16   0
   5  -8   2    9.22    0.16   0
   6  -8   2    2.34    0.14   0
  -6   8  -2    2.51    0.16   0
  -6   8  -2    2.52    0.13   0
  -6   8  -2    2.38    0.14   0
   6  -8   2    2.33    0.12   0
  -7   8  -2    2.19    0.17   0
  -7   8  -2    2.08    0.14   0
  -7   8  -2    1.89    0.12   0
   7  -8   2    2.04    0.13   0
   7  -8   2    2.14    0.14   0
   8  -8   2    0.39    0.14   0
   8  -8   2    0.17    0.15   0
  -8   8  -2    0.29    0.14   0
  -8   8  -2    0.42    0.17   0
  -8   8  -2    0.21    0.14   0
   9  -8   2    0.63    0.17   0
  -9   8  -2    0.19    0.15   0
  -9   8  -2    0.26    0.15   0
   9  -8   2    0.31    0.16   0
  -9   8  -2    0.56    0.21   0
   7   7  -2    0.61    0.15   0
   6   7  -2    0.48    0.26   0
   6   7  -2    0.51    0.26   0
   5   7  -2    0.75    0.19   0
   5   7  -2    0.81    0.17   0
   4   7  -2    1.47    0.35   0
   4   7  -2    1.66    0.33   0
   4   7  -2    1.62    0.18   0
  -3  -7   2    1.27    0.16   0
   3   7  -2    1.07    0.23   0
   3   7  -2    1.13    0.17   0
   3   7  -2    1.09    0.25   0
  -2  -7   2    5.73    0.21   0
   2   7  -2    5.43    0.16   0
   2   7  -2    5.56    0.24   0
  -2  -7   2    5.81    0.17   0
  -1  -7   2   29.35    0.22   0
   1   7  -2   29.20    0.23   0
  -1  -7   2   29.85    0.29   0
   1   7  -2   28.49    0.29   0
   0  -7   2   17.08    0.21   0
   0  -7   2   17.07    0.19   0
   0   7  -2   17.11    0.23   0
   0   7  -2   17.53    0.20   0
   1  -7   2    8.38    0.21   0
   1  -7   2    9.19    0.17   0
  -1   7  -2    9.01    0.18   0
  -1   7  -2    9.10    0.17   0
   2  -7   2   11.27    0.19   0
  -2   7  -2   11.65    0.19   0
  -2   7  -2   11.56    0.15   0
   2  -7   2   11.54    0.16   0
   3  -7   2    0.16    0.15   0
  -3   7  -2   -0.08    0.14   0
   3  -7   2   -0.15    0.11   0
  -3   7  -2    0.10    0.13   0
  -4   7  -2    3.14    0.15   0
  -4   7  -2    3.02    0.15   0
   4  -7   2    3.15    0.13   0
   4  -7   2    3.16    0.15   0
  -4   7  -2    3.18    0.14   0
   5  -7   2    4.29    0.15   0
  -5   7  -2    4.43    0.15   0
   5  -7   2    4.22    0.15   0
  -5   7  -2    4.39    0.15   0
  -5   7  -2    4.09    0.15   0
  -6   7  -2    0.15    0.13   0
  -6   7  -2    0.18    0.13   0
   6  -7   2    0.28    0.13   0
   6  -7   2    0.15    0.14   0
  -6   7  -2    0.27    0.13   0
  -7   7  -2    7.96    0.16   0
   7  -7   2    8.63    0.19   0
  -7   7  -2    8.01    0.16   0
   7  -7   2    7.84    0.17   0
  -7   7  -2    8.31    0.21   0
  -8   7  -2    0.14    0.17   0
  -8   7  -2    0.22    0.14   0
  -8   7  -2   -0.00    0.14   0
   8  -7   2    0.32    0.16   0
   8  -7   2   -0.17    0.15   0
  -9   7  -2    0.49    0.14   0
   9  -7   2    0.38    0.16   0
  -9   7  -2    0.50    0.18   0
  -9   7  -2    0.41    0.15   0
   9  -7   2    0.35    0.17   0
   8   6  -2    0.17    0.16   0
   7   6  -2    1.22    0.15   0
   6   6  -2    2.80    0.29   0
   6   6  -2    2.62    0.33   0
   6   6  -2    2.78    0.33   0
   6   6  -2    2.90    0.29   0
   5   6  -2    0.04    0.27   0
   5   6  -2   -0.00    0.18   0
   5   6  -2    0.00    0.18   0
   5   6  -2    0.08    0.25   0
   4   6  -2    4.28    0.17   0
   4   6  -2    4.36    0.28   0
   4   6  -2    4.70    0.19   0
   4   6  -2    4.94    0.26   0
   3   6  -2    3.82    0.23   0
   3   6  -2    3.55    0.25   0
   3   6  -2    3.68    0.18   0
  -3  -6   2    3.79    0.17   0
  -2  -6   2   54.19    0.41   0
   2   6  -2   51.36    0.30   0
   2   6  -2   50.47    0.41   0
  -2  -6   2   53.38    0.30   0
  -1  -6   2   16.59    0.24   0
  -1  -6   2   16.22    0.20   0
   1   6  -2   15.17    0.26   0
   1   6  -2   15.94    0.20   0
   0   6  -2    0.77    0.14   0
   0   6  -2    0.49    0.15   0
   0  -6   2    0.46    0.14   0
   0  -6   2    0.54    0.17   0
  -1   6  -2   21.60    0.23   0
   1  -6   2   22.29    0.23   0
  -1   6  -2   22.16    0.20   0
   1  -6   2   22.63    0.18   0
  -2   6  -2    7.04    0.16   0
  -2   6  -2    6.90    0.18   0
   2  -6   2    6.62    0.18   0
   2  -6   2    7.15    0.15   0
   3  -6   2    2.53    0.16   0
  -3   6  -2    2.58    0.14   0
  -3   6  -2    2.85    0.16   0
   3  -6   2    2.72    0.15   0
   4  -6   2   78.68    0.32   0
  -4   6  -2   76.60    0.29   0
  -4   6  -2   77.95    0.33   0
  -4   6  -2   76.19    0.31   0
   4  -6   2   73.19    0.29   0
  -5   6  -2   20.31    0.23   0
  -5   6  -2   19.99    0.20   0
   5  -6   2   19.56    0.18   0
   5  -6   2   20.50    0.20   0
  -5   6  -2   19.31    0.19   0
   6  -6   2    1.38    0.15   0
  -6   6  -2    1.24    0.17   0
  -6   6  -2    1.40    0.11   0
   6  -6   2    1.49    0.14   0
  -6   6  -2    1.36    0.15   0
  -7   6  -2    3.56    0.19   0
   7  -6   2    3.22    0.16   0
   7  -6   2    3.51    0.15   0
  -7   6  -2    3.19    0.14   0
  -7   6  -2    4.06    0.15   0
   8  -6   2    3.49    0.17   0
   8  -6   2    3.18    0.16   0
  -8   6  -2    3.20    0.17   0
  -8   6  -2    3.31    0.18   0
  -8   6  -2    3.36    0.16   0
   9  -6   2    1.79    0.18   0
   9  -6   2    1.67    0.16   0
  -9   6  -2    1.97    0.16   0
  -9   6  -2    1.97    0.21   0
  -9   6  -2    1.65    0.15   0
   8   5  -2    0.95    0.24   0
   8   5  -2    1.08    0.26   0
   8   5  -2    0.89    0.18   0
   7   5  -2    0.27    0.16   0
   7   5  -2    0.12    0.22   0
   7   5  -2    0.32    0.22   0
   6   5  -2    2.11    0.21   0
   6   5  -2    2.14    0.21   0
   6   5  -2    2.35    0.29   0
   6   5  -2    2.12    0.28   0
   5   5  -2    0.05    0.18   0
   5   5  -2    0.13    0.19   0
   5   5  -2    0.12    0.21   0
   5   5  -2    0.08    0.21   0
   4   5  -2    1.44    0.18   0
   4   5  -2    1.67    0.21   0
   4   5  -2    1.52    0.23   0
   4   5  -2    1.74    0.18   0
  -3  -5   2    7.25    0.18   0
   3   5  -2    6.23    0.26   0
   3   5  -2    6.37    0.19   0
   3   5  -2    6.75    0.24   0
  -2  -5   2    0.21    0.15   0
   2   5  -2    0.20    0.19   0
   2   5  -2    0.20    0.14   0
  -2  -5   2    0.06    0.18   0
  -1  -5   2   23.74    0.22   0
   1   5  -2   23.31    0.24   0
  -1  -5   2   24.30    0.28   0
   1   5  -2   22.62    0.29   0
   0  -5   2    0.27    0.17   0
   0  -5   2    0.19    0.14   0
   0   5  -2    0.24    0.14   0
   0   5  -2    0.22    0.18   0
  -1   5  -2    8.45    0.19   0
  -1   5  -2    8.60    0.17   0
   1  -5   2    8.23    0.15   0
   1  -5   2    8.50    0.19   0
  -2   5  -2  223.11    0.50   0
  -2   5  -2  225.01    0.54   0
   2  -5   2  228.06    0.52   0
   2  -5   2  216.76    0.54   0
  -3   5  -2   13.54    0.20   0
  -3   5  -2   14.17    0.20   0
  -3   5  -2   13.70    0.19   0
   3  -5   2   13.10    0.20   0
   3  -5   2   13.97    0.17   0
   4  -5   2    1.32    0.15   0
  -4   5  -2    1.24    0.12   0
  -4   5  -2    1.27    0.14   0
   4  -5   2    1.63    0.15   0
  -4   5  -2    1.46    0.16   0
   5  -5   2    8.22    0.17   0
  -5   5  -2    8.36    0.17   0
  -5   5  -2    8.61    0.17   0
  -5   5  -2    9.20    0.19   0
   5  -5   2    8.91    0.17   0
  -6   5  -2    0.14    0.13   0
  -6   5  -2    0.24    0.16   0
   6  -5   2    0.07    0.15   0
  -6   5  -2    0.16    0.14   0
   6  -5   2   -0.03    0.13   0
   7  -5   2   -0.13    0.15   0
  -7   5  -2   -0.04    0.16   0
   7  -5   2   -0.03    0.12   0
  -7   5  -2   -0.05    0.14   0
  -7   5  -2   -0.08    0.11   0
   8  -5   2    1.46    0.16   0
  -8   5  -2    1.30    0.18   0
  -8   5  -2    1.33    0.16   0
  -8   5  -2    1.13    0.14   0
   8  -5   2    1.10    0.15   0
   9  -5   2    3.17    0.17   0
  -9   5  -2    3.60    0.19   0
   9  -5   2    3.73    0.19   0
  -9   5  -2    3.76    0.22   0
  -9   5  -2    3.40    0.16   0
   9   4  -2    0.31    0.21   0
   8   4  -2    0.30    0.20   0
   8   4  -2    0.46    0.19   0
   8   4  -2    0.31    0.18   0
   7   4  -2    1.18    0.19   0
   7   4  -2    1.44    0.17   0
   7   4  -2    1.23    0.19   0
   6   4  -2    3.42    0.20   0
   6   4  -2    3.56    0.20   0
   6   4  -2    3.45    0.32   0
   6   4  -2    3.27    0.30   0
   5   4  -2    6.74    0.25   0
   5   4  -2    6.80    0.22   0
   5   4  -2    6.81    0.22   0
   5   4  -2    6.18    0.25   0
   4   4  -2    0.84    0.18   0
   4   4  -2    0.87    0.18   0
   4   4  -2    0.86    0.20   0
   4   4  -2    0.87    0.19   0
   3   4  -2   40.53    0.37   0
   3   4  -2   41.26    0.37   0
   3   4  -2   39.19    0.31   0
   2   4  -2    8.86    0.25   0
   2   4  -2    9.06    0.18   0
  -2  -4   2    9.67    0.20   0
   1   4  -2   35.73    0.34   0
  -1  -4   2   38.37    0.35   0
   1   4  -2   38.07    0.28   0
  -1  -4   2   38.55    0.28   0
   0   4  -2   49.51    0.30   0
   0  -4   2   49.00    0.34   0
   0  -4   2   50.41    0.30   0
   0   4  -2   47.19    0.34   0
  -1   4  -2   68.20    0.36   0
   1  -4   2   73.81    0.33   0
   1  -4   2   69.54    0.36   0
  -1   4  -2   72.11    0.34   0
  -2   4  -2  201.41    0.51   0
  -2   4  -2  200.32    0.52   0
   2  -4   2  208.81    0.53   0
   2  -4   2  195.89    0.51   0
  -3   4  -2    3.92    0.16   0
   3  -4   2    3.85    0.17   0
  -3   4  -2    4.20    0.15   0
  -3   4  -2    4.19    0.16   0
   3  -4   2    3.93    0.16   0
   4  -4   2    6.36    0.16   0
   4  -4   2    6.35    0.17   0
  -4   4  -2    6.74    0.17   0
  -4   4  -2    6.12    0.16   0
  -4   4  -2    6.19    0.16   0
  -5   4  -2    9.40    0.17   0
   5  -4   2    9.91    0.19   0
  -5   4  -2   10.23    0.20   0
  -5   4  -2    9.70    0.17   0
   5  -4   2    9.56    0.18   0
  -6   4  -2    4.57    0.16   0
   6  -4   2    4.36    0.14   0
  -6   4  -2    4.73    0.19   0
   6  -4   2    4.32    0.16   0
  -6   4  -2    4.21    0.18   0
  -7   4  -2    0.38    0.16   0
   7  -4   2    0.73    0.16   0
   7  -4   2    0.63    0.15   0
  -7   4  -2    0.48    0.11   0
  -7   4  -2    0.50    0.17   0
  -8   4  -2    0.74    0.11   0
  -8   4  -2    0.85    0.18   0
   8  -4   2    0.92    0.14   0
  -8   4  -2    0.79    0.18   0
   8  -4   2    0.86    0.18   0
   9  -4   2    0.23    0.15   0
  -9   4  -2    0.26    0.14   0
   9  -4   2    0.10    0.16   0
  -9   4  -2   -0.02    0.19   0
   9   3  -2    0.94    0.19   0
   9   3  -2    1.24    0.21   0
   8   3  -2    1.78    0.18   0
   8   3  -2    1.90    0.19   0
  -7  -3   2    4.39    0.21   0
   7   3  -2    4.30    0.19   0
   7   3  -2    4.15    0.21   0
   6   3  -2    0.04    0.26   0
   6   3  -2    0.23    0.18   0
  -6  -3   2    0.00    0.19   0
   6   3  -2    0.11    0.26   0
   6   3  -2    0.07    0.17   0
   5   3  -2    0.31    0.22   0
   5   3  -2    0.38    0.22   0
   5   3  -2    0.43    0.16   0
   4   3  -2   31.72    0.30   0
   4   3  -2   30.95    0.33   0
   4   3  -2   30.43    0.33   0
   4   3  -2   31.23    0.31   0
   3   3  -2    8.91    0.23   0
   3   3  -2    8.85    0.23   0
   3   3  -2    8.48    0.23   0
   3   3  -2    8.47    0.23   0
   2   3  -2   20.18    0.29   0
  -2  -3   2   21.27    0.24   0
   2   3  -2   19.78    0.31   0
   2   3  -2   19.22    0.24   0
  -1  -3   2   27.71    0.27   0
   1   3  -2   25.86    0.34   0
   1   3  -2   26.45    0.27   0
  -1  -3   2   27.85    0.32   0
   0   3  -2   16.05    0.24   0
   0   3  -2   15.44    0.28   0
   0  -3   2   16.14    0.30   0
   0  -3   2   16.37    0.24   0
  -1   3  -2    4.34    0.21   0
  -1   3  -2    4.28    0.19   0
   1  -3   2    4.28    0.19   0
   1  -3   2    3.90    0.21   0
  -2   3  -2    0.29    0.17   0
  -2   3  -2    0.39    0.15   0
  -2   3  -2    0.35    0.15   0
   2  -3   2    0.35    0.15   0
   2  -3   2    0.35    0.17   0
   3  -3   2    4.57    0.16   0
  -3   3  -2    4.34    0.16   0
  -3   3  -2    4.49    0.17   0
  -3   3  -2    4.50    0.16   0
   3  -3   2    4.23    0.17   0
   4  -3   2   23.35    0.24   0
   4  -3   2   22.97    0.24   0
   4  -3   2   22.32    0.22   0
  -4   3  -2   23.68    0.24   0
  -4   3  -2   21.80    0.23   0
  -4   3  -2   22.68    0.22   0
  -5   3  -2    2.50    0.15   0
  -5   3  -2    2.65    0.16   0
   5  -3   2    2.54    0.16   0
  -5   3  -2    2.64    0.15   0
   5  -3   2    2.63    0.15   0
   5  -3   2    2.60    0.15   0
   6  -3   2    0.73    0.16   0
  -6   3  -2    0.74    0.16   0
  -6   3  -2    0.68    0.14   0
  -6   3  -2    0.71    0.17   0
   6  -3   2    0.80    0.15   0
   6  -3   2    0.83    0.14   0
   7  -3   2   16.37    0.20   0
  -7   3  -2   17.22    0.26   0
  -7   3  -2   17.08    0.19   0
  -7   3  -2   17.93    0.24   0
   7  -3   2   17.23    0.23   0
   7  -3   2   17.29    0.26   0
   8  -3   2   -0.13    0.15   0
   8  -3   2    0.05    0.15   0
   8  -3   2    0.07    0.17   0
  -8   3  -2    0.18    0.15   0
  -8   3  -2    0.16    0.20   0
  -9   3  -2    0.29    0.22   0
   9  -3   2    0.22    0.22   0
   9  -3   2    0.04    0.16   0
  -9   3  -2    0.26    0.14   0
   9   2  -2    2.68    0.22   0
  -9  -2   2    2.62    0.19   0
   9   2  -2    2.64    0.19   0
   8   2  -2    2.45    0.18   0
   8   2  -2    2.71    0.19   0
  -8  -2   2    2.68    0.18   0
   7   2  -2    0.69    0.16   0
   7   2  -2    0.45    0.28   0
  -7  -2   2    0.35    0.16   0
   7   2  -2    0.33    0.27   0
   7   2  -2    0.45    0.17   0
   6   2  -2    1.58    0.19   0
   6   2  -2    1.47    0.21   0
   6   2  -2    1.58    0.22   0
   6   2  -2    1.71    0.18   0
  -6  -2   2    1.59    0.17   0
   5   2  -2    0.26    0.22   0
  -5  -2   2    0.28    0.16   0
   5   2  -2    0.28    0.16   0
   5   2  -2    0.30    0.20   0
   4   2  -2   48.52    0.32   0
   4   2  -2   50.31    0.39   0
   4   2  -2   49.05    0.40   0
  -4  -2   2   51.61    0.34   0
   3   2  -2   29.77    0.33   0
  -3  -2   2   31.30    0.31   0
   3   2  -2   30.32    0.29   0
   3   2  -2   30.33    0.32   0
   2   2  -2   91.58    0.50   0
   2   2  -2   92.32    0.51   0
   2   2  -2   95.12    0.52   0
   2   2  -2   93.02    0.50   0
  -1  -2   2    4.68    0.21   0
  -1  -2   2    4.42    0.26   0
   1   2  -2    4.87    0.24   0
   1   2  -2    4.48    0.23   0
   0  -2   2   25.16    0.30   0
   0   2  -2   24.63    0.27   0
   0  -2   2   23.81    0.33   0
   0   2  -2   23.80    0.33   0
   1  -2   2  195.00    0.65   0
  -1   2  -2  187.94    0.65   0
   1  -2   2  184.46    0.64   0
  -1   2  -2  183.15    0.63   0
  -1   2  -2  176.58    0.63   0
   2  -2   2    5.63    0.22   0
  -2   2  -2    5.54    0.18   0
   2  -2   2    5.46    0.21   0
  -2   2  -2    5.69    0.19   0
   2  -2   2    5.04    0.21   0
  -2   2  -2    5.29    0.19   0
  -3   2  -2    4.90    0.17   0
   3  -2   2    4.99    0.17   0
  -3   2  -2    5.20    0.17   0
   3  -2   2    5.15    0.18   0
  -3   2  -2    6.04    0.17   0
   3  -2   2    4.79    0.18   0
   4  -2   2   14.24    0.20   0
  -4   2  -2   13.44    0.23   0
   4  -2   2   13.08    0.20   0
  -4   2  -2   14.38    0.20   0
  -4   2  -2   13.34    0.19   0
   4  -2   2   13.80    0.22   0
  -5   2  -2   13.58    0.19   0
   5  -2   2   13.85    0.24   0
  -5   2  -2   13.66    0.24   0
   5  -2   2   13.49    0.20   0
   5  -2   2   14.51    0.21   0
  -5   2  -2   14.41    0.20   0
  -6   2  -2    0.05    0.13   0
  -6   2  -2    0.01    0.18   0
   6  -2   2    0.05    0.16   0
   6  -2   2    0.15    0.17   0
   6  -2   2    0.00    0.15   0
  -6   2  -2    0.18    0.16   0
   7  -2   2    7.92    0.20   0
  -7   2  -2    7.84    0.16   0
   7  -2   2    7.74    0.23   0
  -7   2  -2    7.65    0.24   0
   7  -2   2    7.15    0.17   0
   8  -2   2    1.51    0.19   0
  -8   2  -2    1.40    0.14   0
   8  -2   2    1.65    0.23   0
   8  -2   2    1.33    0.15   0
  -8   2  -2    1.52    0.24   0
  -9   2  -2    2.70    0.15   0
   9  -2   2    2.67    0.17   0
   9  -2   2    2.61    0.20   0
   9   1  -2    0.38    0.21   0
   9   1  -2    0.28    0.15   0
  -9  -1   2    0.41    0.15   0
   8   1  -2    0.07    0.27   0
   8   1  -2    0.12    0.27   0
   8   1  -2    0.11    0.18   0
  -8  -1   2    0.07    0.13   0
   8   1  -2    0.12    0.14   0
  -7  -1   2    1.95    0.16   0
   7   1  -2    2.12    0.20   0
   7   1  -2    1.84    0.24   0
   7   1  -2    1.87    0.15   0
   6   1  -2   17.64    0.21   0
   6   1  -2   16.90    0.28   0
  -6  -1   2   17.71    0.21   0
  -6  -1   2   17.13    0.28   0
   6   1  -2   19.18    0.28   0
  -5  -1   2   12.34    0.26   0
   5   1  -2   13.17    0.26   0
   5   1  -2   12.41    0.25   0
  -5  -1   2   12.72    0.20   0
   5   1  -2   12.54    0.20   0
   4   1  -2    0.71    0.18   0
  -4  -1   2    0.72    0.16   0
  -4  -1   2    0.78    0.16   0
   4   1  -2    0.70    0.14   0
   3   1  -2    0.47    0.18   0
   3   1  -2    0.38    0.16   0
  -3  -1   2    0.39    0.17   0
  -3  -1   2    0.73    0.17   0
   2   1  -2   30.61    0.34   0
   2   1  -2   30.79    0.32   0
  -2  -1   2   31.26    0.33   0
  -2  -1   2   29.52    0.35   0
   1   1  -2   72.97    0.50   0
  -1  -1   2   74.33    0.50   0
   1   1  -2   73.65    0.50   0
   0   1  -2  346.17    1.05   0
   0   1  -2  305.77    0.99   0
   0  -1   2  351.75    1.05   0
   0   1  -2  363.40    1.05   0
   0  -1   2  368.24    1.06   0
   0  -1   2  308.74    1.00   0
  -1   1  -2  158.70    0.66   0
   1  -1   2  163.06    0.67   0
  -1   1  -2  171.79    0.73   0
   1  -1   2  180.18    0.75   0
   1  -1   2  163.16    0.66   0
  -1   1  -2  157.49    0.65   0
   2  -1   2   10.33    0.25   0
  -2   1  -2   10.37    0.24   0
  -2   1  -2   10.52    0.27   0
  -2   1  -2   11.16    0.23   0
   2  -1   2   10.92    0.23   0
   2  -1   2   11.36    0.27   0
  -3   1  -2  203.85    0.77   0
   3  -1   2  204.53    0.59   0
   3  -1   2  215.10    0.62   0
   3  -1   2  995.88    1.65   0
  -3   1  -2  212.65    0.61   0
  -3   1  -2  200.24    0.58   0
  -4   1  -2    0.67    0.16   0
  -4   1  -2    0.64    0.15   0
   4  -1   2    0.99    0.20   0
  -4   1  -2    0.68    0.20   0
   4  -1   2    0.82    0.15   0
   4  -1   2    0.86    0.15   0
   5  -1   2   18.47    0.22   0
  -5   1  -2   19.69    0.33   0
  -5   1  -2   19.11    0.22   0
   5  -1   2   20.22    0.22   0
  -5   1  -2   20.48    0.22   0
   5  -1   2   19.90    0.31   0
  -6   1  -2    0.94    0.22   0
   6  -1   2    0.75    0.15   0
  -6   1  -2    0.84    0.14   0
   6  -1   2    1.07    0.17   0
   6  -1   2    0.88    0.22   0
   7  -1   2    1.18    0.16   0
  -7   1  -2    1.37    0.16   0
   7  -1   2    1.24    0.15   0
  -7   1  -2    1.30    0.33   0
   8  -1   2    4.11    0.18   0
   8  -1   2    3.82    0.16   0
  -8   1  -2    3.94    0.16   0
  -9   1  -2    2.11    0.17   0
   9  -1   2    1.72    0.16   0
   9  -1   2    1.91    0.18   0
  10   0  -2   -0.05    0.16   0
 -10   0   2    0.24    0.15   0
   9   0  -2    1.56    0.16   0
  -9   0   2    2.03    0.16   0
   9   0  -2    1.80    0.25   0
   9   0  -2    1.75    0.27   0
  -8   0   2    0.09    0.13   0
   8   0  -2    0.24    0.17   0
   8   0  -2    0.18    0.18   0
  -8   0   2    0.09    0.20   0
   8   0  -2    0.14    0.21   0
   7   0  -2    2.70    0.21   0
   7   0  -2    2.78    0.16   0
  -7   0   2    2.73    0.15   0
   7   0  -2    2.82    0.24   0
  -7   0   2    2.60    0.19   0
   6   0  -2   29.06    0.30   0
  -6   0   2   29.70    0.30   0
   6   0  -2   30.34    0.26   0
   6   0  -2   30.99    0.37   0
  -6   0   2   29.89    0.23   0
  -5   0   2   11.64    0.22   0
   5   0  -2   11.48    0.22   0
   5   0  -2   12.47    0.30   0
  -5   0   2   12.30    0.19   0
   5   0  -2   11.96    0.19   0
  -4   0   2    4.19    0.16   0
  -4   0   2    3.90    0.18   0
   4   0  -2    3.80    0.18   0
   4   0  -2    3.94    0.16   0
   4   0  -2    4.20    0.27   0
   3   0  -2    9.33    0.40   0
  -3   0   2    9.27    0.20   0
  -3   0   2    9.20    0.23   0
   3   0  -2    9.00    0.20   0
   3   0  -2    9.07    0.24   0
  -2   0   2 4485.31    3.08   0
  -2   0   2 3359.62    2.97   0
   2   0  -2 3179.78    2.87   0
   2   0  -2 4306.93    3.01   0
  -1   0   2   79.77    0.52   0
   1   0  -2   78.06    0.72   0
   1   0  -2   81.03    0.54   0
  -1   0   2   75.28    0.70   0
   1   0  -2   80.27    0.52   0
  -1   0   2   82.08    0.53   0
   0   0   2   23.97    0.36   0
   0   0  -2   24.12    0.36   0
   0   0   2   23.82    0.37   0
   0   0   2   23.01    0.36   0
   0   0  -2   23.13    0.34   0
   0   0  -2   23.42    0.36   0
   1   0   2  188.96    0.80   0
  -1   0  -2  192.91    0.93   0
  -1   0  -2  172.59    0.67   0
  -1   0  -2  177.99    0.79   0
   1   0   2  181.75    0.70   0
  -2   0  -2   91.52    0.51   0
  -2   0  -2   98.74    0.74   0
   2   0   2  103.56    0.48   0
   2   0   2   93.08    0.52   0
  -2   0  -2   97.28    0.45   0
  -2   0  -2   96.27    0.72   0
  -3   0  -2   25.07    0.44   0
  -3   0  -2   25.22    0.28   0
  -3   0  -2   26.77    0.24   0
   3   0   2   28.40    0.26   0
   3   0   2   24.64    0.28   0
   4   0   2    0.63    0.17   0
   4   0   2    0.73    0.17   0
  -4   0  -2    0.69    0.31   0
  -4   0  -2    0.60    0.16   0
  -5   0  -2   10.18    0.20   0
   5   0   2   10.01    0.21   0
   5   0   2   10.98    0.19   0
   6   0   2   18.64    0.24   0
   6   0   2   19.22    0.22   0
  -6   0  -2   19.16    0.21   0
   7   0   2    0.02    0.17   0
  -7   0  -2    0.24    0.15   0
   7   0   2    0.27    0.16   0
  -8   0  -2    0.26    0.16   0
   8   0   2    0.13    0.15   0
   8   0   2    0.13    0.17   0
   9   0   2    0.88    0.18   0
   9   0   2    0.95    0.18   0
  -9   0  -2    0.99    0.17   0
  10  -1  -2    0.19    0.26   0
  10  -1  -2    0.28    0.16   0
 -10   1   2    0.18    0.15   0
  -9   1   2    1.57    0.15   0
   9  -1  -2    1.37    0.15   0
  -9   1   2    1.64    0.20   0
   9  -1  -2    1.54    0.20   0
   8  -1  -2    1.14    0.15   0
   8  -1  -2    1.06    0.18   0
  -8   1   2    1.12    0.17   0
  -8   1   2    1.22    0.14   0
   7  -1  -2    5.37    0.20   0
  -7   1   2    5.26    0.17   0
  -7   1   2    5.89    0.15   0
   7  -1  -2    5.39    0.29   0
   7  -1  -2    5.63    0.16   0
   6  -1  -2    1.44    0.20   0
   6  -1  -2    1.50    0.16   0
   6  -1  -2    1.51    0.26   0
  -6   1   2    1.70    0.19   0
  -6   1   2    1.56    0.14   0
   5  -1  -2    8.67    0.18   0
  -5   1   2    8.43    0.19   0
   5  -1  -2    8.42    0.35   0
   5  -1  -2    8.18    0.19   0
  -5   1   2    8.58    0.17   0
  -4   1   2    2.43    0.16   0
  -4   1   2    2.20    0.16   0
   4  -1  -2    2.44    0.17   0
   4  -1  -2    2.16    0.18   0
   3  -1  -2  104.50    0.46   0
   3  -1  -2  107.10    0.43   0
  -3   1   2  107.71    0.47   0
  -3   1   2  108.07    0.43   0
  -2   1   2 7798.77    4.06   0
   2  -1  -2 9019.04    4.34   0
  -2   1   2 9999.99    4.34   0
   2  -1  -2 9642.81    4.30   0
   1  -1  -2   51.08    0.41   0
  -1   1   2   49.28    0.41   0
  -1   1   2   51.83    0.51   0
  -1   1   2   53.33    0.41   0
   1  -1  -2   51.20    0.42   0
   0  -1  -2   16.29    0.34   0
   0  -1  -2   15.91    0.33   0
   0  -1  -2   16.97    0.30   0
   0   1   2   16.65    0.30   0
   0   1   2   16.72    0.30   0
  -1  -1  -2   59.22    0.56   0
   1   1   2   59.88    0.56   0
   1   1   2   58.21    0.57   0
   1   1   2   60.14    0.40   0
  -1  -1  -2   54.33    0.57   0
   2   1   2    2.59    0.26   0
  -2  -1  -2    2.71    0.31   0
   2   1   2    2.64    0.17   0
  -2  -1  -2    2.71    0.25   0
   3   1   2   31.56    0.34   0
   3   1   2   36.54    0.27   0
  -3  -1  -2   33.38    0.33   0
   4   1   2   18.63    0.25   0
   4   1   2   21.09    0.22   0
  -4  -1  -2   20.08    0.25   0
   5   1   2    0.38    0.18   0
   5   1   2    0.37    0.14   0
  -5  -1  -2    0.28    0.16   0
   6   1   2    0.22    0.18   0
  -6  -1  -2    0.30    0.17   0
   6   1   2    0.20    0.14   0
   7   1   2    4.30    0.19   0
   7   1   2    3.92    0.21   0
  -7  -1  -2    4.40    0.20   0
  -8  -1  -2    1.02    0.18   0
   8   1   2    0.82    0.18   0
   8   1   2    0.90    0.15   0
   9   1   2    4.38    0.21   0
   9   1   2    3.84    0.23   0
  -9  -1  -2    4.31    0.22   0
 -10   2   2    0.77    0.21   0
  10  -2  -2    0.81    0.21   0
 -10   2   2    0.68    0.15   0
  10  -2  -2    0.46    0.16   0
  -9   2   2    1.09    0.14   0
   9  -2  -2    0.85    0.18   0
  -9   2   2    0.79    0.18   0
   9  -2  -2    0.53    0.16   0
   8  -2  -2    3.75    0.18   0
  -8   2   2    3.98    0.15   0
   8  -2  -2    3.74    0.16   0
  -8   2   2    3.77    0.18   0
   7  -2  -2   27.86    0.26   0
   7  -2  -2   28.64    0.23   0
  -7   2   2   28.18    0.22   0
  -7   2   2   28.66    0.26   0
  -6   2   2    2.49    0.14   0
  -6   2   2    2.40    0.17   0
   6  -2  -2    2.46    0.16   0
   6  -2  -2    2.45    0.17   0
   5  -2  -2   21.34    0.22   0
   5  -2  -2   22.48    0.21   0
  -5   2   2   22.86    0.21   0
  -5   2   2   21.98    0.22   0
   4  -2  -2   72.49    0.36   0
  -4   2   2   74.36    0.92   0
  -4   2   2   73.76    0.35   0
  -4   2   2   75.32    0.32   0
   4  -2  -2   73.81    0.32   0
  -3   2   2   16.63    0.23   0
   3  -2  -2   16.49    0.23   0
  -3   2   2   17.06    0.20   0
   3  -2  -2   16.48    0.23   0
   2  -2  -2  187.05    0.59   0
  -2   2   2  180.08    0.57   0
  -2   2   2  186.77    0.59   0
   2  -2  -2  179.80    0.58   0
  -1   2   2   42.70    0.34   0
   1  -2  -2   43.68    0.34   0
  -1   2   2   43.50    0.37   0
   1  -2  -2   44.73    0.37   0
   0  -2  -2    3.72    0.21   0
   0   2   2    3.93    0.21   0
   0  -2  -2    3.95    0.25   0
   0   2   2    3.89    0.28   0
  -1  -2  -2    2.37    0.37   0
  -1  -2  -2    2.34    0.21   0
   1   2   2    2.59    0.24   0
  -1  -2  -2    2.74    0.34   0
   2   2   2   40.00    0.50   0
   2   2   2   38.72    0.27   0
  -2  -2  -2   37.32    0.52   0
  -2  -2  -2   36.26    0.47   0
   2   2   2   38.12    0.53   0
  -3  -2  -2    0.88    0.21   0
   3   2   2    0.93    0.15   0
   3   2   2    0.76    0.23   0
   4   2   2    0.01    0.14   0
   4   2   2    0.11    0.22   0
  -4  -2  -2    0.08    0.20   0
  -5  -2  -2    0.10    0.18   0
   5   2   2    0.15    0.14   0
   5   2   2    0.10    0.20   0
   6   2   2   11.04    0.25   0
   6   2   2   12.25    0.21   0
  -6  -2  -2   12.08    0.24   0
   7   2   2   17.40    0.27   0
   7   2   2   19.08    0.22   0
  -7  -2  -2   18.63    0.27   0
   8   2   2    0.90    0.20   0
   8   2   2    1.03    0.18   0
  -8  -2  -2    1.09    0.19   0
 -10   3   2    0.45    0.19   0
  10  -3  -2    0.28    0.19   0
 -10   3   2    0.48    0.15   0
  10  -3  -2    0.39    0.15   0
  -9   3   2    0.13    0.16   0
   9  -3  -2    0.13    0.18   0
   9  -3  -2    0.29    0.15   0
  -9   3   2    0.19    0.14   0
  -8   3   2    2.70    0.17   0
   8  -3  -2    2.52    0.15   0
   8  -3  -2    2.64    0.17   0
  -8   3   2    2.52    0.14   0
  -7   3   2   10.26    0.17   0
   7  -3  -2    9.57    0.20   0
   7  -3  -2    9.66    0.18   0
  -7   3   2   10.23    0.19   0
  -6   3   2    9.67    0.19   0
   6  -3  -2    9.28    0.15   0
   6  -3  -2    9.26    0.19   0
  -6   3   2    9.66    0.16   0
   5  -3  -2    6.48    0.17   0
  -5   3   2    6.64    0.18   0
  -5   3   2    6.72    0.33   0
   5  -3  -2    6.96    0.17   0
  -5   3   2    7.28    0.16   0
  -4   3   2    4.54    0.24   0
   4  -3  -2    4.50    0.17   0
  -4   3   2    4.78    0.16   0
   4  -3  -2    4.65    0.14   0
  -4   3   2    4.50    0.16   0
   3  -3  -2   61.17    0.30   0
  -3   3   2   65.08    0.32   0
   3  -3  -2   64.10    0.32   0
  -3   3   2   60.09    0.29   0
  -2   3   2   57.01    0.32   0
  -2   3   2   60.89    0.34   0
   2  -3  -2   57.20    0.31   0
   2  -3  -2   60.26    0.34   0
   1  -3  -2   13.74    0.24   0
   1  -3  -2   12.66    0.21   0
  -1   3   2   12.72    0.21   0
  -1   3   2   13.51    0.23   0
   0   3   2   83.14    0.56   0
   0  -3  -2   84.46    0.57   0
   0  -3  -2   77.95    0.40   0
   0   3   2   80.44    0.41   0
  -1  -3  -2   27.83    0.64   0
  -1  -3  -2   28.22    0.59   0
  -1  -3  -2   27.24    0.30   0
   1   3   2   29.09    0.31   0
  -2  -3  -2   12.45    0.27   0
   2   3   2   13.10    0.28   0
  -3  -3  -2    0.11    0.29   0
   3   3   2    0.16    0.29   0
   3   3   2   -0.09    0.14   0
   4   3   2   22.25    0.43   0
  -4  -3  -2   25.39    0.45   0
   4   3   2   23.84    0.21   0
  -5  -3  -2   37.47    0.44   0
   5   3   2   32.78    0.42   0
   5   3   2   35.98    0.24   0
   6   3   2    0.16    0.22   0
  -6  -3  -2    0.23    0.23   0
   6   3   2    0.09    0.14   0
   7   3   2    0.25    0.14   0
   7   3   2    0.10    0.22   0
  -7  -3  -2   -0.03    0.21   0
  -8  -3  -2    0.15    0.22   0
   8   3   2    0.25    0.18   0
   8   3   2    0.21    0.23   0
  10  -4  -2    0.36    0.17   0
 -10   4   2    0.40    0.19   0
  10  -4  -2    0.18    0.16   0
 -10   4   2    0.08    0.15   0
  -9   4   2    0.62    0.14   0
   9  -4  -2    0.56    0.16   0
   9  -4  -2    0.66    0.12   0
  -9   4   2    0.47    0.16   0
   8  -4  -2    0.47    0.15   0
   8  -4  -2    0.42    0.16   0
  -8   4   2    0.42    0.13   0
  -8   4   2    0.58    0.14   0
   7  -4  -2    2.54    0.15   0
  -7   4   2    2.79    0.16   0
   7  -4  -2    2.53    0.14   0
  -7   4   2    2.56    0.14   0
   6  -4  -2    0.78    0.14   0
  -6   4   2    0.81    0.13   0
  -6   4   2    0.75    0.24   0
  -6   4   2    0.73    0.14   0
   6  -4  -2    0.66    0.15   0
   5  -4  -2    2.31    0.15   0
   5  -4  -2    2.58    0.15   0
  -5   4   2    2.30    0.22   0
  -5   4   2    2.51    0.14   0
  -5   4   2    2.53    0.13   0
  -4   4   2    4.41    0.13   0
   4  -4  -2    4.68    0.16   0
  -4   4   2    4.62    0.13   0
   4  -4  -2    4.62    0.14   0
   3  -4  -2   71.89    0.34   0
  -3   4   2   71.44    0.31   0
   3  -4  -2   70.97    0.32   0
  -3   4   2   73.66    0.34   0
  -2   4   2    1.50    0.14   0
   2  -4  -2    1.39    0.16   0
   2  -4  -2    1.48    0.12   0
  -2   4   2    1.65    0.15   0
   1  -4  -2    0.86    0.15   0
  -1   4   2    1.24    0.17   0
  -1   4   2    1.00    0.15   0
   1  -4  -2    1.02    0.17   0
   0  -4  -2    0.09    0.14   0
   0   4   2    0.39    0.16   0
   0   4   2    0.04    0.19   0
   0  -4  -2    0.11    0.20   0
  -1  -4  -2    0.59    0.14   0
  -1  -4  -2    0.69    0.32   0
  -1  -4  -2    0.60    0.35   0
   1   4   2    0.76    0.17   0
  -2  -4  -2   -0.00    0.18   0
   2   4   2   -0.04    0.18   0
   3   4   2   33.07    0.42   0
  -3  -4  -2   30.78    0.40   0
   4   4   2    9.65    0.18   0
   5   4   2   29.08    0.23   0
   6   4   2    0.41    0.14   0
   7   4   2    4.03    0.16   0
   8   4   2    2.15    0.17   0
 -10   5   2    2.37    0.19   0
  10  -5  -2    2.29    0.16   0
 -10   5   2    2.80    0.16   0
  10  -5  -2    2.69    0.17   0
   9  -5  -2    2.87    0.17   0
  -9   5   2    2.67    0.15   0
  -9   5   2    2.91    0.18   0
   9  -5  -2    3.26    0.16   0
   8  -5  -2    0.38    0.14   0
  -8   5   2    0.29    0.15   0
   8  -5  -2    0.34    0.12   0
  -8   5   2    0.38    0.13   0
  -7   5   2    3.41    0.14   0
   7  -5  -2    3.25    0.15   0
   7  -5  -2    3.58    0.15   0
  -7   5   2    3.55    0.14   0
  -7   5   2    3.74    0.27   0
   6  -5  -2    4.17    0.16   0
  -6   5   2    3.83    0.15   0
  -6   5   2    4.04    0.23   0
  -6   5   2    3.97    0.12   0
   6  -5  -2    3.90    0.15   0
   5  -5  -2    0.60    0.15   0
  -5   5   2    0.50    0.18   0
  -5   5   2    0.40    0.11   0
  -5   5   2    0.27    0.13   0
   5  -5  -2    0.44    0.14   0
  -4   5   2    9.95    0.17   0
   4  -5  -2   10.12    0.15   0
   4  -5  -2   10.75    0.18   0
  -4   5   2   10.60    0.15   0
  -3   5   2   15.68    0.18   0
   3  -5  -2   15.70    0.19   0
  -3   5   2   15.92    0.20   0
   3  -5  -2   15.98    0.20   0
   2  -5  -2    1.66    0.14   0
  -2   5   2    1.85    0.14   0
  -2   5   2    1.62    0.15   0
   2  -5  -2    1.71    0.17   0
  -1   5   2    3.87    0.17   0
   1  -5  -2    3.54    0.18   0
  -1   5   2    3.73    0.16   0
   1  -5  -2    3.55    0.16   0
   0  -5  -2   50.31    0.40   0
   0  -5  -2   51.10    0.30   0
   0   5   2   55.55    0.41   0
   0   5   2   52.21    0.30   0
  -1  -5  -2   27.12    0.55   0
   1   5   2   29.33    0.26   0
  -1  -5  -2   27.77    0.23   0
   2   5   2   10.26    0.21   0
  -2  -5  -2    9.86    0.21   0
  -3  -5  -2    2.09    0.21   0
   3   5   2    2.17    0.22   0
   4   5   2   10.00    0.17   0
   4   5   2    9.87    0.41   0
   5   5   2    0.08    0.13   0
   6   5   2    0.22    0.14   0
   7   5   2    1.80    0.18   0
   9  -6  -2    0.09    0.15   0
  -9   6   2    0.20    0.17   0
  -9   6   2   -0.05    0.14   0
   9  -6  -2    0.13    0.16   0
   8  -6  -2    0.24    0.12   0
  -8   6   2    0.26    0.29   0
  -8   6   2    0.24    0.13   0
   8  -6  -2    0.31    0.16   0
  -8   6   2    0.31    0.13   0
  -7   6   2    0.16    0.13   0
  -7   6   2    0.14    0.19   0
   7  -6  -2    0.24    0.13   0
  -7   6   2    0.17    0.13   0
   7  -6  -2    0.50    0.14   0
   6  -6  -2   41.27    0.25   0
  -6   6   2   41.92    0.24   0
   6  -6  -2   39.52    0.23   0
  -6   6   2   39.78    0.36   0
  -6   6   2   41.07    0.25   0
  -5   6   2    4.80    0.15   0
   5  -6  -2    4.86    0.14   0
  -5   6   2    4.91    0.16   0
   5  -6  -2    5.24    0.17   0
  -4   6   2    2.28    0.14   0
   4  -6  -2    2.06    0.15   0
   4  -6  -2    2.09    0.12   0
  -4   6   2    2.24    0.14   0
   3  -6  -2    1.64    0.13   0
  -3   6   2    1.62    0.13   0
   3  -6  -2    1.42    0.16   0
  -3   6   2    1.61    0.15   0
  -2   6   2    0.12    0.14   0
   2  -6  -2    0.27    0.14   0
  -2   6   2    0.17    0.16   0
   2  -6  -2    0.17    0.15   0
  -1   6   2   -0.04    0.14   0
   1  -6  -2    0.13    0.14   0
   1  -6  -2    0.03    0.16   0
  -1   6   2    0.04    0.15   0
   0   6   2    0.28    0.15   0
   0  -6  -2    0.27    0.20   0
   0   6   2    0.32    0.20   0
   0  -6  -2    0.17    0.14   0
   1   6   2    3.64    0.16   0
  -1  -6  -2    3.43    0.35   0
  -1  -6  -2    3.36    0.15   0
   2   6   2   -0.04    0.16   0
  -2  -6  -2    0.10    0.16   0
  -3  -6  -2    5.23    0.20   0
   3   6   2    5.41    0.21   0
  -4  -6  -2   11.81    0.31   0
   4   6   2   11.78    0.31   0
   5   6   2    4.48    0.15   0
   6   6   2    0.11    0.15   0
   7   6   2    0.21    0.16   0
   9  -7  -2    2.60    0.16   0
  -9   7   2    2.55    0.18   0
  -9   7   2    2.58    0.12   0
   9  -7  -2    2.65    0.16   0
  -8   7   2    2.80    0.17   0
   8  -7  -2    2.85    0.13   0
  -8   7   2    2.77    0.14   0
  -8   7   2    2.74    0.26   0
   8  -7  -2    2.79    0.16   0
  -7   7   2    0.64    0.11   0
   7  -7  -2    0.56    0.12   0
   7  -7  -2    0.63    0.13   0
  -7   7   2    0.51    0.13   0
  -7   7   2    0.54    0.19   0
   6  -7  -2    3.77    0.16   0
  -6   7   2    3.71    0.18   0
   6  -7  -2    4.14    0.15   0
  -6   7   2    3.88    0.14   0
  -6   7   2    3.64    0.14   0
   5  -7  -2    0.32    0.15   0
  -5   7   2    0.25    0.14   0
  -5   7   2    0.20    0.14   0
   5  -7  -2    0.46    0.13   0
   4  -7  -2   24.10    0.21   0
   4  -7  -2   23.65    0.22   0
  -4   7   2   25.00    0.20   0
  -4   7   2   22.99    0.18   0
  -3   7   2    1.23    0.11   0
   3  -7  -2    1.17    0.12   0
   3  -7  -2    1.32    0.16   0
  -3   7   2    1.35    0.15   0
   2  -7  -2    6.76    0.17   0
  -2   7   2    6.98    0.16   0
   2  -7  -2    6.55    0.16   0
  -2   7   2    7.02    0.16   0
  -1   7   2    2.85    0.17   0
   1  -7  -2    2.56    0.18   0
   1  -7  -2    2.56    0.15   0
  -1   7   2    2.59    0.14   0
   0   7   2    1.33    0.19   0
   0   7   2    1.09    0.14   0
   0  -7  -2    1.02    0.14   0
   0  -7  -2    1.18    0.22   0
  -1  -7  -2    4.59    0.35   0
  -1  -7  -2    4.70    0.17   0
   1   7   2    4.71    0.15   0
  -2  -7  -2    7.50    0.20   0
   2   7   2    7.77    0.19   0
   3   7   2   12.12    0.24   0
  -3  -7  -2   11.75    0.23   0
  -4  -7  -2    0.34    0.21   0
   4   7   2    0.23    0.22   0
   5   7   2    0.87    0.14   0
   6   7   2    0.77    0.15   0
  -9   8   2    0.77    0.15   0
   9  -8  -2    0.78    0.16   0
   9  -8  -2    0.97    0.16   0
  -9   8   2    0.78    0.15   0
  -9   8   2    0.78    0.33   0
   8  -8  -2    2.18    0.15   0
   8  -8  -2    1.86    0.15   0
  -8   8   2    2.33    0.15   0
  -8   8   2    2.07    0.15   0
  -8   8   2    2.14    0.22   0
   7  -8  -2    0.70    0.15   0
   7  -8  -2    1.09    0.14   0
  -7   8   2    0.75    0.13   0
  -7   8   2    0.89    0.13   0
  -7   8   2    0.69    0.18   0
  -6   8   2    0.19    0.11   0
   6  -8  -2    0.24    0.14   0
  -6   8   2    0.13    0.14   0
   6  -8  -2    0.30    0.15   0
  -5   8   2    5.84    0.13   0
   5  -8  -2    6.37    0.15   0
  -5   8   2    7.00    0.16   0
   5  -8  -2    6.27    0.16   0
   4  -8  -2    0.36    0.15   0
   4  -8  -2    0.60    0.13   0
  -4   8   2    0.69    0.13   0
  -4   8   2    0.46    0.14   0
  -3   8   2    2.62    0.12   0
   3  -8  -2    2.57    0.15   0
   3  -8  -2    2.83    0.14   0
  -3   8   2    2.67    0.15   0
   2  -8  -2    2.66    0.16   0
  -2   8   2    2.96    0.15   0
  -2   8   2    2.81    0.12   0
   2  -8  -2    2.66    0.15   0
  -1   8   2    2.48    0.17   0
   1  -8  -2    2.35    0.18   0
   1  -8  -2    2.07    0.14   0
  -1   8   2    2.36    0.12   0
   0   8   2    6.30    0.17   0
   0   8   2    6.43    0.22   0
   0  -8  -2    5.54    0.24   0
   0  -8  -2    5.66    0.17   0
  -1  -8  -2   -0.10    0.13   0
  -1  -8  -2    0.11    0.37   0
   1   8   2    0.09    0.14   0
  -2  -8  -2    2.26    0.16   0
   2   8   2    2.45    0.17   0
   3   8   2    3.01    0.18   0
  -3  -8  -2    2.91    0.18   0
  -4  -8  -2    0.34    0.20   0
   4   8   2    0.24    0.19   0
   5   8   2    0.07    0.14   0
  -8   9   2    0.63    0.20   0
   8  -9  -2    0.42    0.14   0
   8  -9  -2    0.85    0.15   0
  -8   9   2    0.53    0.15   0
  -8   9   2    1.12    0.14   0
   7  -9  -2    2.62    0.17   0
  -7   9   2    2.59    0.20   0
   7  -9  -2    2.47    0.15   0
  -7   9   2    2.94    0.15   0
  -7   9   2    2.80    0.15   0
  -6   9   2   -0.37    0.14   0
   6  -9  -2    0.17    0.14   0
  -6   9   2    0.38    0.13   0
   6  -9  -2    0.23    0.15   0
   5  -9  -2    0.94    0.14   0
   5  -9  -2    0.74    0.14   0
  -5   9   2    1.05    0.13   0
  -5   9   2    0.91    0.11   0
   4  -9  -2    0.71    0.14   0
  -4   9   2    0.80    0.14   0
  -4   9   2    0.61    0.11   0
   4  -9  -2    0.71    0.13   0
  -3   9   2    8.07    0.19   0
   3  -9  -2    6.97    0.16   0
  -3   9   2    7.08    0.16   0
   3  -9  -2    6.74    0.17   0
  -2   9   2    0.23    0.14   0
   2  -9  -2    0.06    0.16   0
  -2   9   2    0.04    0.11   0
   2  -9  -2    0.09    0.11   0
  -1   9   2    8.46    0.20   0
   1  -9  -2    7.40    0.21   0
  -1   9   2    7.93    0.17   0
   1  -9  -2    7.63    0.16   0
   0  -9  -2    8.17    0.26   0
   0   9   2    9.45    0.25   0
   0   9   2    8.71    0.17   0
   0  -9  -2    8.57    0.16   0
   1   9   2    8.49    0.17   0
  -1  -9  -2    8.31    0.16   0
  -2  -9  -2    0.02    0.15   0
   2   9   2    0.05    0.14   0
   3   9   2    0.89    0.18   0
  -3  -9  -2    0.79    0.18   0
   4   9   2   -0.09    0.21   0
  -4  -9  -2   -0.02    0.20   0
  -8  10   2    1.56    0.15   0
  -8  10   2    1.37    0.20   0
   8 -10  -2    1.39    0.17   0
   8 -10  -2    1.43    0.13   0
  -8  10   2    1.34    0.15   0
   7 -10  -2    2.87    0.17   0
  -7  10   2    3.14    0.16   0
  -7  10   2    3.05    0.18   0
   7 -10  -2    3.28    0.16   0
  -7  10   2    3.25    0.15   0
  -6  10   2    1.23    0.13   0
  -6  10   2    0.73    0.14   0
   6 -10  -2    0.81    0.15   0
   6 -10  -2    1.17    0.12   0
  -5  10   2    5.31    0.15   0
  -5  10   2    5.49    0.16   0
   5 -10  -2    5.03    0.15   0
   5 -10  -2    5.29    0.17   0
   4 -10  -2    0.61    0.14   0
   4 -10  -2    0.69    0.14   0
  -4  10   2    0.45    0.13   0
  -4  10   2    0.46    0.16   0
   3 -10  -2    3.14    0.16   0
  -3  10   2    3.21    0.15   0
   3 -10  -2    3.65    0.15   0
  -3  10   2    3.86    0.17   0
   2 -10  -2    0.55    0.14   0
  -2  10   2    0.74    0.14   0
  -2  10   2    0.85    0.17   0
   2 -10  -2    0.84    0.17   0
   1 -10  -2    2.55    0.21   0
  -1  10   2    2.78    0.20   0
   1 -10  -2    2.79    0.14   0
  -1  10   2    2.44    0.15   0
   0 -10  -2    0.21    0.13   0
   0  10   2    0.15    0.21   0
   0  10   2   -0.01    0.14   0
   0 -10  -2    0.02    0.20   0
   1  10   2   -0.08    0.13   0
  -1 -10  -2   -0.08    0.15   0
  -2 -10  -2    0.43    0.15   0
   2  10   2    0.50    0.16   0
   3  10   2    2.47    0.19   0
  -3 -10  -2    2.77    0.18   0
   7 -11  -2    0.31    0.15   0
   7 -11  -2    0.22    0.16   0
  -7  11   2    0.03    0.17   0
  -7  11   2    0.16    0.15   0
  -7  11   2    0.10    0.15   0
  -6  11   2    0.28    0.14   0
   6 -11  -2    0.42    0.15   0
  -6  11   2    0.02    0.14   0
   6 -11  -2    0.24    0.12   0
  -5  11   2    2.54    0.16   0
  -5  11   2    2.44    0.15   0
   5 -11  -2    2.54    0.15   0
   5 -11  -2    2.27    0.16   0
  -4  11   2    0.89    0.17   0
  -4  11   2    0.91    0.14   0
   4 -11  -2    0.82    0.12   0
   4 -11  -2    0.73    0.15   0
   3 -11  -2    2.29    0.15   0
  -3  11   2    2.03    0.12   0
  -3  11   2    2.13    0.15   0
   3 -11  -2    1.80    0.17   0
  -2  11   2    1.29    0.13   0
   2 -11  -2    1.28    0.18   0
   2 -11  -2    0.83    0.14   0
  -2  11   2    1.12    0.17   0
  -1  11   2    0.06    0.16   0
   1 -11  -2    0.17    0.13   0
  -1  11   2    0.01    0.14   0
   1 -11  -2    0.21    0.19   0
   0  11   2    2.51    0.26   0
   0  11   2    2.41    0.15   0
   0 -11  -2    2.24    0.24   0
   0 -11  -2    2.32    0.16   0
  -1 -11  -2    3.44    0.15   0
   1  11   2    3.36    0.16   0
   2  11   2    0.30    0.17   0
  -2 -11  -2    0.25    0.17   0
   5 -12  -2    0.24    0.15   0
  -5  12   2   -0.26    0.16   0
   5 -12  -2    0.00    0.14   0
  -5  12   2    0.03    0.14   0
   4 -12  -2    0.26    0.18   0
   4 -12  -2    0.05    0.14   0
  -4  12   2    0.11    0.15   0
  -4  12   2    0.08    0.12   0
  -3  12   2    0.75    0.14   0
   3 -12  -2    0.63    0.18   0
   3 -12  -2    0.51    0.14   0
  -3  12   2    0.65    0.15   0
   2 -12  -2    1.01    0.18   0
  -2  12   2    1.15    0.15   0
   2 -12  -2    0.84    0.14   0
  -2  12   2    1.18    0.18   0
  -1  12   2    0.57    0.15   0
  -1  12   2    0.36    0.20   0
   1 -12  -2    0.32    0.14   0
   1 -12  -2    0.32    0.21   0
   0 -12  -2    0.02    0.15   0
   0  12   2    0.13    0.15   0
   0 -12  -2    0.21    0.29   0
   0  12   2    0.08    0.27   0
   0  13  -3   -0.00    0.20   0
   0  13  -3   -0.05    0.14   0
   0 -13   3    0.00    0.18   0
   0 -13   3   -0.05    0.14   0
   1 -13   3    1.95    0.19   0
  -1  13  -3    1.82    0.15   0
   1 -13   3    1.80    0.15   0
  -1  13  -3    2.10    0.19   0
  -2  13  -3    0.32    0.15   0
   2 -13   3    0.47    0.11   0
   2 -13   3    0.26    0.15   0
  -2  13  -3    0.42    0.12   0
   3 -13   3    0.24    0.11   0
   3 -13   3    0.41    0.17   0
  -3  13  -3    0.09    0.12   0
  -3  13  -3    0.25    0.15   0
   4 -13   3    0.12    0.14   0
  -4  13  -3   -0.16    0.14   0
  -4  13  -3    0.05    0.15   0
   4 -13   3    0.38    0.15   0
  -2 -12   3    4.18    0.17   0
   2  12  -3    4.15    0.19   0
   2  12  -3    4.47    0.29   0
  -1 -12   3    0.08    0.14   0
   1  12  -3   -0.04    0.14   0
   1  12  -3    0.03    0.19   0
  -1 -12   3    0.00    0.20   0
   0  12  -3    0.24    0.19   0
   0  12  -3    0.32    0.14   0
   0 -12   3    0.16    0.17   0
   0 -12   3    0.54    0.13   0
  -1  12  -3    0.16    0.13   0
   1 -12   3    0.14    0.14   0
  -1  12  -3    0.33    0.17   0
   1 -12   3    0.12    0.13   0
   2 -12   3   -0.08    0.11   0
  -2  12  -3    0.26    0.11   0
  -2  12  -3   -0.05    0.16   0
   2 -12   3    0.08    0.17   0
  -3  12  -3    2.44    0.15   0
   3 -12   3    2.78    0.16   0
  -3  12  -3    2.63    0.14   0
   3 -12   3    2.71    0.15   0
  -4  12  -3    1.39    0.14   0
  -4  12  -3    1.38    0.15   0
   4 -12   3    1.33    0.14   0
   4 -12   3    1.13    0.15   0
  -5  12  -3    0.18    0.11   0
   5 -12   3    0.23    0.14   0
   5 -12   3    0.35    0.15   0
  -5  12  -3    0.04    0.14   0
  -5  12  -3    0.12    0.14   0
   6 -12   3    0.46    0.15   0
  -6  12  -3    0.82    0.17   0
   6 -12   3    0.69    0.12   0
  -6  12  -3    0.65    0.15   0
  -6  12  -3    0.67    0.12   0
   4  11  -3    0.35    0.18   0
  -3 -11   3    0.06    0.14   0
   3  11  -3    0.17    0.17   0
  -2 -11   3    0.51    0.21   0
  -2 -11   3    0.66    0.14   0
   2  11  -3    0.38    0.16   0
   2  11  -3    0.47    0.20   0
  -1 -11   3    0.60    0.19   0
  -1 -11   3    0.65    0.13   0
   1  11  -3    0.61    0.14   0
   1  11  -3    0.56    0.19   0
   0 -11   3    0.57    0.16   0
   0  11  -3    0.42    0.13   0
   0  11  -3    0.41    0.16   0
   0 -11   3    0.55    0.13   0
  -1  11  -3    0.18    0.17   0
   1 -11   3    0.35    0.14   0
  -1  11  -3    0.32    0.14   0
   1 -11   3    0.39    0.16   0
  -2  11  -3    7.87    0.14   0
   2 -11   3    8.09    0.19   0
   2 -11   3    8.41    0.16   0
  -2  11  -3    8.87    0.19   0
  -3  11  -3    2.40    0.14   0
   3 -11   3    2.46    0.14   0
   3 -11   3    2.41    0.14   0
  -3  11  -3    2.56    0.15   0
   4 -11   3    0.35    0.13   0
  -4  11  -3    0.17    0.11   0
   4 -11   3    0.13    0.14   0
  -4  11  -3    0.03    0.13   0
  -5  11  -3    4.19    0.13   0
   5 -11   3    4.78    0.15   0
  -5  11  -3    4.76    0.17   0
   5 -11   3    4.40    0.16   0
  -5  11  -3    4.46    0.16   0
  -6  11  -3    2.25    0.15   0
  -6  11  -3    2.16    0.15   0
  -6  11  -3    2.29    0.12   0
   6 -11   3    2.06    0.13   0
   6 -11   3    2.85    0.15   0
   7 -11   3   -0.01    0.15   0
  -7  11  -3   -0.02    0.17   0
  -7  11  -3    0.22    0.15   0
   7 -11   3    0.12    0.16   0
  -7  11  -3    0.19    0.12   0
   5  10  -3    0.64    0.20   0
   5  10  -3    0.40    0.20   0
   4  10  -3    1.73    0.17   0
   3  10  -3    0.79    0.14   0
   3  10  -3    0.50    0.25   0
  -3 -10   3    0.86    0.15   0
   3  10  -3    0.60    0.24   0
   2  10  -3    0.42    0.13   0
   2  10  -3    0.39    0.20   0
  -2 -10   3    0.53    0.18   0
  -2 -10   3    0.67    0.13   0
  -1 -10   3    1.11    0.19   0
  -1 -10   3    1.17    0.14   0
   1  10  -3    0.89    0.18   0
   1  10  -3    0.78    0.14   0
   0  10  -3   11.77    0.17   0
   0 -10   3   11.94    0.17   0
   0 -10   3   12.31    0.22   0
   0  10  -3   12.40    0.21   0
  -1  10  -3    1.51    0.14   0
  -1  10  -3    1.67    0.17   0
   1 -10   3    1.36    0.13   0
   1 -10   3    1.70    0.16   0
   2 -10   3   -0.11    0.11   0
  -2  10  -3    0.11    0.10   0
  -2  10  -3    0.34    0.16   0
   2 -10   3    0.17    0.16   0
   3 -10   3    2.54    0.15   0
   3 -10   3    2.39    0.13   0
  -3  10  -3    2.44    0.11   0
  -3  10  -3    2.40    0.14   0
   4 -10   3    0.35    0.14   0
  -4  10  -3    0.20    0.10   0
  -4  10  -3    0.58    0.13   0
   4 -10   3    0.26    0.13   0
  -5  10  -3    0.29    0.13   0
   5 -10   3   -0.21    0.11   0
  -5  10  -3    0.05    0.13   0
  -5  10  -3    0.13    0.14   0
   5 -10   3    0.04    0.13   0
  -6  10  -3    2.13    0.15   0
  -6  10  -3    1.90    0.12   0
   6 -10   3    2.44    0.15   0
  -6  10  -3    2.13    0.14   0
   6 -10   3    1.91    0.15   0
   7 -10   3    0.54    0.15   0
  -7  10  -3    0.42    0.16   0
   7 -10   3    0.17    0.12   0
  -7  10  -3    0.23    0.14   0
  -7  10  -3    0.19    0.14   0
   6   9  -3    0.58    0.21   0
   6   9  -3    0.45    0.23   0
   5   9  -3    1.06    0.18   0
   5   9  -3    1.06    0.17   0
   4   9  -3    0.16    0.16   0
   3   9  -3    8.92    0.17   0
   3   9  -3    8.61    0.28   0
  -3  -9   3    9.37    0.19   0
   3   9  -3    8.67    0.27   0
   2   9  -3    0.35    0.14   0
  -2  -9   3    0.39    0.15   0
  -2  -9   3    0.37    0.20   0
   2   9  -3    0.24    0.19   0
   1   9  -3   -0.13    0.17   0
   1   9  -3   -0.04    0.13   0
  -1  -9   3    0.02    0.17   0
  -1  -9   3    0.25    0.13   0
   0   9  -3   14.64    0.23   0
   0   9  -3   14.32    0.19   0
   0  -9   3   15.35    0.18   0
   0  -9   3   14.76    0.21   0
  -1   9  -3   14.02    0.19   0
   1  -9   3   13.97    0.19   0
   1  -9   3   14.46    0.17   0
  -1   9  -3   13.99    0.16   0
  -2   9  -3    1.77    0.14   0
   2  -9   3    1.74    0.11   0
  -2   9  -3    1.76    0.11   0
   2  -9   3    1.86    0.15   0
  -3   9  -3    4.51    0.14   0
   3  -9   3    4.65    0.14   0
  -3   9  -3    4.38    0.16   0
   3  -9   3    4.55    0.15   0
   4  -9   3   21.94    0.18   0
   4  -9   3   25.01    0.20   0
  -4   9  -3   23.00    0.20   0
  -4   9  -3   23.06    0.20   0
  -4   9  -3   23.08    0.21   0
  -5   9  -3    3.09    0.14   0
   5  -9   3    3.36    0.13   0
   5  -9   3    2.96    0.15   0
  -5   9  -3    3.18    0.15   0
  -5   9  -3    3.34    0.15   0
   6  -9   3    0.30    0.14   0
  -6   9  -3    0.00    0.13   0
   6  -9   3    0.10    0.11   0
  -6   9  -3    0.32    0.13   0
  -6   9  -3    0.09    0.13   0
   7  -9   3    0.04    0.13   0
   7  -9   3   -0.24    0.14   0
  -7   9  -3    0.23    0.16   0
  -7   9  -3   -0.11    0.13   0
  -7   9  -3    0.08    0.13   0
   8  -9   3    0.26    0.13   0
  -8   9  -3    0.29    0.14   0
  -8   9  -3    0.18    0.17   0
  -8   9  -3    0.47    0.14   0
   8  -9   3    0.53    0.15   0
   6   8  -3    0.31    0.22   0
   6   8  -3    0.34    0.22   0
   5   8  -3    2.84    0.17   0
   5   8  -3    2.56    0.19   0
   4   8  -3    1.61    0.17   0
   4   8  -3    1.60    0.24   0
   4   8  -3    1.32    0.26   0
   3   8  -3   31.92    0.36   0
  -3  -8   3   35.53    0.25   0
   3   8  -3   34.18    0.37   0
   3   8  -3   33.34    0.27   0
  -2  -8   3   56.23    0.29   0
  -2  -8   3   57.05    0.38   0
   2   8  -3   52.34    0.38   0
   2   8  -3   52.77    0.28   0
  -1  -8   3    0.32    0.18   0
  -1  -8   3    0.49    0.14   0
   1   8  -3    0.35    0.14   0
   1   8  -3    0.52    0.18   0
   0  -8   3    1.15    0.14   0
   0   8  -3    0.90    0.14   0
   0   8  -3    0.67    0.18   0
   0  -8   3    1.05    0.15   0
  -1   8  -3   19.23    0.19   0
  -1   8  -3   19.28    0.21   0
   1  -8   3   19.77    0.19   0
   1  -8   3   19.18    0.21   0
   2  -8   3    3.53    0.16   0
  -2   8  -3    3.65    0.16   0
  -2   8  -3    3.28    0.15   0
   2  -8   3    3.17    0.12   0
  -3   8  -3    0.53    0.15   0
   3  -8   3    0.50    0.15   0
  -3   8  -3    0.72    0.11   0
   3  -8   3    0.80    0.13   0
  -4   8  -3    4.45    0.15   0
   4  -8   3    4.28    0.13   0
  -4   8  -3    4.32    0.15   0
  -4   8  -3    4.50    0.15   0
   4  -8   3    4.93    0.15   0
  -5   8  -3    2.12    0.14   0
   5  -8   3    1.86    0.12   0
  -5   8  -3    1.97    0.14   0
   5  -8   3    2.07    0.14   0
  -5   8  -3    1.92    0.14   0
  -6   8  -3   -0.02    0.13   0
   6  -8   3   -0.09    0.14   0
   6  -8   3   -0.17    0.13   0
  -6   8  -3    0.15    0.15   0
  -6   8  -3    0.11    0.13   0
   7  -8   3    0.15    0.15   0
   7  -8   3    0.49    0.14   0
  -7   8  -3    0.50    0.16   0
  -7   8  -3    0.55    0.14   0
  -7   8  -3    0.55    0.13   0
   8  -8   3    1.48    0.15   0
   8  -8   3    1.66    0.17   0
  -8   8  -3    1.79    0.15   0
  -8   8  -3    1.81    0.18   0
  -8   8  -3    1.38    0.15   0
   6   7  -3    1.06    0.29   0
   6   7  -3    1.08    0.22   0
   6   7  -3    1.13    0.20   0
   6   7  -3    1.10    0.29   0
   5   7  -3    3.19    0.17   0
   5   7  -3    3.20    0.25   0
   5   7  -3    3.25    0.21   0
   5   7  -3    3.45    0.26   0
   4   7  -3    3.09    0.17   0
   4   7  -3    3.22    0.21   0
   4   7  -3    2.88    0.24   0
   3   7  -3    1.73    0.22   0
   3   7  -3    1.80    0.16   0
   3   7  -3    1.86    0.18   0
  -3  -7   3    2.20    0.16   0
  -2  -7   3    1.02    0.18   0
   2   7  -3    1.13    0.19   0
   2   7  -3    1.16    0.16   0
  -2  -7   3    1.16    0.15   0
   1   7  -3   13.51    0.23   0
   1   7  -3   13.51    0.18   0
  -1  -7   3   14.54    0.23   0
  -1  -7   3   14.02    0.18   0
   0   7  -3   16.91    0.19   0
   0  -7   3   17.61    0.23   0
   0  -7   3   17.66    0.19   0
   0   7  -3   16.68    0.23   0
  -1   7  -3    4.27    0.17   0
   1  -7   3    4.52    0.15   0
  -1   7  -3    4.52    0.13   0
   1  -7   3    4.51    0.17   0
  -2   7  -3    3.78    0.14   0
  -2   7  -3    3.67    0.16   0
   2  -7   3    3.86    0.14   0
   2  -7   3    3.46    0.16   0
  -3   7  -3    1.29    0.12   0
   3  -7   3    1.42    0.15   0
  -3   7  -3    1.45    0.14   0
   3  -7   3    1.54    0.11   0
  -4   7  -3    1.22    0.14   0
  -4   7  -3    0.98    0.13   0
   4  -7   3    1.23    0.14   0
  -4   7  -3    1.24    0.15   0
   4  -7   3    1.33    0.16   0
  -5   7  -3    1.55    0.11   0
   5  -7   3    1.58    0.14   0
  -5   7  -3    2.09    0.14   0
   5  -7   3    1.38    0.14   0
  -5   7  -3    1.67    0.14   0
   6  -7   3    7.85    0.17   0
  -6   7  -3    7.50    0.16   0
  -6   7  -3    7.04    0.15   0
   6  -7   3    7.34    0.16   0
  -6   7  -3    7.25    0.16   0
   7  -7   3    4.46    0.13   0
  -7   7  -3    4.62    0.15   0
  -7   7  -3    4.14    0.15   0
  -7   7  -3    4.54    0.18   0
   7  -7   3    4.41    0.18   0
   8  -7   3    7.12    0.15   0
  -8   7  -3    7.35    0.21   0
   8  -7   3    7.42    0.19   0
  -8   7  -3    6.75    0.17   0
  -8   7  -3    6.98    0.17   0
   9  -7   3   -0.20    0.16   0
  -9   7  -3    0.30    0.17   0
   9  -7   3    0.19    0.17   0
  -9   7  -3    0.27    0.12   0
  -9   7  -3    0.11    0.18   0
   8   6  -3    0.48    0.28   0
   8   6  -3    0.54    0.29   0
   8   6  -3    0.58    0.18   0
   7   6  -3    0.54    0.25   0
   7   6  -3    0.43    0.24   0
   6   6  -3    3.43    0.22   0
   6   6  -3    3.55    0.24   0
   6   6  -3    3.37    0.22   0
   6   6  -3    3.71    0.24   0
   5   6  -3    0.76    0.17   0
   5   6  -3    0.70    0.20   0
   5   6  -3    0.83    0.18   0
   5   6  -3    0.64    0.19   0
   4   6  -3    0.80    0.17   0
   4   6  -3    0.80    0.18   0
   4   6  -3    0.76    0.16   0
   4   6  -3    0.81    0.18   0
   3   6  -3    1.17    0.19   0
   3   6  -3    1.04    0.20   0
   3   6  -3    1.14    0.14   0
  -3  -6   3    1.06    0.16   0
   2   6  -3   41.89    0.33   0
  -2  -6   3   46.69    0.34   0
   2   6  -3   42.88    0.27   0
  -2  -6   3   46.53    0.28   0
   1   6  -3   47.10    0.27   0
  -1  -6   3   49.45    0.31   0
  -1  -6   3   49.30    0.27   0
   1   6  -3   44.56    0.30   0
   0  -6   3    3.44    0.16   0
   0   6  -3    3.36    0.15   0
   0  -6   3    3.54    0.15   0
   0   6  -3    3.45    0.19   0
   1  -6   3    8.48    0.18   0
  -1   6  -3    9.19    0.16   0
   1  -6   3    8.82    0.14   0
  -1   6  -3    8.57    0.18   0
  -2   6  -3   14.15    0.20   0
   2  -6   3   13.40    0.20   0
   2  -6   3   14.19    0.16   0
  -2   6  -3   15.50    0.18   0
  -3   6  -3   19.70    0.21   0
   3  -6   3   20.04    0.20   0
   3  -6   3   18.66    0.20   0
  -3   6  -3   19.59    0.20   0
  -3   6  -3   19.60    0.20   0
   4  -6   3    1.23    0.16   0
  -4   6  -3    1.29    0.12   0
  -4   6  -3    1.12    0.14   0
   4  -6   3    1.38    0.14   0
  -4   6  -3    1.48    0.17   0
  -5   6  -3    2.21    0.14   0
  -5   6  -3    2.32    0.14   0
  -5   6  -3    2.23    0.14   0
   5  -6   3    2.30    0.14   0
   5  -6   3    2.16    0.15   0
   6  -6   3    0.30    0.14   0
  -6   6  -3    0.31    0.16   0
  -6   6  -3    0.23    0.13   0
  -6   6  -3    0.32    0.13   0
   6  -6   3    0.14    0.14   0
   7  -6   3   -0.09    0.13   0
   7  -6   3    0.24    0.15   0
  -7   6  -3    0.02    0.11   0
  -7   6  -3    0.26    0.14   0
  -7   6  -3    0.15    0.14   0
  -8   6  -3    2.72    0.19   0
   8  -6   3    2.66    0.16   0
  -8   6  -3    2.64    0.15   0
  -8   6  -3    2.58    0.15   0
   8  -6   3    2.50    0.17   0
   9  -6   3    2.47    0.14   0
   9  -6   3    2.62    0.16   0
  -9   6  -3    2.77    0.19   0
  -9   6  -3    2.40    0.15   0
  -9   6  -3    2.79    0.21   0
   8   5  -3    1.20    0.22   0
   8   5  -3    1.12    0.19   0
   8   5  -3    1.21    0.21   0
   7   5  -3    0.40    0.16   0
   7   5  -3    0.31    0.30   0
   7   5  -3    0.48    0.21   0
   7   5  -3    0.38    0.31   0
   7   5  -3    0.42    0.19   0
   6   5  -3    1.60    0.21   0
   6   5  -3    1.43    0.20   0
   6   5  -3    1.63    0.20   0
   6   5  -3    1.63    0.19   0
   5   5  -3    4.45    0.20   0
   5   5  -3    4.18    0.20   0
   5   5  -3    4.14    0.19   0
   5   5  -3    4.26    0.19   0
   4   5  -3    8.65    0.20   0
   4   5  -3    9.10    0.22   0
   4   5  -3    8.27    0.19   0
   4   5  -3    8.60    0.23   0
   3   5  -3    3.20    0.20   0
   3   5  -3    3.00    0.17   0
   3   5  -3    3.10    0.20   0
  -2  -5   3    1.16    0.14   0
  -2  -5   3    1.38    0.16   0
   2   5  -3    1.05    0.17   0
   2   5  -3    1.07    0.14   0
   1   5  -3    3.92    0.17   0
  -1  -5   3    4.42    0.18   0
   1   5  -3    4.34    0.16   0
  -1  -5   3    4.28    0.15   0
   0  -5   3    0.43    0.15   0
   0   5  -3    0.11    0.15   0
   0  -5   3    0.31    0.14   0
   0   5  -3    0.15    0.14   0
   1  -5   3   25.63    0.22   0
  -1   5  -3   23.86    0.24   0
   1  -5   3   23.68    0.24   0
  -1   5  -3   24.76    0.22   0
  -2   5  -3    2.15    0.13   0
   2  -5   3    2.22    0.13   0
   2  -5   3    2.16    0.17   0
  -2   5  -3    1.83    0.16   0
  -3   5  -3   98.54    0.37   0
  -3   5  -3   98.09    0.35   0
   3  -5   3  102.61    0.36   0
  -3   5  -3   98.59    0.35   0
   3  -5   3   94.16    0.34   0
   4  -5   3   46.79    0.26   0
  -4   5  -3   46.86    0.27   0
  -4   5  -3   49.20    0.28   0
  -4   5  -3   48.57    0.26   0
   4  -5   3   49.60    0.27   0
   5  -5   3    1.14    0.16   0
   5  -5   3    1.27    0.13   0
  -5   5  -3    1.05    0.16   0
  -5   5  -3    1.07    0.15   0
  -5   5  -3    1.10    0.14   0
   6  -5   3   15.89    0.19   0
   6  -5   3   16.35    0.20   0
  -6   5  -3   16.51    0.20   0
  -6   5  -3   15.47    0.19   0
  -6   5  -3   16.34    0.18   0
   7  -5   3    0.83    0.16   0
  -7   5  -3    0.57    0.16   0
  -7   5  -3    0.81    0.14   0
  -7   5  -3    0.53    0.16   0
   7  -5   3    0.54    0.15   0
  -8   5  -3    1.60    0.17   0
   8  -5   3    1.58    0.17   0
   8  -5   3    1.63    0.15   0
  -8   5  -3    1.72    0.18   0
  -8   5  -3    1.51    0.14   0
   9  -5   3    0.42    0.13   0
  -9   5  -3    0.74    0.14   0
  -9   5  -3    0.47    0.18   0
  -9   5  -3    0.56    0.19   0
   9  -5   3    0.51    0.19   0
   9   4  -3    0.52    0.21   0
   9   4  -3    0.52    0.21   0
   9   4  -3    0.30    0.21   0
   8   4  -3    0.69    0.17   0
   8   4  -3    0.55    0.18   0
   8   4  -3    0.44    0.19   0
   7   4  -3    6.26    0.31   0
   7   4  -3    5.86    0.30   0
   7   4  -3    6.18    0.20   0
   7   4  -3    6.43    0.22   0
   7   4  -3    6.08    0.22   0
   6   4  -3    0.00    0.19   0
   6   4  -3    0.15    0.20   0
   6   4  -3    0.18    0.18   0
   6   4  -3   -0.08    0.18   0
   5   4  -3    0.45    0.18   0
   5   4  -3    0.49    0.18   0
   5   4  -3    0.68    0.19   0
   5   4  -3    0.54    0.16   0
   4   4  -3    6.43    0.19   0
   4   4  -3    6.43    0.20   0
   4   4  -3    6.35    0.19   0
   4   4  -3    6.06    0.19   0
   3   4  -3    2.46    0.19   0
   3   4  -3    2.32    0.16   0
   3   4  -3    2.28    0.18   0
   3   4  -3    2.03    0.16   0
  -2  -4   3    0.77    0.17   0
  -2  -4   3    0.91    0.16   0
   2   4  -3    0.90    0.14   0
   2   4  -3    0.92    0.17   0
  -1  -4   3    7.24    0.18   0
   1   4  -3    6.95    0.17   0
  -1  -4   3    7.65    0.17   0
   1   4  -3    6.85    0.20   0
   0   4  -3    5.06    0.18   0
   0   4  -3    5.45    0.17   0
   0  -4   3    5.59    0.18   0
   0  -4   3    5.62    0.14   0
  -1   4  -3    0.90    0.14   0
   1  -4   3    0.88    0.17   0
  -1   4  -3    0.87    0.15   0
   1  -4   3    1.02    0.13   0
  -2   4  -3   58.18    0.31   0
  -2   4  -3   59.01    0.31   0
   2  -4   3   58.12    0.30   0
   2  -4   3   61.64    0.31   0
  -2   4  -3   59.19    0.30   0
   3  -4   3    5.93    0.17   0
   3  -4   3    5.86    0.16   0
  -3   4  -3    5.65    0.17   0
  -3   4  -3    6.33    0.16   0
  -3   4  -3    5.99    0.17   0
  -4   4  -3    1.27    0.14   0
  -4   4  -3    1.16    0.14   0
  -4   4  -3    1.07    0.15   0
   4  -4   3    1.10    0.15   0
   4  -4   3    1.12    0.14   0
  -5   4  -3    2.33    0.17   0
  -5   4  -3    2.16    0.15   0
   5  -4   3    2.29    0.14   0
  -5   4  -3    2.43    0.16   0
   5  -4   3    2.07    0.16   0
  -6   4  -3    6.54    0.18   0
   6  -4   3    6.57    0.17   0
   6  -4   3    6.82    0.19   0
  -6   4  -3    6.86    0.19   0
  -6   4  -3    6.78    0.16   0
  -7   4  -3   30.19    0.27   0
  -7   4  -3   29.23    0.22   0
  -7   4  -3   28.10    0.27   0
   7  -4   3   28.61    0.22   0
   7  -4   3   30.63    0.29   0
   8  -4   3    0.32    0.14   0
  -8   4  -3    0.09    0.16   0
  -8   4  -3    0.25    0.18   0
  -8   4  -3    0.06    0.14   0
   8  -4   3    0.22    0.17   0
   9  -4   3    2.22    0.17   0
  -9   4  -3    2.43    0.22   0
   9  -4   3    2.48    0.22   0
  -9   4  -3    2.26    0.15   0
   9   3  -3    0.11    0.20   0
   9   3  -3   -0.01    0.18   0
   8   3  -3    3.33    0.21   0
   8   3  -3    3.02    0.19   0
   7   3  -3    4.63    0.25   0
   7   3  -3    4.75    0.18   0
   7   3  -3    4.62    0.25   0
   7   3  -3    4.67    0.19   0
   6   3  -3   19.27    0.29   0
   6   3  -3   18.97    0.24   0
   6   3  -3   18.57    0.29   0
   5   3  -3    6.98    0.21   0
   5   3  -3    6.91    0.21   0
   5   3  -3    7.05    0.19   0
   4   3  -3    1.05    0.18   0
   4   3  -3    1.03    0.15   0
   4   3  -3    0.94    0.16   0
   4   3  -3    1.10    0.16   0
   3   3  -3  139.71    0.52   0
   3   3  -3  142.57    0.53   0
   3   3  -3  146.03    0.53   0
   3   3  -3  143.69    0.51   0
   2   3  -3   21.63    0.25   0
   2   3  -3   21.50    0.23   0
   1   3  -3   26.41    0.28   0
  -1  -3   3   28.75    0.26   0
  -1  -3   3   28.14    0.28   0
   1   3  -3   27.73    0.26   0
   0   3  -3  184.39    0.55   0
   0   3  -3  177.28    0.58   0
   0  -3   3  184.99    0.59   0
   0  -3   3  193.67    0.54   0
  -1   3  -3   10.42    0.20   0
  -1   3  -3   10.82    0.17   0
   1  -3   3   11.41    0.20   0
  -1   3  -3   10.39    0.19   0
   1  -3   3   10.62    0.22   0
   2  -3   3   17.66    0.21   0
  -2   3  -3   17.02    0.21   0
   2  -3   3   17.10    0.19   0
  -2   3  -3   16.64    0.21   0
  -2   3  -3   17.43    0.21   0
  -3   3  -3    4.70    0.17   0
   3  -3   3    4.77    0.17   0
   3  -3   3    5.11    0.16   0
   3  -3   3    5.06    0.16   0
  -3   3  -3    4.90    0.16   0
  -3   3  -3    5.35    0.16   0
   4  -3   3    5.36    0.18   0
   4  -3   3    5.31    0.15   0
   4  -3   3    5.26    0.17   0
  -4   3  -3    4.72    0.14   0
  -4   3  -3    5.16    0.18   0
  -4   3  -3    4.81    0.17   0
   5  -3   3    2.42    0.16   0
  -5   3  -3    2.39    0.17   0
   5  -3   3    2.40    0.16   0
   5  -3   3    2.08    0.15   0
  -5   3  -3    2.60    0.16   0
  -5   3  -3    2.35    0.15   0
   6  -3   3    0.14    0.15   0
  -6   3  -3    0.20    0.13   0
   6  -3   3    0.28    0.15   0
  -6   3  -3    0.09    0.15   0
  -6   3  -3    0.07    0.16   0
   6  -3   3   -0.06    0.15   0
   7  -3   3    1.11    0.15   0
  -7   3  -3    0.93    0.18   0
   7  -3   3    1.07    0.15   0
   7  -3   3    1.07    0.18   0
  -7   3  -3    1.08    0.13   0
  -7   3  -3    1.07    0.16   0
  -8   3  -3    0.52    0.20   0
   8  -3   3    0.31    0.15   0
   8  -3   3    0.45    0.20   0
   8  -3   3    0.49    0.17   0
  -8   3  -3    0.49    0.14   0
   9  -3   3    0.15    0.16   0
   9  -3   3    0.30    0.17   0
  -9   3  -3    0.23    0.26   0
  -9   3  -3    0.27    0.15   0
  -9  -2   3    2.66    0.19   0
   9   2  -3    2.58    0.24   0
   9   2  -3    2.37    0.19   0
  -8  -2   3    1.37    0.17   0
   8   2  -3    1.40    0.25   0
   8   2  -3    1.56    0.26   0
   8   2  -3    1.56    0.22   0
   8   2  -3    1.39    0.17   0
   7   2  -3   10.85    0.25   0
   7   2  -3   10.16    0.27   0
   7   2  -3   10.35    0.20   0
   7   2  -3   10.45    0.25   0
  -7  -2   3   10.56    0.20   0
   6   2  -3    2.89    0.21   0
   6   2  -3    2.90    0.19   0
  -6  -2   3    2.82    0.18   0
   6   2  -3    2.51    0.18   0
   6   2  -3    2.78    0.20   0
   5   2  -3    2.80    0.20   0
  -5  -2   3    2.96    0.18   0
   5   2  -3    2.87    0.17   0
   5   2  -3    2.99    0.20   0
   4   2  -3    0.61    0.16   0
   4   2  -3    0.61    0.14   0
  -4  -2   3    0.62    0.15   0
   3   2  -3   17.18    0.24   0
   3   2  -3   18.15    0.24   0
   3   2  -3   17.39    0.22   0
   2   2  -3   24.38    0.27   0
   2   2  -3   24.44    0.27   0
   2   2  -3   24.99    0.27   0
   2   2  -3   24.45    0.27   0
   1   2  -3    1.54    0.18   0
   1   2  -3    1.39    0.20   0
  -1  -2   3    1.54    0.20   0
   0   2  -3  464.44    0.92   0
   0   2  -3  454.28    0.95   0
   0  -2   3  486.69    0.95   0
   0   2  -3  410.66    0.89   0
   0  -2   3  464.64    0.96   0
  -1   2  -3   77.66    0.40   0
   1  -2   3   75.93    0.41   0
   1  -2   3   82.32    0.42   0
  -1   2  -3   78.68    0.41   0
   1  -2   3   78.33    0.38   0
  -1   2  -3   76.06    0.41   0
   2  -2   3   15.95    0.22   0
   2  -2   3   15.09    0.23   0
  -2   2  -3   15.77    0.21   0
  -2   2  -3   15.23    0.23   0
   2  -2   3   16.08    0.21   0
  -2   2  -3   15.09    0.22   0
  -3   2  -3    0.49    0.16   0
   3  -2   3    0.44    0.14   0
  -3   2  -3    0.14    0.15   0
   3  -2   3    0.21    0.16   0
  -3   2  -3    0.26    0.16   0
   3  -2   3    0.17    0.14   0
   4  -2   3   20.39    0.22   0
  -4   2  -3   18.68    0.24   0
   4  -2   3   20.67    0.25   0
  -4   2  -3   20.80    0.22   0
  -4   2  -3   19.37    0.21   0
   4  -2   3   18.54    0.22   0
  -5   2  -3    2.08    0.19   0
   5  -2   3    1.95    0.16   0
  -5   2  -3    2.04    0.15   0
   5  -2   3    2.05    0.19   0
   5  -2   3    2.08    0.15   0
  -5   2  -3    2.08    0.14   0
   6  -2   3    0.12    0.14   0
   6  -2   3    0.11    0.18   0
   6  -2   3    0.22    0.15   0
  -6   2  -3    0.09    0.18   0
  -6   2  -3    0.12    0.14   0
  -6   2  -3    0.14    0.16   0
   7  -2   3    7.91    0.25   0
   7  -2   3    7.06    0.17   0
   7  -2   3    7.44    0.17   0
  -7   2  -3    7.37    0.16   0
  -7   2  -3    7.61    0.25   0
   8  -2   3    9.12    0.19   0
  -8   2  -3    9.83    0.37   0
  -8   2  -3    9.68    0.18   0
   8  -2   3    9.68    0.19   0
   9  -2   3    1.09    0.15   0
   9  -2   3    0.95    0.15   0
  -9   2  -3    1.27    0.15   0
  -9  -1   3    2.13    0.15   0
   9   1  -3    2.34    0.15   0
   9   1  -3    2.06    0.28   0
   9   1  -3    2.18    0.28   0
   9   1  -3    2.29    0.28   0
   8   1  -3    0.04    0.19   0
   8   1  -3    0.04    0.16   0
  -8  -1   3    0.09    0.15   0
   8   1  -3   -0.02    0.22   0
  -7  -1   3    1.70    0.18   0
   7   1  -3    1.64    0.15   0
  -7  -1   3    1.58    0.16   0
   7   1  -3    1.91    0.23   0
   7   1  -3    1.70    0.20   0
  -6  -1   3   11.00    0.22   0
   6   1  -3   11.41    0.19   0
   6   1  -3   12.46    0.30   0
   6   1  -3   11.42    0.24   0
  -6  -1   3   11.16    0.19   0
  -5  -1   3   44.75    0.33   0
  -5  -1   3   47.32    0.29   0
   5   1  -3   45.77    0.33   0
   5   1  -3   47.18    0.43   0
   5   1  -3   45.90    0.28   0
  -4  -1   3   -0.01    0.15   0
  -4  -1   3    0.09    0.14   0
   4   1  -3    0.11    0.16   0
   4   1  -3    0.05    0.14   0
  -3  -1   3    1.38    0.17   0
  -3  -1   3    1.41    0.15   0
   3   1  -3    1.47    0.17   0
   3   1  -3    1.51    0.15   0
  -2  -1   3   18.81    0.26   0
   2   1  -3   18.68    0.26   0
   2   1  -3   18.86    0.23   0
  -1  -1   3   34.98    0.33   0
   1   1  -3   34.90    0.32   0
  -1  -1   3   34.23    0.33   0
   1   1  -3   34.19    0.33   0
   1   1  -3   34.16    0.36   0
   0   1  -3   41.18    0.36   0
   0  -1   3   43.80    0.37   0
   0   1  -3   44.27    0.36   0
   0  -1   3   42.84    0.36   0
   0   1  -3   44.16    0.34   0
   0   1  -3   42.92    0.36   0
  -1   1  -3  259.06    0.70   0
   1  -1   3  277.54    0.76   0
  -1   1  -3  292.01    0.82   0
   1  -1   3  260.80    0.71   0
  -1   1  -3  268.65    0.75   0
  -2   1  -3    9.76    0.23   0
   2  -1   3   10.61    0.24   0
  -2   1  -3   10.38    0.20   0
   2  -1   3   10.14    0.20   0
  -2   1  -3    9.44    0.21   0
   2  -1   3    9.23    0.21   0
  -3   1  -3   11.65    0.20   0
  -3   1  -3   10.42    0.19   0
   3  -1   3   11.63    0.20   0
   3  -1   3   11.56    0.25   0
   3  -1   3   10.41    0.20   0
  -3   1  -3   10.58    0.24   0
  -4   1  -3   65.01    0.46   0
  -4   1  -3   65.07    0.33   0
   4  -1   3   71.05    0.35   0
   4  -1   3   64.39    0.34   0
   4  -1   3   71.51    0.47   0
  -4   1  -3   69.98    0.34   0
   5  -1   3    3.68    0.16   0
  -5   1  -3    3.68    0.23   0
   5  -1   3    4.15    0.23   0
   5  -1   3    3.85    0.15   0
  -5   1  -3    4.03    0.17   0
  -5   1  -3    3.64    0.16   0
   6  -1   3    8.21    0.17   0
  -6   1  -3    7.78    0.18   0
   6  -1   3    7.41    0.17   0
  -6   1  -3    8.08    0.33   0
   7  -1   3    0.31    0.17   0
   7  -1   3    0.46    0.15   0
  -7   1  -3    0.32    0.16   0
  -8   1  -3    0.75    0.14   0
   8  -1   3    0.29    0.17   0
   8  -1   3    0.62    0.18   0
  -9   1  -3    0.23    0.15   0
   9  -1   3    0.07    0.18   0
   9  -1   3    0.25    0.17   0
  10   0  -3    1.16    0.30   0
  10   0  -3    1.19    0.30   0
  10   0  -3    1.35    0.17   0
 -10   0   3    1.52    0.18   0
  -9   0   3    0.83    0.16   0
  -9   0   3    0.78    0.20   0
   9   0  -3    0.71    0.15   0
   9   0  -3    0.74    0.20   0
  -8   0   3    1.16    0.14   0
   8   0  -3    1.17    0.31   0
   8   0  -3    1.15    0.18   0
   8   0  -3    1.26    0.17   0
  -8   0   3    1.22    0.19   0
   7   0  -3    6.54    0.19   0
  -7   0   3    6.77    0.19   0
  -7   0   3    6.97    0.16   0
   7   0  -3    6.88    0.34   0
   7   0  -3    6.57    0.17   0
   6   0  -3    6.78    0.22   0
  -6   0   3    6.97    0.17   0
  -6   0   3    7.00    0.20   0
   6   0  -3    7.33    0.20   0
   6   0  -3    7.05    0.35   0
   5   0  -3    1.26    0.31   0
  -5   0   3    1.16    0.15   0
   5   0  -3    1.01    0.14   0
   5   0  -3    1.22    0.15   0
  -5   0   3    1.23    0.15   0
  -4   0   3    8.36    0.19   0
  -4   0   3    8.29    0.18   0
   4   0  -3    8.40    0.18   0
   4   0  -3    8.38    0.18   0
   4   0  -3    8.90    0.42   0
  -3   0   3   14.00    0.21   0
  -3   0   3   13.92    0.21   0
   3   0  -3   14.47    0.24   0
   3   0  -3   13.59    0.45   0
   3   0  -3   14.32    0.21   0
  -2   0   3   55.08    0.36   0
   2   0  -3   55.73    0.39   0
   2   0  -3   54.63    0.34   0
   2   0  -3   53.58    0.60   0
  -2   0   3   54.31    0.38   0
   1   0  -3  429.66    0.98   0
  -1   0   3  425.60    0.97   0
   1   0  -3  426.57    0.97   0
  -1   0   3 2301.19    2.73   0
   1   0  -3 2096.07    2.64   0
   1   0  -3  426.78    0.97   0
   0   0  -3  206.52    0.71   0
   0   0   3  202.09    0.70   0
   0   0   3  224.29    0.77   0
   0   0   3  221.42    0.76   0
   0   0  -3  213.23    0.75   0
   0   0  -3  218.53    0.75   0
  -1   0  -3  128.98    0.58   0
   1   0   3  132.66    0.53   0
  -1   0  -3  139.67    0.65   0
   1   0   3  136.61    0.63   0
   1   0   3  133.58    0.59   0
  -1   0  -3  131.68    0.52   0
  -2   0  -3   53.83    0.31   0
  -2   0  -3   55.56    0.46   0
   2   0   3   59.28    0.35   0
  -2   0  -3   50.33    0.36   0
   2   0   3   51.14    0.37   0
  -2   0  -3   54.74    0.45   0
  -3   0  -3    5.97    0.18   0
   3   0   3    5.96    0.18   0
  -3   0  -3    6.62    0.27   0
  -3   0  -3    6.05    0.26   0
  -3   0  -3    6.69    0.17   0
   3   0   3    6.98    0.19   0
  -4   0  -3    0.59    0.27   0
  -4   0  -3    0.67    0.14   0
   4   0   3    0.66    0.18   0
   4   0   3    0.51    0.17   0
  -4   0  -3    0.57    0.28   0
  -4   0  -3    0.59    0.16   0
  -5   0  -3   17.60    0.21   0
   5   0   3   19.51    0.23   0
   5   0   3   16.62    0.24   0
   6   0   3    6.37    0.20   0
   6   0   3    7.11    0.17   0
  -6   0  -3    6.75    0.17   0
   7   0   3    3.89    0.16   0
  -7   0  -3    4.27    0.17   0
   7   0   3    3.87    0.19   0
   8   0   3    0.48    0.15   0
   8   0   3    0.55    0.15   0
  -8   0  -3    0.57    0.14   0
   9   0   3    0.85    0.19   0
  -9   0  -3    0.91    0.18   0
   9   0   3    0.97    0.18   0
  10  -1  -3    0.13    0.16   0
  10  -1  -3    0.18    0.20   0
 -10   1   3    0.01    0.22   0
 -10   1   3   -0.11    0.15   0
  -9   1   3    2.30    0.14   0
  -9   1   3    2.52    0.19   0
   9  -1  -3    2.53    0.19   0
   9  -1  -3    2.43    0.15   0
  -8   1   3    6.93    0.16   0
  -8   1   3    6.92    0.19   0
   8  -1  -3    7.09    0.16   0
   8  -1  -3    6.83    0.22   0
  -7   1   3    0.15    0.17   0
   7  -1  -3    0.25    0.16   0
  -7   1   3    0.21    0.13   0
   7  -1  -3    0.08    0.14   0
   6  -1  -3   29.07    0.27   0
   6  -1  -3   30.13    0.23   0
  -6   1   3   29.62    0.27   0
  -6   1   3   30.17    0.22   0
   5  -1  -3   18.01    0.18   0
   5  -1  -3   17.49    0.21   0
  -5   1   3   18.21    0.22   0
  -5   1   3   18.40    0.20   0
  -4   1   3   27.22    0.25   0
   4  -1  -3   28.06    0.25   0
  -4   1   3   27.40    0.25   0
   4  -1  -3   27.58    0.27   0
   3  -1  -3   50.57    0.32   0
  -3   1   3   49.64    0.32   0
  -3   1   3   49.35    0.31   0
   3  -1  -3   49.98    0.31   0
  -2   1   3    1.15    0.20   0
   2  -1  -3    0.98    0.20   0
  -2   1   3    1.05    0.21   0
  -2   1   3    1.06    0.31   0
   2  -1  -3    0.87    0.20   0
   1  -1  -3   61.00    0.40   0
  -1   1   3   59.43    0.40   0
  -1   1   3   60.42    0.38   0
   1  -1  -3   62.60    0.40   0
  -1   1   3   59.36    0.45   0
   1  -1  -3   63.64    0.48   0
   0   1   3   34.17    0.33   0
   0  -1  -3   34.65    0.38   0
   0  -1  -3   35.97    0.33   0
   0  -1  -3   32.42    0.35   0
   0  -1  -3   36.60    0.35   0
   0   1   3   32.55    0.30   0
   1   1   3    1.96    0.21   0
  -1  -1  -3    1.94    0.24   0
   1   1   3    1.86    0.22   0
  -1  -1  -3    2.10    0.22   0
   1   1   3    2.12    0.18   0
  -1  -1  -3    2.00    0.15   0
   2   1   3    6.65    0.24   0
  -2  -1  -3    7.50    0.27   0
  -2  -1  -3    6.50    0.23   0
   2   1   3    7.11    0.26   0
   2   1   3    7.41    0.18   0
  -3  -1  -3   62.48    0.41   0
   3   1   3   60.59    0.39   0
   3   1   3   68.34    0.33   0
  -3  -1  -3   63.97    0.70   0
  -3  -1  -3   63.99    0.72   0
   4   1   3    8.51    0.23   0
   4   1   3   10.00    0.19   0
  -4  -1  -3    9.55    0.23   0
   5   1   3    2.39    0.21   0
   5   1   3    2.56    0.15   0
  -5  -1  -3    2.37    0.18   0
  -6  -1  -3    2.95    0.17   0
   6   1   3    2.91    0.16   0
   6   1   3    2.27    0.19   0
  -7  -1  -3    6.77    0.22   0
   7   1   3    6.59    0.23   0
   7   1   3    7.03    0.17   0
   8   1   3    0.68    0.15   0
   8   1   3    0.30    0.20   0
  -8  -1  -3    0.54    0.19   0
  10  -2  -3    0.25    0.15   0
  10  -2  -3    0.31    0.19   0
 -10   2   3    0.36    0.14   0
 -10   2   3    0.17    0.19   0
   9  -2  -3    0.46    0.15   0
  -9   2   3    0.24    0.13   0
  -9   2   3    0.40    0.18   0
   9  -2  -3    0.39    0.18   0
  -8   2   3    0.21    0.16   0
  -8   2   3    0.14    0.13   0
   8  -2  -3    0.05    0.13   0
   8  -2  -3    0.09    0.16   0
  -7   2   3    0.26    0.16   0
   7  -2  -3    0.17    0.16   0
   7  -2  -3    0.19    0.15   0
  -7   2   3    0.29    0.14   0
   6  -2  -3    0.91    0.15   0
  -6   2   3    0.84    0.14   0
  -6   2   3    0.92    0.14   0
   6  -2  -3    0.95    0.12   0
   5  -2  -3   41.17    0.28   0
  -5   2   3   42.23    0.28   0
  -5   2   3   43.77    0.26   0
   5  -2  -3   43.28    0.26   0
  -4   2   3   -0.04    0.16   0
  -4   2   3    0.09    0.16   0
   4  -2  -3    0.28    0.16   0
   4  -2  -3    0.04    0.13   0
  -3   2   3   70.68    0.34   0
   3  -2  -3   68.45    0.32   0
  -3   2   3   68.75    0.34   0
   3  -2  -3   68.86    0.33   0
  -3   2   3   68.60    0.64   0
   2  -2  -3    4.27    0.19   0
  -2   2   3    4.19    0.18   0
   2  -2  -3    4.34    0.19   0
  -2   2   3    4.03    0.15   0
   1  -2  -3    2.99    0.15   0
   1  -2  -3    3.15    0.19   0
  -1   2   3    3.09    0.18   0
  -1   2   3    2.93    0.21   0
   0  -2  -3  209.55    0.78   0
   0   2   3  210.65    0.67   0
   0  -2  -3  214.42    0.79   0
   0  -2  -3  204.91    0.65   0
   0   2   3  212.00    0.61   0
  -1  -2  -3    6.53    0.28   0
   1   2   3    6.91    0.22   0
  -1  -2  -3    7.41    0.29   0
  -1  -2  -3    6.61    0.23   0
   1   2   3    6.99    0.18   0
  -2  -2  -3   17.31    0.30   0
   2   2   3   18.34    0.34   0
   2   2   3   18.55    0.31   0
  -2  -2  -3   16.81    0.34   0
   2   2   3   18.52    0.21   0
  -3  -2  -3    8.20    0.41   0
  -3  -2  -3    9.25    0.41   0
   3   2   3    8.31    0.26   0
   3   2   3    9.42    0.18   0
  -3  -2  -3    8.74    0.26   0
   4   2   3    5.95    0.16   0
   4   2   3    5.43    0.25   0
  -4  -2  -3    5.68    0.24   0
  -5  -2  -3   11.32    0.25   0
   5   2   3   10.29    0.26   0
   5   2   3   11.56    0.18   0
   6   2   3    3.28    0.21   0
   6   2   3    3.77    0.16   0
  -6  -2  -3    3.54    0.22   0
   7   2   3    2.05    0.15   0
   7   2   3    1.78    0.22   0
  -7  -2  -3    1.85    0.19   0
   8   2   3   -0.09    0.22   0
  -8  -2  -3    0.03    0.19   0
   8   2   3    0.06    0.15   0
 -10   3   3    0.02    0.17   0
  10  -3  -3    0.19    0.17   0
  10  -3  -3   -0.05    0.13   0
 -10   3   3    0.00    0.12   0
  -9   3   3    0.66    0.11   0
   9  -3  -3    0.49    0.14   0
  -9   3   3    0.31    0.16   0
   9  -3  -3    0.59    0.16   0
   8  -3  -3    2.89    0.15   0
  -8   3   3    2.97    0.15   0
  -8   3   3    2.81    0.15   0
   8  -3  -3    2.82    0.16   0
   7  -3  -3    1.60    0.14   0
  -7   3   3    1.68    0.14   0
  -7   3   3    1.69    0.14   0
   7  -3  -3    1.65    0.15   0
   6  -3  -3    1.30    0.14   0
  -6   3   3    0.97    0.14   0
  -6   3   3    1.21    0.14   0
   6  -3  -3    1.16    0.14   0
   5  -3  -3    4.97    0.17   0
  -5   3   3    5.35    0.16   0
  -5   3   3    5.68    0.16   0
   5  -3  -3    5.31    0.16   0
  -4   3   3   24.04    0.22   0
   4  -3  -3   25.00    0.22   0
  -4   3   3   25.71    0.22   0
   4  -3  -3   24.15    0.23   0
   3  -3  -3    0.93    0.16   0
  -3   3   3    0.93    0.15   0
  -3   3   3    1.23    0.15   0
   3  -3  -3    0.84    0.16   0
  -2   3   3   27.98    0.24   0
   2  -3  -3   28.90    0.25   0
  -2   3   3   28.74    0.25   0
   2  -3  -3   27.65    0.24   0
  -1   3   3    8.96    0.19   0
   1  -3  -3    9.33    0.20   0
  -1   3   3    9.07    0.18   0
   1  -3  -3    8.41    0.19   0
   0  -3  -3    1.78    0.15   0
   0   3   3    1.90    0.15   0
   0   3   3    1.96    0.21   0
   0  -3  -3    2.10    0.20   0
  -1  -3  -3   15.07    0.35   0
  -1  -3  -3   13.62    0.34   0
   1   3   3   14.61    0.24   0
  -1  -3  -3   13.51    0.23   0
  -2  -3  -3    4.41    0.38   0
  -2  -3  -3    4.42    0.20   0
  -2  -3  -3    4.89    0.38   0
   2   3   3    4.76    0.20   0
   2   3   3    5.06    0.13   0
   3   3   3   51.29    0.55   0
  -3  -3  -3   49.13    0.54   0
  -3  -3  -3   53.53    0.71   0
   3   3   3   52.29    0.28   0
   4   3   3   28.46    0.45   0
   4   3   3   30.02    0.23   0
  -4  -3  -3   30.72    0.48   0
   5   3   3    7.51    0.32   0
   5   3   3    8.02    0.18   0
  -5  -3  -3    8.04    0.31   0
   6   3   3    0.64    0.17   0
  -6  -3  -3    0.61    0.22   0
   6   3   3    0.57    0.22   0
   7   3   3    0.82    0.17   0
  -7  -3  -3    0.61    0.24   0
   7   3   3    0.57    0.24   0
   8   3   3    0.91    0.28   0
  -8  -3  -3    1.17    0.28   0
   8   3   3    1.15    0.16   0
  10  -4  -3    3.85    0.20   0
 -10   4   3    3.56    0.16   0
  10  -4  -3    3.55    0.17   0
 -10   4   3    3.87    0.20   0
   9  -4  -3    1.27    0.13   0
  -9   4   3    1.34    0.14   0
   9  -4  -3    1.34    0.17   0
  -9   4   3    1.24    0.14   0
   8  -4  -3    0.37    0.14   0
   8  -4  -3    0.23    0.15   0
  -8   4   3    0.29    0.13   0
  -8   4   3    0.37    0.14   0
   7  -4  -3    0.22    0.13   0
   7  -4  -3    0.21    0.14   0
  -7   4   3    0.20    0.11   0
  -7   4   3    0.30    0.13   0
   6  -4  -3    1.44    0.14   0
  -6   4   3    1.46    0.14   0
  -6   4   3    1.56    0.13   0
   6  -4  -3    1.55    0.14   0
   5  -4  -3    0.43    0.12   0
  -5   4   3    0.38    0.13   0
  -5   4   3    0.47    0.13   0
  -5   4   3    0.29    0.21   0
   5  -4  -3    0.36    0.12   0
   4  -4  -3   14.60    0.19   0
  -4   4   3   14.58    0.19   0
  -4   4   3   15.51    0.19   0
   4  -4  -3   14.75    0.17   0
   3  -4  -3   34.68    0.23   0
   3  -4  -3   35.98    0.26   0
  -3   4   3   36.51    0.26   0
  -3   4   3   34.61    0.22   0
   2  -4  -3    9.50    0.17   0
   2  -4  -3   10.14    0.21   0
  -2   4   3    9.73    0.15   0
  -2   4   3   10.33    0.18   0
   1  -4  -3   30.16    0.24   0
   1  -4  -3   33.15    0.28   0
  -1   4   3   31.77    0.23   0
  -1   4   3   31.85    0.28   0
   0  -4  -3   61.82    0.33   0
   0   4   3   66.37    0.34   0
   0   4   3   65.93    0.45   0
   0  -4  -3   65.26    0.45   0
  -1  -4  -3   85.32    0.39   0
  -1  -4  -3   89.52    0.72   0
   1   4   3   90.39    0.42   0
  -1  -4  -3   88.08    0.71   0
   2   4   3    7.20    0.22   0
  -2  -4  -3    6.33    0.22   0
   3   4   3    4.02    0.26   0
  -3  -4  -3    3.80    0.26   0
   3   4   3    4.46    0.16   0
   4   4   3   19.55    0.21   0
   5   4   3    1.91    0.14   0
   6   4   3    0.30    0.14   0
   7   4   3    0.18    0.15   0
 -10   5   3    0.20    0.15   0
  10  -5  -3    0.14    0.17   0
 -10   5   3    0.35    0.12   0
  10  -5  -3    0.18    0.16   0
   9  -5  -3    0.40    0.15   0
  -9   5   3    0.43    0.14   0
   9  -5  -3    0.25    0.14   0
  -9   5   3    0.25    0.14   0
   8  -5  -3    0.70    0.16   0
  -8   5   3    0.61    0.13   0
   8  -5  -3    0.59    0.14   0
  -8   5   3    0.32    0.13   0
   7  -5  -3    0.21    0.14   0
  -7   5   3   -0.09    0.13   0
   7  -5  -3    0.07    0.11   0
  -7   5   3   -0.07    0.12   0
   6  -5  -3    5.39    0.17   0
  -6   5   3    5.69    0.13   0
  -6   5   3    5.31    0.16   0
  -6   5   3    5.59    0.26   0
   6  -5  -3    5.69    0.16   0
   5  -5  -3    7.61    0.17   0
  -5   5   3    7.17    0.14   0
   5  -5  -3    7.71    0.17   0
  -5   5   3    7.84    0.14   0
   4  -5  -3    0.49    0.15   0
   4  -5  -3    0.33    0.14   0
  -4   5   3    0.34    0.13   0
  -4   5   3    0.27    0.14   0
   3  -5  -3    9.73    0.17   0
   3  -5  -3   10.28    0.19   0
  -3   5   3    9.86    0.16   0
  -3   5   3   10.24    0.18   0
  -2   5   3    5.83    0.18   0
  -2   5   3    5.43    0.15   0
   2  -5  -3    4.99    0.16   0
   2  -5  -3    5.51    0.17   0
  -1   5   3    3.17    0.15   0
   1  -5  -3    3.06    0.15   0
  -1   5   3    3.12    0.15   0
   1  -5  -3    3.10    0.18   0
   0   5   3   29.71    0.24   0
   0  -5  -3   27.54    0.23   0
   0   5   3   30.01    0.33   0
   0  -5  -3   28.71    0.33   0
   1   5   3   67.78    0.34   0
  -1  -5  -3   63.57    0.68   0
  -1  -5  -3   64.70    0.34   0
  -1  -5  -3   67.55    0.70   0
   2   5   3   21.25    0.25   0
  -2  -5  -3   19.49    0.24   0
  -3  -5  -3   22.03    0.31   0
   3   5   3   21.98    0.19   0
   3   5   3   22.81    0.31   0
   4   5   3    3.49    0.15   0
   5   5   3    0.52    0.14   0
   6   5   3    0.17    0.15   0
   7   5   3    0.67    0.16   0
   9  -6  -3    1.87    0.15   0
   9  -6  -3    1.99    0.13   0
  -9   6   3    2.01    0.15   0
  -9   6   3    1.86    0.12   0
   8  -6  -3    1.78    0.15   0
  -8   6   3    2.09    0.14   0
   8  -6  -3    1.57    0.16   0
  -8   6   3    1.74    0.15   0
   7  -6  -3    0.57    0.13   0
  -7   6   3    0.85    0.13   0
  -7   6   3    0.98    0.13   0
   7  -6  -3    0.77    0.14   0
  -7   6   3    0.82    0.22   0
   6  -6  -3    0.19    0.15   0
  -6   6   3    0.15    0.14   0
   6  -6  -3    0.26    0.14   0
  -6   6   3    0.25    0.19   0
  -6   6   3    0.36    0.13   0
  -5   6   3    6.65    0.16   0
   5  -6  -3    6.16    0.16   0
   5  -6  -3    6.52    0.17   0
  -5   6   3    6.20    0.15   0
  -4   6   3    0.08    0.13   0
   4  -6  -3    0.02    0.14   0
   4  -6  -3    0.10    0.15   0
  -4   6   3   -0.05    0.13   0
  -3   6   3    0.27    0.13   0
  -3   6   3    0.21    0.14   0
   3  -6  -3    0.06    0.16   0
   3  -6  -3    0.27    0.11   0
   2  -6  -3    3.56    0.15   0
  -2   6   3    3.78    0.15   0
  -2   6   3    3.97    0.15   0
   2  -6  -3    3.82    0.18   0
   1  -6  -3    0.38    0.14   0
  -1   6   3    0.26    0.14   0
  -1   6   3    0.21    0.14   0
   1  -6  -3    0.36    0.16   0
   0  -6  -3    0.40    0.14   0
   0   6   3    0.31    0.14   0
   0  -6  -3    0.36    0.22   0
   0   6   3    0.29    0.18   0
  -1  -6  -3   13.83    0.45   0
   1   6   3   13.62    0.19   0
  -1  -6  -3   12.51    0.46   0
  -1  -6  -3   12.83    0.19   0
   2   6   3    1.86    0.17   0
  -2  -6  -3    1.74    0.18   0
  -3  -6  -3   16.40    0.26   0
   3   6   3   17.78    0.27   0
  -4  -6  -3    2.10    0.26   0
   4   6   3    2.09    0.12   0
   4   6   3    2.19    0.26   0
   5   6   3    2.36    0.15   0
   6   6   3    6.25    0.17   0
   9  -7  -3    1.75    0.13   0
  -9   7   3    1.69    0.14   0
   9  -7  -3    1.90    0.15   0
  -9   7   3    2.10    0.15   0
   8  -7  -3    2.49    0.15   0
   8  -7  -3    2.08    0.15   0
  -8   7   3    2.38    0.15   0
  -8   7   3    2.30    0.12   0
  -8   7   3    2.39    0.32   0
  -7   7   3    0.45    0.21   0
   7  -7  -3    0.48    0.14   0
  -7   7   3    0.39    0.13   0
  -7   7   3    0.64    0.13   0
   7  -7  -3    0.33    0.14   0
  -6   7   3    0.92    0.11   0
   6  -7  -3    0.91    0.14   0
   6  -7  -3    1.00    0.15   0
  -6   7   3    1.06    0.11   0
   5  -7  -3    0.50    0.15   0
   5  -7  -3    0.37    0.13   0
  -5   7   3    0.29    0.14   0
  -5   7   3    0.21    0.13   0
   4  -7  -3   24.34    0.23   0
   4  -7  -3   24.22    0.21   0
  -4   7   3   23.29    0.18   0
  -4   7   3   24.93    0.22   0
   3  -7  -3   16.88    0.21   0
  -3   7   3   17.22    0.19   0
  -3   7   3   18.40    0.20   0
   3  -7  -3   16.86    0.19   0
   2  -7  -3    4.18    0.15   0
   2  -7  -3    4.40    0.17   0
  -2   7   3    4.82    0.18   0
  -2   7   3    4.38    0.13   0
   1  -7  -3    2.10    0.20   0
  -1   7   3    2.11    0.14   0
   1  -7  -3    1.88    0.14   0
  -1   7   3    2.40    0.17   0
   0   7   3    0.14    0.18   0
   0  -7  -3    0.16    0.15   0
   0   7   3    0.09    0.13   0
   0  -7  -3    0.19    0.20   0
  -1  -7  -3    0.76    0.15   0
   1   7   3    0.79    0.16   0
   2   7   3    5.44    0.18   0
  -2  -7  -3    5.01    0.18   0
  -3  -7  -3    4.62    0.19   0
   3   7   3    4.67    0.20   0
   4   7   3    1.71    0.23   0
  -4  -7  -3    1.73    0.23   0
   4   7   3    2.03    0.14   0
   5   7   3    1.16    0.15   0
   6   7   3    0.13    0.15   0
  -9   8   3   -0.07    0.15   0
   9  -8  -3   -0.09    0.15   0
  -9   8   3    0.18    0.11   0
   9  -8  -3    0.30    0.15   0
   8  -8  -3    0.05    0.12   0
   8  -8  -3    0.36    0.14   0
  -8   8   3    0.25    0.14   0
  -8   8   3    0.26    0.22   0
  -8   8   3    0.05    0.11   0
   7  -8  -3    0.06    0.15   0
   7  -8  -3    0.23    0.13   0
  -7   8   3    0.43    0.13   0
  -7   8   3    0.05    0.18   0
  -7   8   3    0.32    0.13   0
   6  -8  -3    0.31    0.15   0
   6  -8  -3    0.07    0.14   0
  -6   8   3    0.08    0.13   0
  -6   8   3    0.19    0.11   0
   5  -8  -3    4.04    0.16   0
  -5   8   3    4.16    0.14   0
  -5   8   3    4.39    0.15   0
   5  -8  -3    4.32    0.15   0
   4  -8  -3    0.41    0.14   0
   4  -8  -3   -0.00    0.13   0
  -4   8   3    0.02    0.12   0
  -4   8   3    0.23    0.13   0
   3  -8  -3    5.62    0.15   0
   3  -8  -3    5.56    0.17   0
  -3   8   3    6.07    0.15   0
  -3   8   3    6.39    0.16   0
   2  -8  -3    2.48    0.18   0
  -2   8   3    2.60    0.12   0
  -2   8   3    2.51    0.16   0
   2  -8  -3    2.58    0.14   0
  -1   8   3    4.55    0.15   0
   1  -8  -3    4.07    0.15   0
   1  -8  -3    4.26    0.20   0
  -1   8   3    4.43    0.19   0
   0  -8  -3    9.18    0.16   0
   0  -8  -3    9.13    0.26   0
   0   8   3   10.40    0.25   0
   0   8   3   10.17    0.19   0
  -1  -8  -3    0.04    0.13   0
   1   8   3    0.07    0.15   0
  -2  -8  -3    0.24    0.17   0
   2   8   3    0.43    0.16   0
  -3  -8  -3    0.89    0.17   0
   3   8   3    0.85    0.18   0
   4   8   3    0.10    0.14   0
  -4  -8  -3    0.10    0.20   0
   4   8   3    0.06    0.21   0
   5   8   3    0.68    0.15   0
   8  -9  -3    2.31    0.17   0
   8  -9  -3    2.15    0.16   0
  -8   9   3    1.84    0.15   0
  -8   9   3    2.04    0.22   0
  -8   9   3    2.24    0.16   0
   7  -9  -3    2.33    0.16   0
   7  -9  -3    2.41    0.15   0
  -7   9   3    2.27    0.15   0
  -7   9   3    2.46    0.20   0
  -7   9   3    2.65    0.15   0
   6  -9  -3    3.87    0.13   0
   6  -9  -3    3.87    0.16   0
  -6   9   3    3.64    0.15   0
  -6   9   3    3.69    0.12   0
   5  -9  -3   -0.11    0.14   0
   5  -9  -3    0.13    0.13   0
  -5   9   3    0.02    0.13   0
  -5   9   3    0.03    0.13   0
   4  -9  -3    0.33    0.15   0
   4  -9  -3    0.37    0.11   0
  -4   9   3    0.43    0.13   0
  -4   9   3    0.43    0.14   0
   3  -9  -3    8.12    0.17   0
   3  -9  -3    8.61    0.16   0
  -3   9   3    9.26    0.19   0
  -3   9   3    8.61    0.16   0
   2  -9  -3    0.77    0.17   0
  -2   9   3    0.73    0.14   0
   2  -9  -3    0.83    0.14   0
  -2   9   3    0.90    0.15   0
   1  -9  -3    0.08    0.18   0
  -1   9   3    0.20    0.14   0
  -1   9   3    0.10    0.18   0
   1  -9  -3    0.24    0.13   0
   0  -9  -3   10.93    0.29   0
   0   9   3   12.10    0.18   0
   0  -9  -3   11.21    0.18   0
   0   9   3   11.97    0.27   0
   1   9   3    0.27    0.13   0
  -1  -9  -3    0.29    0.15   0
  -2  -9  -3    1.00    0.14   0
   2   9   3    1.02    0.16   0
   3   9   3    0.84    0.19   0
  -3  -9  -3    0.73    0.18   0
  -4  -9  -3    2.46    0.23   0
   4   9   3    2.43    0.24   0
   4   9   3    2.42    0.16   0
  -8  10   3    0.18    0.15   0
   7 -10  -3    0.44    0.16   0
  -7  10   3    0.48    0.17   0
  -7  10   3    0.57    0.15   0
   7 -10  -3    0.27    0.12   0
  -7  10   3    0.31    0.12   0
   6 -10  -3    0.65    0.15   0
   6 -10  -3    0.22    0.12   0
  -6  10   3    0.07    0.11   0
  -6  10   3    0.27    0.14   0
   5 -10  -3    0.59    0.15   0
   5 -10  -3    0.67    0.14   0
  -5  10   3    0.78    0.14   0
  -5  10   3    0.70    0.15   0
   4 -10  -3    8.81    0.18   0
  -4  10   3    9.36    0.18   0
   4 -10  -3    9.22    0.17   0
  -4  10   3    9.19    0.16   0
  -3  10   3    9.24    0.17   0
  -3  10   3    9.98    0.19   0
   3 -10  -3    9.07    0.17   0
   3 -10  -3    8.98    0.20   0
  -2  10   3    3.89    0.18   0
  -2  10   3    3.77    0.15   0
   2 -10  -3    3.55    0.19   0
   2 -10  -3    3.80    0.15   0
   1 -10  -3    0.45    0.19   0
  -1  10   3    0.34    0.14   0
   1 -10  -3    0.29    0.13   0
  -1  10   3    0.36    0.18   0
   0 -10  -3    0.81    0.22   0
   0  10   3    0.92    0.14   0
   0  10   3    0.91    0.23   0
   0 -10  -3    1.06    0.14   0
  -1 -10  -3    1.77    0.16   0
   1  10   3    1.82    0.14   0
  -2 -10  -3    0.25    0.16   0
   2  10   3    0.19    0.17   0
  -3 -10  -3    0.09    0.19   0
   3  10   3    0.18    0.18   0
  -7  11   3    0.11    0.15   0
   6 -11  -3    1.86    0.13   0
   6 -11  -3    1.76    0.16   0
  -6  11   3    1.75    0.12   0
  -6  11   3    1.77    0.15   0
   5 -11  -3    0.38    0.16   0
   5 -11  -3    0.72    0.14   0
  -5  11   3    0.24    0.14   0
  -5  11   3    0.38    0.15   0
   4 -11  -3    0.67    0.15   0
  -4  11   3    0.50    0.11   0
   4 -11  -3    0.46    0.14   0
  -4  11   3    0.45    0.14   0
  -3  11   3    1.39    0.15   0
   3 -11  -3    1.45    0.18   0
   3 -11  -3    1.36    0.14   0
  -3  11   3    1.69    0.17   0
   2 -11  -3    0.35    0.13   0
   2 -11  -3    0.31    0.17   0
  -2  11   3    0.46    0.14   0
  -2  11   3    0.38    0.16   0
   1 -11  -3    0.13    0.20   0
  -1  11   3    0.13    0.14   0
   1 -11  -3    0.01    0.14   0
  -1  11   3    0.28    0.20   0
   0 -11  -3    0.52    0.14   0
   0 -11  -3    0.44    0.28   0
   0  11   3    0.54    0.15   0
  -1 -11  -3    0.82    0.17   0
   1  11   3    0.67    0.17   0
   2  11   3    0.47    0.18   0
   5 -12  -3    0.42    0.16   0
  -5  12   3    0.32    0.15   0
   5 -12  -3    0.49    0.12   0
  -5  12   3    0.44    0.12   0
  -4  12   3    0.42    0.17   0
   4 -12  -3    0.30    0.16   0
  -4  12   3    0.27    0.12   0
   4 -12  -3    0.29    0.15   0
  -3  12   3    0.67    0.17   0
   3 -12  -3    0.53    0.16   0
   3 -12  -3    0.53    0.12   0
  -3  12   3    0.37    0.15   0
  -2  12   3    1.03    0.20   0
   2 -12  -3    1.01    0.21   0
  -2  12   3    1.16    0.12   0
   2 -12  -3    1.03    0.14   0
   1 -12  -3    1.56    0.23   0
  -1  12   3    1.71    0.16   0
  -1  12   3    1.67    0.23   0
   1 -12  -3    1.79    0.15   0
   0  13  -4    0.13    0.15   0
   0 -13   4    0.09    0.18   0
   0 -13   4    0.15    0.14   0
   0  13  -4   -0.06    0.20   0
  -1  13  -4    0.19    0.15   0
  -1  13  -4    0.26    0.17   0
   1 -13   4    0.28    0.14   0
   1 -13   4    0.35    0.18   0
   2 -13   4    0.94    0.18   0
  -2  13  -4    0.68    0.15   0
  -2  13  -4    0.77    0.15   0
   2 -13   4    0.74    0.14   0
   3 -13   4    0.17    0.15   0
  -3  13  -4   -0.12    0.14   0
   3 -13   4    0.01    0.14   0
  -3  13  -4   -0.01    0.15   0
  -4  13  -4   -0.05    0.14   0
   4 -13   4    0.08    0.15   0
   4 -13   4   -0.12    0.14   0
  -4  13  -4   -0.09    0.14   0
  -4  13  -4    0.22    0.15   0
  -2 -12   4    1.52    0.14   0
  -2 -12   4    1.16    0.21   0
   2  12  -4    1.38    0.17   0
   2  12  -4    1.31    0.20   0
  -1 -12   4    2.25    0.19   0
  -1 -12   4    2.52    0.17   0
   1  12  -4    2.22    0.15   0
   1  12  -4    2.32    0.21   0
   0 -12   4   -0.07    0.13   0
   0  12  -4    0.04    0.13   0
   0  12  -4    0.06    0.17   0
   0 -12   4    0.01    0.18   0
  -1  12  -4    0.28    0.13   0
   1 -12   4    0.04    0.13   0
   1 -12   4    0.11    0.17   0
  -1  12  -4    0.10    0.16   0
  -2  12  -4    2.60    0.15   0
   2 -12   4    2.90    0.18   0
   2 -12   4    2.83    0.15   0
  -2  12  -4    3.05    0.17   0
   3 -12   4    2.74    0.15   0
  -3  12  -4    2.48    0.12   0
   3 -12   4    3.00    0.14   0
  -3  12  -4    2.78    0.15   0
  -4  12  -4    0.30    0.13   0
   4 -12   4    0.31    0.15   0
   4 -12   4    0.39    0.14   0
  -4  12  -4    0.23    0.15   0
  -4  12  -4    0.25    0.14   0
  -5  12  -4   -0.07    0.12   0
  -5  12  -4    0.13    0.15   0
   5 -12   4    0.16    0.14   0
   5 -12   4    0.16    0.15   0
  -5  12  -4    0.20    0.14   0
   4  11  -4    0.14    0.15   0
  -3 -11   4    1.20    0.17   0
   3  11  -4    0.94    0.15   0
   3  11  -4    1.13    0.23   0
   3  11  -4    0.96    0.24   0
  -2 -11   4    1.10    0.19   0
   2  11  -4    0.69    0.14   0
   2  11  -4    0.95    0.19   0
  -2 -11   4    1.09    0.14   0
   1  11  -4   -0.11    0.16   0
  -1 -11   4    0.09    0.16   0
  -1 -11   4    0.21    0.13   0
   1  11  -4    0.00    0.13   0
   0  11  -4    2.15    0.15   0
   0 -11   4    2.43    0.17   0
   0 -11   4    2.23    0.14   0
   0  11  -4    2.23    0.17   0
   1 -11   4    3.59    0.18   0
  -1  11  -4    3.56    0.15   0
   1 -11   4    3.66    0.12   0
  -1  11  -4    3.91    0.18   0
  -2  11  -4    1.37    0.14   0
  -2  11  -4    1.48    0.11   0
   2 -11   4    1.34    0.15   0
   2 -11   4    1.76    0.14   0
   3 -11   4    1.37    0.15   0
   3 -11   4    1.49    0.13   0
  -3  11  -4    1.65    0.14   0
  -3  11  -4    1.59    0.11   0
  -4  11  -4    6.33    0.16   0
  -4  11  -4    6.10    0.15   0
   4 -11   4    5.86    0.17   0
   4 -11   4    6.26    0.15   0
  -4  11  -4    6.25    0.16   0
  -5  11  -4    0.60    0.14   0
   5 -11   4    0.46    0.14   0
   5 -11   4    0.84    0.15   0
  -5  11  -4    0.58    0.14   0
  -5  11  -4    0.56    0.14   0
  -6  11  -4    0.16    0.14   0
  -6  11  -4    0.39    0.14   0
   6 -11   4    0.16    0.14   0
  -6  11  -4    0.19    0.14   0
   6 -11   4    0.15    0.15   0
   5  10  -4    0.02    0.20   0
   5  10  -4    0.14    0.17   0
   4  10  -4    0.03    0.16   0
   4  10  -4    0.16    0.26   0
   4  10  -4    0.20    0.27   0
   3  10  -4    0.04    0.14   0
   3  10  -4    0.14    0.20   0
  -3 -10   4    0.21    0.15   0
   3  10  -4    0.10    0.20   0
   2  10  -4    0.17    0.18   0
  -2 -10   4    0.38    0.18   0
   2  10  -4    0.15    0.16   0
  -2 -10   4    0.08    0.13   0
   1  10  -4    1.29    0.17   0
  -1 -10   4    1.40    0.17   0
   1  10  -4    1.30    0.13   0
  -1 -10   4    0.83    0.13   0
   0 -10   4    0.09    0.14   0
   0  10  -4    0.25    0.13   0
   0  10  -4    0.15    0.15   0
   0 -10   4   -0.01    0.13   0
   1 -10   4    3.18    0.12   0
  -1  10  -4    2.84    0.12   0
  -1  10  -4    2.85    0.15   0
   1 -10   4    3.10    0.15   0
  -2  10  -4    0.59    0.16   0
   2 -10   4    0.49    0.14   0
   2 -10   4    0.62    0.13   0
  -2  10  -4    0.63    0.13   0
  -3  10  -4    0.03    0.13   0
   3 -10   4   -0.11    0.13   0
   3 -10   4   -0.00    0.12   0
  -3  10  -4    0.05    0.12   0
  -4  10  -4    0.99    0.14   0
   4 -10   4    1.12    0.13   0
  -4  10  -4    1.18    0.13   0
  -4  10  -4    1.10    0.14   0
   4 -10   4    1.00    0.15   0
  -5  10  -4    3.16    0.15   0
   5 -10   4    2.97    0.15   0
  -5  10  -4    3.22    0.15   0
   5 -10   4    3.69    0.14   0
  -5  10  -4    3.35    0.15   0
  -6  10  -4    0.04    0.14   0
   6 -10   4    0.05    0.14   0
  -6  10  -4    0.03    0.16   0
   6 -10   4    0.01    0.14   0
  -6  10  -4   -0.16    0.12   0
  -7  10  -4    3.22    0.15   0
   7 -10   4    2.78    0.16   0
  -7  10  -4    3.15    0.15   0
   7 -10   4    3.04    0.16   0
  -7  10  -4    3.24    0.16   0
   6   9  -4   -0.07    0.19   0
   6   9  -4    0.11    0.19   0
   5   9  -4    0.16    0.30   0
   5   9  -4    0.02    0.16   0
   5   9  -4    0.15    0.29   0
   5   9  -4    0.15    0.18   0
   4   9  -4    0.11    0.13   0
   4   9  -4    0.13    0.21   0
   4   9  -4    0.06    0.21   0
  -3  -9   4    9.67    0.18   0
   3   9  -4    8.43    0.23   0
   3   9  -4    8.84    0.19   0
   3   9  -4    8.38    0.24   0
   2   9  -4    0.44    0.14   0
  -2  -9   4    0.36    0.19   0
   2   9  -4    0.27    0.17   0
  -2  -9   4    0.18    0.13   0
  -1  -9   4    7.93    0.16   0
   1   9  -4    7.39    0.16   0
   1   9  -4    7.22    0.20   0
  -1  -9   4    7.86    0.20   0
   0  -9   4   19.60    0.21   0
   0   9  -4   19.83    0.19   0
   0  -9   4   19.79    0.17   0
   0   9  -4   18.64    0.21   0
   1  -9   4    4.07    0.16   0
  -1   9  -4    4.10    0.15   0
  -1   9  -4    3.82    0.13   0
   1  -9   4    3.96    0.14   0
  -2   9  -4    4.09    0.16   0
   2  -9   4    3.96    0.16   0
  -2   9  -4    3.84    0.14   0
   2  -9   4    3.93    0.14   0
   3  -9   4   -0.06    0.14   0
  -3   9  -4    0.29    0.13   0
   3  -9   4   -0.08    0.10   0
  -3   9  -4    0.06    0.14   0
   4  -9   4    1.91    0.15   0
  -4   9  -4    2.06    0.12   0
   4  -9   4    2.25    0.14   0
  -4   9  -4    1.93    0.14   0
  -4   9  -4    2.08    0.15   0
   5  -9   4    9.33    0.15   0
  -5   9  -4    9.29    0.14   0
  -5   9  -4    9.69    0.17   0
   5  -9   4    9.83    0.17   0
  -5   9  -4    9.30    0.17   0
   6  -9   4    0.24    0.11   0
  -6   9  -4    0.21    0.13   0
   6  -9   4    0.37    0.14   0
  -6   9  -4    0.02    0.13   0
  -6   9  -4    0.16    0.13   0
   7  -9   4    0.73    0.15   0
   7  -9   4    0.94    0.14   0
  -7   9  -4    0.68    0.17   0
  -7   9  -4    0.88    0.14   0
  -7   9  -4    0.71    0.14   0
  -8   9  -4    0.10    0.14   0
   8  -9   4    0.09    0.15   0
  -8   9  -4    0.34    0.14   0
   8  -9   4    0.30    0.15   0
  -8   9  -4    0.15    0.16   0
   7   8  -4    0.04    0.26   0
   7   8  -4    0.04    0.27   0
   6   8  -4    0.27    0.27   0
   6   8  -4    0.36    0.20   0
   6   8  -4    0.35    0.18   0
   6   8  -4    0.27    0.28   0
   5   8  -4    0.33    0.21   0
   5   8  -4    0.37    0.15   0
   5   8  -4    0.30    0.15   0
   5   8  -4    0.44    0.24   0
   4   8  -4    0.12    0.20   0
   4   8  -4    0.01    0.13   0
   4   8  -4    0.19    0.16   0
   4   8  -4   -0.04    0.18   0
   3   8  -4    3.64    0.21   0
  -3  -8   4    4.32    0.17   0
   3   8  -4    3.59    0.20   0
   3   8  -4    3.81    0.17   0
  -2  -8   4    5.64    0.19   0
   2   8  -4    5.23    0.20   0
   2   8  -4    5.18    0.15   0
  -2  -8   4    5.57    0.15   0
  -1  -8   4   30.74    0.28   0
   1   8  -4   28.46    0.22   0
  -1  -8   4   29.66    0.22   0
   1   8  -4   28.65    0.27   0
   0   8  -4   16.97    0.17   0
   0   8  -4   16.96    0.21   0
   0  -8   4   17.51    0.22   0
   0  -8   4   17.85    0.17   0
   1  -8   4   11.09    0.18   0
  -1   8  -4   11.47    0.21   0
  -1   8  -4   11.01    0.15   0
   1  -8   4   11.55    0.17   0
   2  -8   4   31.22    0.24   0
  -2   8  -4   32.56    0.20   0
   2  -8   4   33.18    0.22   0
  -2   8  -4   32.44    0.23   0
   3  -8   4    1.53    0.15   0
  -3   8  -4    1.71    0.14   0
  -3   8  -4    1.78    0.14   0
   3  -8   4    1.68    0.14   0
  -3   8  -4    1.49    0.12   0
  -4   8  -4    0.77    0.13   0
   4  -8   4    0.54    0.14   0
  -4   8  -4    0.91    0.13   0
   4  -8   4    0.96    0.11   0
  -4   8  -4    0.53    0.14   0
  -5   8  -4   -0.03    0.13   0
   5  -8   4   -0.06    0.14   0
  -5   8  -4    0.28    0.13   0
  -5   8  -4    0.05    0.13   0
   5  -8   4    0.18    0.13   0
  -6   8  -4    1.68    0.14   0
  -6   8  -4    1.92    0.14   0
   6  -8   4    1.84    0.14   0
   6  -8   4    2.07    0.14   0
  -6   8  -4    1.92    0.13   0
   7  -8   4    1.45    0.14   0
   7  -8   4    1.70    0.17   0
  -7   8  -4    1.60    0.14   0
  -7   8  -4    1.48    0.17   0
  -7   8  -4    1.58    0.15   0
  -8   8  -4   -0.14    0.12   0
   8  -8   4   -0.25    0.15   0
  -8   8  -4    0.40    0.14   0
  -8   8  -4    0.01    0.15   0
   8  -8   4    0.11    0.15   0
   7   7  -4    0.85    0.25   0
   7   7  -4    0.73    0.25   0
   7   7  -4    0.64    0.22   0
   7   7  -4    0.60    0.23   0
   6   7  -4    0.65    0.21   0
   6   7  -4    0.77    0.18   0
   6   7  -4    0.83    0.19   0
   6   7  -4    0.86    0.22   0
   5   7  -4    0.46    0.20   0
   5   7  -4    0.46    0.19   0
   5   7  -4    0.43    0.16   0
   5   7  -4    0.38    0.16   0
   4   7  -4    0.08    0.18   0
   4   7  -4    0.05    0.17   0
   4   7  -4    0.07    0.16   0
   4   7  -4    0.05    0.15   0
   3   7  -4    3.23    0.18   0
   3   7  -4    2.93    0.20   0
  -3  -7   4    3.63    0.16   0
   3   7  -4    3.16    0.14   0
   2   7  -4   38.84    0.30   0
   2   7  -4   39.93    0.26   0
  -2  -7   4   43.33    0.31   0
  -2  -7   4   42.80    0.25   0
   1   7  -4    3.66    0.15   0
   1   7  -4    3.81    0.19   0
  -1  -7   4    3.70    0.15   0
  -1  -7   4    4.05    0.17   0
   0   7  -4   37.54    0.26   0
   0  -7   4   39.66    0.28   0
   0   7  -4   38.08    0.23   0
   0  -7   4   39.93    0.24   0
   1  -7   4   40.81    0.26   0
  -1   7  -4   40.75    0.23   0
   1  -7   4   42.53    0.24   0
  -1   7  -4   40.57    0.26   0
  -2   7  -4   11.85    0.17   0
   2  -7   4   11.28    0.18   0
   2  -7   4   11.98    0.16   0
  -2   7  -4   11.93    0.18   0
  -3   7  -4    3.57    0.15   0
   3  -7   4    3.79    0.15   0
  -3   7  -4    3.75    0.14   0
   3  -7   4    3.57    0.14   0
  -3   7  -4    3.91    0.14   0
  -4   7  -4   11.65    0.17   0
   4  -7   4   11.08    0.17   0
  -4   7  -4   10.72    0.17   0
  -4   7  -4   11.11    0.17   0
   4  -7   4   11.98    0.17   0
   5  -7   4    4.76    0.15   0
  -5   7  -4    4.78    0.15   0
  -5   7  -4    4.90    0.15   0
   5  -7   4    5.13    0.15   0
  -5   7  -4    5.07    0.15   0
   6  -7   4    4.62    0.15   0
  -6   7  -4    4.32    0.15   0
   6  -7   4    4.72    0.15   0
  -6   7  -4    4.36    0.17   0
  -6   7  -4    4.69    0.15   0
  -7   7  -4    4.37    0.15   0
   7  -7   4    3.68    0.16   0
  -7   7  -4    3.95    0.16   0
  -7   7  -4    4.35    0.18   0
   7  -7   4    4.53    0.16   0
  -8   7  -4    0.53    0.17   0
   8  -7   4    0.52    0.15   0
  -8   7  -4    0.45    0.12   0
   8  -7   4    0.43    0.14   0
  -8   7  -4    0.28    0.14   0
   8   6  -4    1.62    0.25   0
   8   6  -4    1.66    0.24   0
   8   6  -4    1.74    0.19   0
   7   6  -4    0.22    0.21   0
   7   6  -4    0.07    0.22   0
   7   6  -4    0.12    0.21   0
   7   6  -4    0.12    0.19   0
   6   6  -4    1.09    0.19   0
   6   6  -4    1.29    0.18   0
   6   6  -4    1.23    0.18   0
   6   6  -4    1.22    0.18   0
   5   6  -4    1.68    0.16   0
   5   6  -4    1.60    0.17   0
   5   6  -4    2.00    0.18   0
   5   6  -4    1.87    0.18   0
   4   6  -4    3.35    0.19   0
   4   6  -4    3.15    0.18   0
   4   6  -4    3.38    0.17   0
   4   6  -4    3.27    0.17   0
   3   6  -4   16.91    0.20   0
   3   6  -4   16.62    0.25   0
   3   6  -4   16.69    0.24   0
  -2  -6   4    6.86    0.20   0
  -2  -6   4    7.28    0.17   0
   2   6  -4    6.56    0.19   0
   2   6  -4    6.02    0.19   0
   1   6  -4   24.29    0.21   0
  -1  -6   4   25.36    0.25   0
  -1  -6   4   24.96    0.21   0
   1   6  -4   22.61    0.25   0
   0  -6   4   14.05    0.17   0
   0  -6   4   13.65    0.20   0
   0   6  -4   13.63    0.16   0
   0   6  -4   12.72    0.20   0
   1  -6   4    7.61    0.13   0
   1  -6   4    7.51    0.18   0
  -1   6  -4    7.33    0.18   0
  -1   6  -4    7.30    0.16   0
  -2   6  -4   14.47    0.19   0
   2  -6   4   14.11    0.19   0
  -2   6  -4   15.04    0.18   0
  -2   6  -4   14.73    0.18   0
   2  -6   4   15.48    0.16   0
  -3   6  -4   16.03    0.19   0
  -3   6  -4   16.05    0.19   0
   3  -6   4   17.33    0.19   0
  -3   6  -4   15.82    0.19   0
   3  -6   4   15.47    0.19   0
   4  -6   4    2.77    0.16   0
  -4   6  -4    2.94    0.16   0
   4  -6   4    2.92    0.15   0
  -4   6  -4    2.83    0.15   0
  -4   6  -4    2.76    0.15   0
  -5   6  -4   17.93    0.18   0
   5  -6   4   16.12    0.19   0
  -5   6  -4   17.12    0.18   0
   5  -6   4   17.67    0.19   0
  -5   6  -4   17.52    0.19   0
   6  -6   4    2.30    0.15   0
  -6   6  -4    2.19    0.14   0
  -6   6  -4    2.39    0.14   0
   6  -6   4    1.80    0.12   0
  -6   6  -4    1.82    0.17   0
   7  -6   4    1.84    0.13   0
  -7   6  -4    1.91    0.16   0
  -7   6  -4    1.66    0.12   0
   7  -6   4    2.07    0.14   0
  -7   6  -4    1.82    0.15   0
   8  -6   4    2.49    0.16   0
  -8   6  -4    2.32    0.18   0
  -8   6  -4    2.42    0.17   0
   8  -6   4    2.57    0.18   0
  -8   6  -4    2.26    0.14   0
   9  -6   4    0.19    0.16   0
   9  -6   4    0.28    0.17   0
  -9   6  -4    0.02    0.17   0
  -9   6  -4    0.14    0.15   0
  -9   6  -4    0.23    0.18   0
   8   5  -4    0.80    0.21   0
   8   5  -4    0.71    0.18   0
   8   5  -4    0.69    0.20   0
   7   5  -4    1.28    0.17   0
   7   5  -4    1.48    0.19   0
   7   5  -4    1.13    0.19   0
   7   5  -4    1.13    0.20   0
   6   5  -4    0.10    0.16   0
   6   5  -4    0.20    0.18   0
   6   5  -4    0.14    0.17   0
   6   5  -4    0.04    0.17   0
   5   5  -4    3.27    0.19   0
   5   5  -4    2.95    0.18   0
   5   5  -4    3.20    0.17   0
   5   5  -4    2.90    0.18   0
   4   5  -4   14.74    0.23   0
   4   5  -4   14.50    0.22   0
   4   5  -4   14.48    0.25   0
   4   5  -4   13.85    0.22   0
   3   5  -4   28.71    0.26   0
   3   5  -4   29.15    0.23   0
   3   5  -4   28.55    0.24   0
   3   5  -4   29.00    0.27   0
  -2  -5   4    0.13    0.16   0
   2   5  -4    0.11    0.13   0
  -2  -5   4    0.03    0.13   0
   2   5  -4   -0.02    0.17   0
  -1  -5   4    0.15    0.14   0
   1   5  -4    0.03    0.15   0
   1   5  -4    0.10    0.14   0
  -1  -5   4    0.12    0.13   0
   0   5  -4   49.24    0.27   0
   0   5  -4   46.77    0.29   0
   0  -5   4   49.96    0.25   0
   0  -5   4   49.69    0.29   0
  -1   5  -4    0.10    0.17   0
   1  -5   4    0.09    0.16   0
  -1   5  -4    0.07    0.11   0
   1  -5   4   -0.00    0.14   0
  -2   5  -4   85.88    0.34   0
  -2   5  -4   82.74    0.32   0
   2  -5   4   89.06    0.32   0
  -2   5  -4   84.33    0.33   0
   2  -5   4   82.87    0.33   0
  -3   5  -4   46.92    0.25   0
  -3   5  -4   48.50    0.27   0
   3  -5   4   51.10    0.27   0
   3  -5   4   45.53    0.24   0
  -3   5  -4   46.91    0.26   0
  -4   5  -4    0.40    0.14   0
  -4   5  -4    0.55    0.14   0
   4  -5   4    0.37    0.12   0
  -4   5  -4    0.42    0.16   0
   4  -5   4    0.64    0.14   0
   5  -5   4    0.69    0.16   0
  -5   5  -4    0.71    0.14   0
  -5   5  -4    0.81    0.15   0
   5  -5   4    0.46    0.14   0
  -5   5  -4    0.50    0.14   0
   6  -5   4   10.25    0.18   0
  -6   5  -4   10.82    0.17   0
   6  -5   4   11.81    0.18   0
  -6   5  -4   11.24    0.20   0
  -6   5  -4   10.24    0.19   0
   7  -5   4   10.56    0.16   0
  -7   5  -4   11.55    0.21   0
   7  -5   4   11.58    0.21   0
  -7   5  -4   10.89    0.17   0
  -7   5  -4   10.77    0.20   0
  -8   5  -4    0.63    0.17   0
   8  -5   4    0.55    0.14   0
   8  -5   4    0.69    0.16   0
  -8   5  -4    0.51    0.18   0
  -8   5  -4    0.47    0.14   0
   9  -5   4    1.51    0.16   0
   9  -5   4    1.63    0.18   0
  -9   5  -4    1.79    0.20   0
  -9   5  -4    1.80    0.15   0
  -9   5  -4    1.90    0.19   0
   9   4  -4    0.41    0.21   0
   9   4  -4    0.25    0.19   0
   9   4  -4    0.49    0.21   0
   8   4  -4    0.10    0.17   0
   8   4  -4    0.17    0.17   0
   8   4  -4    0.05    0.25   0
   8   4  -4    0.15    0.26   0
   8   4  -4    0.08    0.17   0
   7   4  -4    1.56    0.18   0
   7   4  -4    1.22    0.20   0
   7   4  -4    1.44    0.17   0
   7   4  -4    1.16    0.19   0
   6   4  -4    4.84    0.18   0
   6   4  -4    5.08    0.19   0
   6   4  -4    5.01    0.20   0
   6   4  -4    4.83    0.19   0
   5   4  -4    1.07    0.17   0
   5   4  -4    1.15    0.18   0
   5   4  -4    1.16    0.18   0
   5   4  -4    0.95    0.17   0
   4   4  -4    1.27    0.14   0
   4   4  -4    1.08    0.15   0
   4   4  -4    0.93    0.15   0
   4   4  -4    1.19    0.15   0
   3   4  -4   40.04    0.27   0
   3   4  -4   42.01    0.30   0
   3   4  -4   42.79    0.30   0
   3   4  -4   41.64    0.29   0
   2   4  -4    0.32    0.15   0
   2   4  -4    0.15    0.13   0
  -2  -4   4    0.13    0.14   0
   1   4  -4    6.98    0.18   0
  -1  -4   4    7.42    0.18   0
  -1  -4   4    7.27    0.17   0
   1   4  -4    6.91    0.17   0
   0  -4   4  417.77    0.77   0
   0   4  -4  428.29    0.72   0
   0  -4   4  443.22    0.73   0
   0   4  -4  400.73    0.74   0
  -1   4  -4    1.72    0.14   0
  -1   4  -4    1.68    0.15   0
   1  -4   4    1.82    0.15   0
   1  -4   4    1.64    0.14   0
  -1   4  -4    1.85    0.15   0
  -2   4  -4    1.65    0.16   0
  -2   4  -4    1.62    0.15   0
  -2   4  -4    1.67    0.15   0
   2  -4   4    1.60    0.16   0
   2  -4   4    1.70    0.15   0
   3  -4   4    0.38    0.14   0
  -3   4  -4    0.26    0.14   0
   3  -4   4    0.36    0.14   0
  -3   4  -4    0.26    0.11   0
  -3   4  -4    0.32    0.14   0
   4  -4   4    4.82    0.16   0
   4  -4   4    4.94    0.15   0
  -4   4  -4    4.83    0.16   0
   4  -4   4    5.11    0.16   0
  -4   4  -4    4.71    0.17   0
  -4   4  -4    4.93    0.16   0
  -5   4  -4   12.11    0.18   0
   5  -4   4   12.81    0.19   0
   5  -4   4   11.76    0.19   0
   5  -4   4   12.68    0.20   0
  -5   4  -4   11.41    0.20   0
  -5   4  -4   13.03    0.19   0
  -6   4  -4    2.19    0.16   0
   6  -4   4    2.17    0.17   0
   6  -4   4    2.33    0.14   0
   6  -4   4    2.25    0.15   0
  -6   4  -4    2.30    0.14   0
  -6   4  -4    2.05    0.12   0
  -7   4  -4    7.60    0.17   0
   7  -4   4    7.72    0.18   0
   7  -4   4    8.40    0.20   0
   7  -4   4    8.06    0.17   0
  -7   4  -4    8.57    0.18   0
  -7   4  -4    7.78    0.20   0
   8  -4   4    6.08    0.17   0
  -8   4  -4    6.43    0.17   0
  -8   4  -4    6.17    0.22   0
   8  -4   4    6.32    0.21   0
  -8   4  -4    6.58    0.19   0
   9  -4   4    0.41    0.21   0
   9  -4   4    0.25    0.16   0
  -9   4  -4    0.33    0.22   0
  -9   4  -4    0.71    0.15   0
   9   3  -4    0.63    0.18   0
   9   3  -4    0.78    0.23   0
   9   3  -4    0.52    0.19   0
   8   3  -4    0.07    0.22   0
   8   3  -4    0.04    0.17   0
   8   3  -4    0.13    0.19   0
   8   3  -4    0.19    0.22   0
   7   3  -4    0.69    0.16   0
   7   3  -4    0.66    0.19   0
   7   3  -4    0.65    0.19   0
   7   3  -4    0.66    0.19   0
   6   3  -4    0.85    0.15   0
   6   3  -4    0.96    0.18   0
   6   3  -4    0.76    0.15   0
   6   3  -4    0.81    0.17   0
   5   3  -4   11.51    0.19   0
   5   3  -4   11.40    0.20   0
   5   3  -4   11.23    0.23   0
   5   3  -4   11.69    0.21   0
   4   3  -4   17.80    0.23   0
   4   3  -4   18.31    0.21   0
   4   3  -4   17.50    0.22   0
   4   3  -4   17.82    0.22   0
   3   3  -4   19.76    0.22   0
   3   3  -4   20.24    0.22   0
   3   3  -4   20.12    0.24   0
   3   3  -4   20.48    0.22   0
   2   3  -4   86.85    0.39   0
  -2  -3   4   91.15    0.40   0
   2   3  -4   87.41    0.37   0
   2   3  -4   91.26    0.38   0
   1   3  -4   47.50    0.31   0
  -1  -3   4   52.66    0.30   0
   1   3  -4   49.74    0.30   0
  -1  -3   4   50.41    0.32   0
   0   3  -4   72.50    0.35   0
   0   3  -4   76.99    0.35   0
   0   3  -4   75.12    0.35   0
   0  -3   4   80.97    0.36   0
   0  -3   4   75.70    0.37   0
  -1   3  -4   69.63    0.33   0
   1  -3   4   71.27    0.34   0
  -1   3  -4   70.96    0.33   0
   1  -3   4   76.57    0.35   0
  -1   3  -4   73.90    0.34   0
  -2   3  -4    1.22    0.14   0
   2  -3   4    1.38    0.15   0
   2  -3   4    1.39    0.14   0
   2  -3   4    1.15    0.14   0
  -2   3  -4    1.17    0.16   0
  -2   3  -4    1.21    0.14   0
  -3   3  -4    2.54    0.15   0
   3  -3   4    2.61    0.15   0
  -3   3  -4    2.50    0.13   0
  -3   3  -4    2.50    0.13   0
   3  -3   4    2.70    0.14   0
   3  -3   4    2.22    0.16   0
   4  -3   4    0.62    0.13   0
  -4   3  -4    0.59    0.13   0
   4  -3   4    0.71    0.15   0
  -4   3  -4    0.63    0.15   0
   4  -3   4    0.76    0.16   0
  -4   3  -4    0.71    0.15   0
   5  -3   4    4.93    0.17   0
  -5   3  -4    5.20    0.18   0
  -5   3  -4    5.59    0.16   0
   5  -3   4    5.40    0.15   0
  -5   3  -4    5.07    0.16   0
   5  -3   4    5.61    0.18   0
  -6   3  -4    0.38    0.13   0
  -6   3  -4    0.11    0.15   0
   6  -3   4   -0.06    0.14   0
   6  -3   4    0.10    0.15   0
   6  -3   4    0.25    0.13   0
  -6   3  -4    0.36    0.13   0
  -7   3  -4    1.93    0.15   0
   7  -3   4    1.80    0.15   0
   7  -3   4    1.91    0.14   0
   7  -3   4    2.07    0.18   0
  -7   3  -4    1.79    0.18   0
  -7   3  -4    2.01    0.14   0
   8  -3   4    2.36    0.18   0
  -8   3  -4    2.41    0.18   0
   8  -3   4    2.33    0.18   0
  -8   3  -4    2.33    0.24   0
  -9   3  -4    3.98    0.35   0
   9  -3   4    3.65    0.20   0
   9  -3   4    4.28    0.20   0
  -9   3  -4    3.95    0.38   0
  -9   3  -4    4.14    0.19   0
   9   2  -4    1.44    0.27   0
   9   2  -4    1.48    0.16   0
   9   2  -4    1.34    0.26   0
  -9  -2   4    1.60    0.18   0
   9   2  -4    1.48    0.26   0
   8   2  -4    0.35    0.19   0
   8   2  -4    0.35    0.22   0
   8   2  -4    0.52    0.19   0
  -8  -2   4    0.22    0.14   0
   8   2  -4    0.38    0.14   0
   7   2  -4    0.98    0.18   0
  -7  -2   4    1.30    0.14   0
   7   2  -4    1.14    0.21   0
   7   2  -4    1.06    0.19   0
   7   2  -4    1.12    0.16   0
   6   2  -4   13.35    0.24   0
  -6  -2   4   14.06    0.22   0
   6   2  -4   12.98    0.19   0
   5   2  -4    3.42    0.18   0
  -5  -2   4    3.60    0.17   0
   5   2  -4    3.81    0.15   0
   4   2  -4    1.83    0.15   0
   4   2  -4    2.27    0.15   0
   3   2  -4    5.45    0.18   0
   3   2  -4    5.30    0.17   0
   3   2  -4    5.11    0.16   0
   2   2  -4    3.29    0.16   0
   2   2  -4    3.41    0.17   0
   2   2  -4    3.44    0.17   0
  -1  -2   4   25.39    0.26   0
   1   2  -4   23.86    0.26   0
   1   2  -4   24.57    0.26   0
   1   2  -4   24.60    0.25   0
   1   2  -4   24.83    0.24   0
   0   2  -4   10.21    0.23   0
   0   2  -4   11.21    0.20   0
   0   2  -4   10.88    0.20   0
   0  -2   4   11.01    0.20   0
   0  -2   4   10.35    0.19   0
  -1   2  -4  125.84    0.46   0
   1  -2   4  120.45    0.45   0
   1  -2   4  122.56    0.44   0
   1  -2   4  132.78    0.47   0
  -1   2  -4  119.97    0.43   0
  -1   2  -4  118.63    0.43   0
  -2   2  -4   37.16    0.27   0
   2  -2   4   36.92    0.27   0
  -2   2  -4   38.50    0.28   0
   2  -2   4   41.25    0.28   0
   2  -2   4   38.44    0.26   0
  -2   2  -4   39.40    0.27   0
  -3   2  -4    6.18    0.17   0
   3  -2   4    6.12    0.18   0
   3  -2   4    5.74    0.18   0
  -3   2  -4    5.74    0.17   0
   3  -2   4    6.26    0.17   0
  -3   2  -4    5.67    0.18   0
  -4   2  -4    1.53    0.16   0
   4  -2   4    1.60    0.19   0
  -4   2  -4    1.55    0.16   0
   4  -2   4    1.73    0.15   0
   4  -2   4    1.81    0.16   0
  -4   2  -4    1.59    0.15   0
  -5   2  -4    0.34    0.14   0
   5  -2   4    0.17    0.15   0
   5  -2   4    0.04    0.14   0
   5  -2   4    0.12    0.17   0
  -5   2  -4    0.01    0.14   0
  -5   2  -4    0.08    0.17   0
  -6   2  -4    2.34    0.14   0
   6  -2   4    2.16    0.15   0
   6  -2   4    2.51    0.19   0
  -6   2  -4    2.26    0.19   0
   6  -2   4    2.32    0.16   0
  -6   2  -4    2.25    0.14   0
  -7   2  -4    0.18    0.23   0
   7  -2   4    0.16    0.15   0
   7  -2   4    0.12    0.14   0
  -7   2  -4    0.30    0.16   0
   8  -2   4    3.67    0.19   0
   8  -2   4    3.77    0.16   0
  -8   2  -4    4.04    0.16   0
  -9   2  -4    1.11    0.18   0
   9  -2   4    1.45    0.19   0
   9  -2   4    1.55    0.18   0
  10   1  -4    0.37    0.18   0
  10   1  -4    0.33    0.27   0
  -9  -1   4    0.74    0.16   0
   9   1  -4    0.58    0.22   0
   9   1  -4    0.86    0.22   0
   9   1  -4    0.89    0.15   0
   8   1  -4    0.05    0.18   0
   8   1  -4    0.04    0.28   0
  -8  -1   4    0.08    0.15   0
   8   1  -4    0.17    0.14   0
  -7  -1   4    0.87    0.17   0
  -7  -1   4    0.71    0.16   0
   7   1  -4    0.71    0.14   0
   7   1  -4    0.74    0.27   0
   7   1  -4    0.71    0.18   0
  -6  -1   4   40.12    0.31   0
   6   1  -4   41.90    0.32   0
  -6  -1   4   43.64    0.27   0
   6   1  -4   42.94    0.48   0
   6   1  -4   41.06    0.26   0
   5   1  -4   14.01    0.20   0
   5   1  -4   14.33    0.22   0
  -5  -1   4   13.48    0.21   0
  -5  -1   4   14.72    0.20   0
  -4  -1   4   26.06    0.24   0
   4   1  -4   26.44    0.26   0
  -4  -1   4   26.37    0.24   0
   4   1  -4   26.33    0.23   0
  -3  -1   4    4.26    0.18   0
   3   1  -4    4.28    0.16   0
   3   1  -4    4.59    0.16   0
   3   1  -4    4.13    0.21   0
  -3  -1   4    4.60    0.17   0
   2   1  -4    8.46    0.19   0
   2   1  -4    8.52    0.24   0
  -2  -1   4    8.73    0.19   0
   2   1  -4    8.70    0.17   0
   2   1  -4    8.79    0.19   0
  -1  -1   4   44.52    0.32   0
   1   1  -4   43.04    0.30   0
   1   1  -4   42.76    0.32   0
  -1  -1   4   43.76    0.32   0
  -1  -1   4   42.99    0.34   0
   1   1  -4   42.83    0.35   0
   0   1  -4   34.17    0.29   0
   0   1  -4   32.16    0.28   0
   0  -1   4   34.08    0.30   0
   0  -1   4   33.24    0.27   0
   0   1  -4   33.64    0.28   0
  -1   1  -4   11.71    0.23   0
   1  -1   4   11.35    0.22   0
  -1   1  -4   11.06    0.22   0
  -1   1  -4   11.98    0.21   0
   1  -1   4   11.53    0.18   0
  -1   1  -4   11.85    0.21   0
  -2   1  -4   21.31    0.25   0
  -2   1  -4   19.96    0.23   0
  -2   1  -4   21.54    0.22   0
   2  -1   4   20.20    0.23   0
   2  -1   4   21.52    0.23   0
  -2   1  -4   20.69    0.25   0
  -3   1  -4   36.50    0.32   0
  -3   1  -4   34.89    0.31   0
   3  -1   4   33.72    0.26   0
  -3   1  -4   37.18    0.26   0
  -3   1  -4   34.02    0.28   0
   3  -1   4   38.21    0.27   0
   4  -1   4    1.47    0.18   0
  -4   1  -4    1.28    0.15   0
  -4   1  -4    1.48    0.18   0
   4  -1   4    1.52    0.15   0
  -4   1  -4    1.34    0.19   0
  -4   1  -4    1.54    0.15   0
  -5   1  -4    1.94    0.20   0
  -5   1  -4    1.69    0.21   0
  -5   1  -4    1.79    0.14   0
   5  -1   4    2.12    0.14   0
  -5   1  -4    1.92    0.14   0
   5  -1   4    1.65    0.17   0
  -6   1  -4   18.39    0.40   0
   6  -1   4   17.59    0.21   0
  -6   1  -4   17.65    0.20   0
   6  -1   4   19.17    0.23   0
  -6   1  -4   18.44    0.41   0
   7  -1   4   10.53    0.21   0
   7  -1   4   11.88    0.21   0
  -7   1  -4   11.39    0.18   0
   8  -1   4    0.18    0.15   0
   8  -1   4    0.30    0.17   0
  -8   1  -4   -0.03    0.14   0
   9  -1   4    0.65    0.19   0
   9  -1   4    0.74    0.18   0
  -9   1  -4    0.60    0.18   0
  10   0  -4    0.08    0.16   0
 -10   0   4   -0.09    0.15   0
  10   0  -4    0.12    0.23   0
  -9   0   4    0.15    0.16   0
   9   0  -4   -0.02    0.18   0
  -9   0   4    0.13    0.18   0
   9   0  -4    0.20    0.15   0
   8   0  -4    6.26    0.19   0
  -8   0   4    6.58    0.21   0
   8   0  -4    6.45    0.17   0
  -8   0   4    6.84    0.17   0
   7   0  -4    7.84    0.16   0
  -7   0   4    7.30    0.19   0
   7   0  -4    7.48    0.19   0
  -7   0   4    7.70    0.16   0
  -6   0   4   23.29    0.22   0
   6   0  -4   22.97    0.24   0
  -6   0   4   22.95    0.23   0
   6   0  -4   23.59    0.22   0
   5   0  -4    0.14    0.15   0
   5   0  -4    0.17    0.14   0
  -5   0   4    0.12    0.13   0
  -5   0   4    0.08    0.15   0
  -4   0   4    1.86    0.17   0
  -4   0   4    2.02    0.15   0
   4   0  -4    2.11    0.16   0
   4   0  -4    1.79    0.16   0
  -3   0   4   23.63    0.24   0
   3   0  -4   24.62    0.24   0
   3   0  -4   23.97    0.23   0
   3   0  -4   23.37    0.42   0
  -3   0   4   23.76    0.23   0
  -2   0   4   59.12    0.48   0
   2   0  -4   62.92    0.34   0
  -2   0   4   62.77    0.35   0
   2   0  -4   62.17    0.33   0
   2   0  -4   62.82    0.49   0
  -2   0   4   62.80    0.35   0
   1   0  -4   81.42    0.41   0
  -1   0   4   86.81    0.40   0
   1   0  -4   86.79    0.49   0
   1   0  -4   85.11    0.43   0
   1   0  -4   85.30    0.43   0
  -1   0   4   81.95    0.49   0
   0   0   4   82.53    0.42   0
   0   0  -4   81.65    0.42   0
   0   0  -4   75.46    0.42   0
   0   0   4   80.90    0.43   0
   0   0  -4   79.85    0.41   0
   0   0   4   77.83    0.40   0
  -1   0  -4  117.12    0.49   0
  -1   0  -4  120.26    0.44   0
   1   0   4  123.67    0.50   0
   1   0   4  125.43    0.54   0
   1   0   4  122.13    0.45   0
  -1   0  -4  128.78    0.54   0
   2   0   4   11.83    0.21   0
   2   0   4   13.57    0.20   0
  -2   0  -4   12.64    0.25   0
  -2   0  -4   12.95    0.25   0
  -2   0  -4   12.85    0.19   0
  -2   0  -4   11.69    0.23   0
  -3   0  -4  104.54    0.44   0
   3   0   4  104.01    0.42   0
  -3   0  -4  109.04    0.57   0
  -3   0  -4  111.90    0.59   0
   3   0   4  116.39    0.42   0
  -3   0  -4  110.09    0.39   0
   4   0   4    0.21    0.15   0
  -4   0  -4    0.20    0.16   0
  -4   0  -4    0.22    0.24   0
   4   0   4    0.18    0.16   0
  -4   0  -4    0.17    0.25   0
  -4   0  -4    0.19    0.14   0
   5   0   4    0.06    0.15   0
   5   0   4    0.28    0.14   0
  -5   0  -4    0.19    0.16   0
   6   0   4    2.14    0.18   0
   6   0   4    2.09    0.15   0
  -6   0  -4    2.29    0.17   0
   7   0   4    3.45    0.15   0
   7   0   4    2.95    0.19   0
  -7   0  -4    2.82    0.17   0
  -8   0  -4    0.14    0.18   0
   8   0   4    0.37    0.15   0
   8   0   4    0.23    0.18   0
 -10   1   4    0.05    0.19   0
  10  -1  -4    0.13    0.19   0
 -10   1   4   -0.05    0.15   0
  10  -1  -4    0.14    0.15   0
   9  -1  -4    0.36    0.17   0
  -9   1   4    0.49    0.14   0
  -9   1   4    0.34    0.16   0
   9  -1  -4    0.48    0.15   0
   8  -1  -4    5.25    0.19   0
  -8   1   4    5.54    0.19   0
   8  -1  -4    5.42    0.16   0
  -8   1   4    5.25    0.15   0
  -7   1   4    0.26    0.15   0
  -7   1   4    0.12    0.13   0
   7  -1  -4    0.28    0.14   0
   7  -1  -4    0.37    0.16   0
   6  -1  -4    0.20    0.17   0
  -6   1   4    0.28    0.16   0
  -6   1   4    0.29    0.15   0
   6  -1  -4    0.32    0.15   0
  -5   1   4   19.22    0.21   0
   5  -1  -4   18.91    0.18   0
   5  -1  -4   18.33    0.21   0
  -5   1   4   18.24    0.20   0
  -4   1   4  367.99    0.67   0
   4  -1  -4  373.53    0.68   0
  -4   1   4  358.77    0.71   0
   4  -1  -4  366.94    0.73   0
  -3   1   4   64.39    0.34   0
  -3   1   4   63.74    0.32   0
   3  -1  -4   62.80    0.31   0
   3  -1  -4   64.83    0.33   0
  -3   1   4   60.74    0.63   0
  -2   1   4   45.08    0.29   0
   2  -1  -4   47.20    0.30   0
  -2   1   4   45.85    0.30   0
   2  -1  -4   44.83    0.30   0
   2  -1  -4   48.39    0.43   0
  -2   1   4   43.69    0.41   0
  -1   1   4    9.17    0.22   0
   1  -1  -4    9.97    0.18   0
   1  -1  -4    9.42    0.21   0
  -1   1   4    9.58    0.18   0
   1  -1  -4    9.87    0.23   0
   0   1   4  130.55    0.48   0
   0   1   4  127.33    0.50   0
   0  -1  -4  133.64    0.53   0
   0  -1  -4  127.15    0.53   0
   0  -1  -4  132.72    0.49   0
  -1  -1  -4  122.14    0.54   0
   1   1   4  114.33    0.51   0
  -1  -1  -4  107.62    0.51   0
  -1  -1  -4  113.35    0.42   0
   1   1   4  117.49    0.42   0
   1   1   4  115.56    0.53   0
  -2  -1  -4   -0.03    0.14   0
   2   1   4    0.05    0.18   0
   2   1   4    0.20    0.19   0
  -2  -1  -4    0.07    0.19   0
  -2  -1  -4    0.01    0.18   0
   2   1   4   -0.05    0.15   0
  -3  -1  -4    2.15    0.19   0
   3   1   4    2.39    0.16   0
  -3  -1  -4    2.21    0.23   0
  -3  -1  -4    2.35    0.23   0
   3   1   4    2.15    0.19   0
   4   1   4   29.19    0.29   0
   4   1   4   32.10    0.24   0
  -4  -1  -4   29.99    0.29   0
   5   1   4    2.39    0.18   0
   5   1   4    2.73    0.15   0
  -5  -1  -4    2.53    0.19   0
   6   1   4    4.74    0.19   0
  -6  -1  -4    4.98    0.19   0
   6   1   4    5.37    0.16   0
   7   1   4    8.80    0.22   0
  -7  -1  -4    9.43    0.23   0
   7   1   4    9.64    0.17   0
  -8  -1  -4    1.14    0.20   0
   8   1   4    1.02    0.18   0
   8   1   4    0.94    0.18   0
  10  -2  -4    1.88    0.16   0
  10  -2  -4    1.62    0.20   0
 -10   2   4    1.68    0.19   0
 -10   2   4    1.80    0.15   0
  -9   2   4    0.56    0.16   0
   9  -2  -4    0.57    0.17   0
  -9   2   4    0.72    0.14   0
   9  -2  -4    0.63    0.14   0
  -8   2   4    1.14    0.13   0
  -8   2   4    0.87    0.14   0
   8  -2  -4    0.87    0.15   0
   8  -2  -4    0.80    0.16   0
   7  -2  -4    3.45    0.13   0
   7  -2  -4    3.42    0.17   0
  -7   2   4    3.76    0.15   0
  -7   2   4    3.62    0.15   0
  -6   2   4   14.70    0.19   0
   6  -2  -4   14.82    0.17   0
   6  -2  -4   14.28    0.19   0
  -6   2   4   14.76    0.19   0
  -5   2   4   14.30    0.20   0
  -5   2   4   14.60    0.19   0
   5  -2  -4   14.53    0.19   0
   5  -2  -4   14.05    0.20   0
   4  -2  -4  265.37    0.59   0
  -4   2   4  255.81    0.59   0
  -4   2   4  269.69    0.57   0
   4  -2  -4  262.99    0.55   0
  -3   2   4   24.26    0.36   0
  -3   2   4   24.48    0.24   0
   3  -2  -4   24.91    0.24   0
  -3   2   4   24.42    0.23   0
   3  -2  -4   24.40    0.23   0
  -2   2   4    2.82    0.16   0
   2  -2  -4    2.97    0.17   0
  -2   2   4    2.76    0.19   0
  -2   2   4    2.61    0.16   0
   2  -2  -4    2.69    0.16   0
  -1   2   4    9.10    0.18   0
   1  -2  -4    9.05    0.19   0
  -1   2   4    8.51    0.19   0
  -1   2   4    8.80    0.19   0
   1  -2  -4    9.03    0.19   0
   0   2   4   13.23    0.22   0
   0  -2  -4   12.28    0.24   0
   0   2   4   13.05    0.18   0
   0  -2  -4   12.96    0.21   0
   0  -2  -4   13.00    0.24   0
   1   2   4   33.54    0.30   0
  -1  -2  -4   34.23    0.31   0
  -1  -2  -4   32.23    0.35   0
   1   2   4   35.75    0.26   0
  -2  -2  -4    0.64    0.22   0
   2   2   4    0.87    0.18   0
  -2  -2  -4    0.80    0.18   0
   2   2   4    0.92    0.14   0
   2   2   4    0.78    0.19   0
  -3  -2  -4    1.49    0.25   0
  -3  -2  -4    1.50    0.23   0
   3   2   4    1.50    0.22   0
   3   2   4    1.65    0.15   0
   4   2   4    2.16    0.20   0
   4   2   4    2.41    0.15   0
  -4  -2  -4    2.31    0.21   0
   5   2   4   34.07    0.34   0
   5   2   4   36.73    0.23   0
  -5  -2  -4   36.52    0.35   0
   6   2   4    1.60    0.20   0
  -6  -2  -4    1.59    0.20   0
   6   2   4    1.91    0.15   0
  -7  -2  -4    5.38    0.23   0
   7   2   4    4.89    0.23   0
   7   2   4    5.60    0.17   0
   8   2   4    2.24    0.24   0
   8   2   4    2.32    0.17   0
  -8  -2  -4    2.37    0.22   0
  10  -3  -4    0.05    0.16   0
 -10   3   4    0.09    0.17   0
  10  -3  -4    0.32    0.17   0
 -10   3   4   -0.12    0.12   0
  -9   3   4    1.85    0.17   0
   9  -3  -4    1.88    0.15   0
  -9   3   4    2.16    0.14   0
   9  -3  -4    1.88    0.17   0
   8  -3  -4    0.14    0.15   0
   8  -3  -4    0.15    0.15   0
  -8   3   4    0.14    0.13   0
  -8   3   4    0.39    0.13   0
   7  -3  -4    4.17    0.15   0
  -7   3   4    4.03    0.15   0
  -7   3   4    4.43    0.15   0
   7  -3  -4    4.36    0.15   0
   6  -3  -4    4.92    0.18   0
  -6   3   4    4.66    0.15   0
  -6   3   4    4.72    0.15   0
   6  -3  -4    5.09    0.16   0
   5  -3  -4    0.08    0.15   0
  -5   3   4    0.22    0.14   0
  -5   3   4    0.21    0.13   0
   5  -3  -4   -0.08    0.13   0
  -4   3   4   36.31    0.23   0
   4  -3  -4   36.77    0.26   0
   4  -3  -4   36.85    0.25   0
  -4   3   4   36.36    0.44   0
  -4   3   4   37.90    0.24   0
  -3   3   4   96.79    0.50   0
   3  -3  -4  100.03    0.37   0
  -3   3   4   96.96    0.35   0
  -3   3   4   98.34    0.36   0
   3  -3  -4   99.50    0.36   0
  -2   3   4    2.13    0.15   0
   2  -3  -4    1.94    0.15   0
  -2   3   4    2.07    0.15   0
   2  -3  -4    2.15    0.16   0
  -1   3   4    0.29    0.14   0
   1  -3  -4    0.26    0.16   0
   1  -3  -4    0.39    0.14   0
  -1   3   4    0.33    0.14   0
  -1   3   4    0.28    0.14   0
   0  -3  -4    0.86    0.19   0
   0   3   4    0.81    0.14   0
   0  -3  -4    1.02    0.19   0
   0  -3  -4    0.96    0.14   0
   0   3   4    1.12    0.15   0
  -1  -3  -4    4.60    0.24   0
   1   3   4    4.59    0.18   0
  -1  -3  -4    4.56    0.23   0
   1   3   4    4.62    0.15   0
  -1  -3  -4    4.19    0.18   0
  -2  -3  -4   21.82    0.28   0
   2   3   4   23.26    0.28   0
  -2  -3  -4   21.03    0.38   0
  -2  -3  -4   24.23    0.40   0
   2   3   4   23.15    0.21   0
   3   3   4    3.85    0.26   0
  -3  -3  -4    3.72    0.26   0
   3   3   4    3.95    0.16   0
  -3  -3  -4    3.84    0.29   0
   4   3   4   12.38    0.35   0
   4   3   4   12.79    0.19   0
  -4  -3  -4   12.45    0.35   0
   5   3   4   14.69    0.19   0
   5   3   4   13.71    0.36   0
  -5  -3  -4   14.46    0.36   0
  -6  -3  -4    0.59    0.24   0
   6   3   4    0.54    0.25   0
   6   3   4    0.84    0.14   0
  -7  -3  -4    1.30    0.29   0
   7   3   4    1.30    0.28   0
   7   3   4    1.30    0.16   0
   8   3   4    0.08    0.34   0
   8   3   4    0.07    0.16   0
 -10   4   4    1.45    0.18   0
  10  -4  -4    0.94    0.16   0
 -10   4   4    0.79    0.15   0
  10  -4  -4    0.79    0.16   0
  -9   4   4    5.83    0.16   0
   9  -4  -4    5.84    0.19   0
  -9   4   4    5.91    0.18   0
   9  -4  -4    5.76    0.17   0
  -8   4   4    1.09    0.13   0
  -8   4   4    0.99    0.13   0
   8  -4  -4    1.15    0.15   0
   8  -4  -4    1.08    0.14   0
   7  -4  -4    0.07    0.14   0
   7  -4  -4    0.29    0.13   0
  -7   4   4    0.17    0.13   0
  -7   4   4    0.06    0.12   0
   6  -4  -4    0.70    0.15   0
  -6   4   4    0.86    0.14   0
  -6   4   4    1.02    0.13   0
   6  -4  -4    0.87    0.14   0
   5  -4  -4    0.15    0.14   0
  -5   4   4    0.14    0.13   0
  -5   4   4    0.32    0.13   0
   5  -4  -4    0.12    0.14   0
  -4   4   4    9.06    0.17   0
  -4   4   4    9.00    0.17   0
   4  -4  -4    8.77    0.17   0
   4  -4  -4    8.94    0.17   0
   3  -4  -4    3.87    0.13   0
  -3   4   4    4.19    0.15   0
  -3   4   4    4.21    0.16   0
   3  -4  -4    4.32    0.16   0
   2  -4  -4   12.06    0.19   0
  -2   4   4   11.66    0.18   0
  -2   4   4   11.38    0.18   0
   2  -4  -4   11.43    0.18   0
  -1   4   4    7.24    0.17   0
   1  -4  -4    7.24    0.18   0
  -1   4   4    6.83    0.17   0
   1  -4  -4    6.63    0.17   0
   0   4   4   25.53    0.23   0
   0  -4  -4   26.63    0.31   0
   0  -4  -4   23.59    0.23   0
  -1  -4  -4   12.37    0.32   0
   1   4   4   12.71    0.19   0
   1   4   4   12.75    0.16   0
  -1  -4  -4   12.30    0.19   0
  -1  -4  -4   13.58    0.33   0
  -2  -4  -4   31.89    0.30   0
   2   4   4   34.51    0.32   0
   2   4   4   33.68    0.23   0
   3   4   4  127.28    0.65   0
  -3  -4  -4  120.69    0.62   0
   3   4   4  124.50    0.39   0
   4   4   4    1.49    0.15   0
   5   4   4    0.70    0.12   0
   6   4   4    1.81    0.15   0
   7   4   4    0.27    0.15   0
  10  -5  -4    0.63    0.18   0
 -10   5   4    0.66    0.15   0
 -10   5   4    0.63    0.12   0
  10  -5  -4    0.72    0.16   0
   9  -5  -4    0.03    0.15   0
   9  -5  -4    0.14    0.14   0
  -9   5   4    0.16    0.14   0
  -9   5   4    0.34    0.14   0
   8  -5  -4   -0.08    0.14   0
   8  -5  -4    0.14    0.14   0
  -8   5   4    0.23    0.13   0
  -8   5   4    0.07    0.13   0
   7  -5  -4    0.31    0.13   0
   7  -5  -4    0.16    0.14   0
  -7   5   4    0.43    0.13   0
  -7   5   4    0.11    0.11   0
   6  -5  -4    2.77    0.15   0
  -6   5   4    3.13    0.15   0
  -6   5   4    2.90    0.26   0
  -6   5   4    2.86    0.12   0
   6  -5  -4    3.00    0.15   0
   5  -5  -4   10.95    0.18   0
  -5   5   4   10.48    0.15   0
  -5   5   4   10.47    0.15   0
   5  -5  -4   10.55    0.18   0
   4  -5  -4    5.54    0.14   0
  -4   5   4    5.89    0.15   0
  -4   5   4    5.89    0.15   0
   4  -5  -4    5.84    0.16   0
   3  -5  -4    6.68    0.16   0
  -3   5   4    6.85    0.17   0
  -3   5   4    6.89    0.15   0
   3  -5  -4    7.19    0.18   0
   2  -5  -4    1.10    0.15   0
  -2   5   4    1.08    0.14   0
  -2   5   4    0.82    0.14   0
   2  -5  -4    0.94    0.15   0
  -1   5   4    9.58    0.16   0
   1  -5  -4   10.24    0.20   0
  -1   5   4    9.88    0.20   0
   1  -5  -4    9.74    0.18   0
   0   5   4    0.16    0.15   0
   0  -5  -4    0.07    0.21   0
   0  -5  -4    0.25    0.17   0
  -1  -5  -4    0.34    0.27   0
   1   5   4    0.46    0.16   0
  -1  -5  -4    0.24    0.16   0
  -1  -5  -4    0.25    0.27   0
   2   5   4   14.95    0.25   0
  -2  -5  -4   13.66    0.23   0
   2   5   4   14.80    0.18   0
  -3  -5  -4   12.65    0.26   0
   3   5   4   13.62    0.27   0
   3   5   4   13.72    0.18   0
   4   5   4    8.17    0.14   0
   5   5   4    6.11    0.16   0
   6   5   4    6.52    0.17   0
   7   5   4    0.09    0.15   0
   9  -6  -4    1.59    0.15   0
   9  -6  -4    1.73    0.15   0
  -9   6   4    1.46    0.15   0
  -9   6   4    1.51    0.14   0
   8  -6  -4    3.71    0.16   0
  -8   6   4    3.72    0.15   0
  -8   6   4    3.65    0.15   0
   8  -6  -4    3.96    0.16   0
   7  -6  -4    0.14    0.14   0
  -7   6   4    0.36    0.13   0
  -7   6   4    0.19    0.12   0
  -7   6   4    0.30    0.27   0
   7  -6  -4    0.12    0.11   0
  -6   6   4    0.14    0.13   0
   6  -6  -4   -0.03    0.13   0
  -6   6   4    0.32    0.13   0
   6  -6  -4   -0.02    0.14   0
  -5   6   4    2.97    0.15   0
   5  -6  -4    3.12    0.15   0
  -5   6   4    3.05    0.14   0
   5  -6  -4    3.33    0.16   0
   4  -6  -4    9.84    0.17   0
  -4   6   4    9.68    0.16   0
  -4   6   4   10.23    0.15   0
   4  -6  -4   10.09    0.18   0
   3  -6  -4    3.22    0.15   0
   3  -6  -4    3.04    0.17   0
  -3   6   4    3.28    0.15   0
  -3   6   4    3.32    0.15   0
   2  -6  -4    4.39    0.15   0
  -2   6   4    4.47    0.15   0
  -2   6   4    4.21    0.15   0
   2  -6  -4    4.52    0.18   0
   1  -6  -4   17.51    0.19   0
  -1   6   4   18.74    0.24   0
  -1   6   4   18.29    0.18   0
   1  -6  -4   18.17    0.24   0
   0  -6  -4    5.99    0.16   0
   0   6   4    6.46    0.23   0
   0  -6  -4    6.11    0.22   0
   0   6   4    6.27    0.16   0
  -1  -6  -4    1.46    0.15   0
   1   6   4    1.66    0.16   0
  -1  -6  -4    1.76    0.30   0
  -1  -6  -4    1.58    0.31   0
  -2  -6  -4    0.15    0.15   0
   2   6   4    0.10    0.15   0
   3   6   4    2.85    0.19   0
   3   6   4    2.85    0.12   0
  -3  -6  -4    2.80    0.20   0
   4   6   4    3.59    0.30   0
  -4  -6  -4    3.78    0.30   0
   4   6   4    3.74    0.13   0
   5   6   4    1.59    0.15   0
   6   6   4    0.13    0.12   0
   9  -7  -4    0.00    0.13   0
   9  -7  -4    0.26    0.14   0
  -9   7   4    0.04    0.14   0
  -9   7   4    0.23    0.14   0
   8  -7  -4    4.88    0.17   0
   8  -7  -4    4.53    0.16   0
  -8   7   4    4.65    0.16   0
  -8   7   4    4.59    0.13   0
  -7   7   4    1.71    0.22   0
  -7   7   4    1.73    0.14   0
   7  -7  -4    1.73    0.12   0
  -7   7   4    1.61    0.14   0
   7  -7  -4    1.32    0.12   0
  -6   7   4    0.86    0.11   0
  -6   7   4    0.75    0.14   0
   6  -7  -4    0.99    0.12   0
   6  -7  -4    0.57    0.15   0
   5  -7  -4    0.60    0.14   0
   5  -7  -4    0.62    0.13   0
  -5   7   4    0.71    0.11   0
  -5   7   4    0.52    0.10   0
   4  -7  -4    0.40    0.14   0
  -4   7   4    0.65    0.13   0
  -4   7   4    0.47    0.14   0
   4  -7  -4    0.56    0.16   0
   3  -7  -4   20.76    0.20   0
  -3   7   4   20.81    0.20   0
  -3   7   4   21.35    0.21   0
   3  -7  -4   21.12    0.23   0
   2  -7  -4    1.31    0.12   0
   2  -7  -4    1.28    0.15   0
  -2   7   4    1.27    0.14   0
  -2   7   4    1.28    0.12   0
   1  -7  -4    0.02    0.17   0
  -1   7   4    0.17    0.14   0
   1  -7  -4    0.08    0.14   0
  -1   7   4    0.10    0.16   0
   0  -7  -4    0.12    0.20   0
   0   7   4    0.15    0.18   0
   0  -7  -4    0.17    0.13   0
   0   7   4    0.07    0.14   0
  -1  -7  -4    3.99    0.15   0
   1   7   4    3.99    0.16   0
   2   7   4    2.40    0.18   0
  -2  -7  -4    2.35    0.19   0
  -3  -7  -4    4.66    0.19   0
   3   7   4    4.96    0.20   0
   3   7   4    4.97    0.15   0
   4   7   4    0.13    0.23   0
   4   7   4    0.06    0.14   0
  -4  -7  -4    0.15    0.24   0
   5   7   4   -0.06    0.15   0
  -9   8   4    0.37    0.14   0
   9  -8  -4    0.56    0.15   0
   9  -8  -4    0.28    0.15   0
  -9   8   4    0.25    0.15   0
   8  -8  -4    0.27    0.14   0
  -8   8   4    0.14    0.12   0
   8  -8  -4    0.22    0.12   0
  -8   8   4    0.18    0.25   0
  -8   8   4    0.22    0.14   0
   7  -8  -4    2.02    0.16   0
   7  -8  -4    2.18    0.15   0
  -7   8   4    1.93    0.19   0
  -7   8   4    2.01    0.15   0
  -7   8   4    2.47    0.15   0
   6  -8  -4    2.20    0.16   0
   6  -8  -4    2.31    0.14   0
  -6   8   4    2.07    0.12   0
  -6   8   4    2.24    0.12   0
   5  -8  -4    0.34    0.14   0
   5  -8  -4    0.15    0.14   0
  -5   8   4    0.17    0.10   0
  -5   8   4    0.49    0.13   0
   4  -8  -4    2.35    0.12   0
  -4   8   4    2.36    0.14   0
   4  -8  -4    2.45    0.15   0
  -4   8   4    2.23    0.13   0
   3  -8  -4    5.49    0.18   0
   3  -8  -4    5.17    0.15   0
  -3   8   4    5.49    0.15   0
  -3   8   4    5.82    0.15   0
   2  -8  -4    0.31    0.13   0
   2  -8  -4    0.36    0.14   0
  -2   8   4    0.35    0.14   0
  -2   8   4    0.27    0.13   0
   1  -8  -4    2.62    0.18   0
   1  -8  -4    2.71    0.14   0
  -1   8   4    2.75    0.14   0
  -1   8   4    2.84    0.19   0
   0  -8  -4   13.77    0.18   0
   0   8   4   15.14    0.19   0
   0  -8  -4   14.13    0.30   0
   1   8   4    6.15    0.17   0
  -1  -8  -4    5.53    0.17   0
   2   8   4    0.48    0.16   0
  -2  -8  -4    0.40    0.17   0
   3   8   4    0.11    0.18   0
  -3  -8  -4    0.11    0.17   0
   3   8   4    0.13    0.11   0
  -4  -8  -4    0.10    0.24   0
   4   8   4    0.16    0.14   0
   4   8   4    0.11    0.23   0
   8  -9  -4    0.21    0.15   0
  -8   9   4    0.02    0.15   0
  -8   9   4    0.12    0.23   0
   8  -9  -4    0.00    0.13   0
  -8   9   4    0.05    0.12   0
   7  -9  -4    2.26    0.16   0
   7  -9  -4    2.23    0.16   0
  -7   9   4    2.23    0.12   0
  -7   9   4    2.08    0.15   0
   6  -9  -4    0.58    0.15   0
   6  -9  -4    0.96    0.15   0
  -6   9   4    1.05    0.14   0
  -6   9   4    1.06    0.14   0
   5  -9  -4    0.22    0.14   0
   5  -9  -4    0.29    0.11   0
  -5   9   4    0.40    0.13   0
  -5   9   4    0.11    0.11   0
   4  -9  -4    0.19    0.15   0
  -4   9   4    0.01    0.14   0
   4  -9  -4    0.22    0.11   0
  -4   9   4    0.33    0.13   0
   3  -9  -4    2.30    0.17   0
   3  -9  -4    2.32    0.14   0
  -3   9   4    2.20    0.16   0
  -3   9   4    2.35    0.15   0
   2  -9  -4    5.88    0.20   0
   2  -9  -4    5.62    0.15   0
  -2   9   4    6.51    0.18   0
  -2   9   4    6.28    0.15   0
  -1   9   4    2.59    0.20   0
   1  -9  -4    2.56    0.20   0
   1  -9  -4    3.02    0.15   0
  -1   9   4    2.93    0.15   0
   0  -9  -4    0.09    0.24   0
   0  -9  -4    0.16    0.16   0
   0   9   4    0.21    0.16   0
  -1  -9  -4    2.33    0.14   0
   1   9   4    2.24    0.14   0
  -2  -9  -4    0.59    0.16   0
   2   9   4    0.50    0.16   0
   3   9   4    0.25    0.19   0
  -3  -9  -4    0.31    0.18   0
   3   9   4    0.29    0.12   0
   4   9   4    5.72    0.29   0
   4   9   4    6.04    0.15   0
   7 -10  -4    1.55    0.17   0
   7 -10  -4    1.63    0.16   0
  -7  10   4    1.40    0.15   0
  -7  10   4    1.62    0.15   0
   6 -10  -4    0.83    0.16   0
   6 -10  -4    0.42    0.15   0
  -6  10   4    0.48    0.14   0
  -6  10   4    0.45    0.15   0
   5 -10  -4    1.07    0.18   0
   5 -10  -4    0.81    0.14   0
  -5  10   4    0.98    0.14   0
  -5  10   4    1.10    0.15   0
   4 -10  -4    1.73    0.16   0
   4 -10  -4    1.43    0.12   0
  -4  10   4    1.42    0.14   0
  -4  10   4    1.64    0.15   0
   3 -10  -4    1.36    0.17   0
   3 -10  -4    1.39    0.14   0
  -3  10   4    1.56    0.15   0
  -3  10   4    1.46    0.17   0
  -2  10   4    3.13    0.17   0
   2 -10  -4    2.58    0.18   0
   2 -10  -4    2.48    0.14   0
  -2  10   4    3.13    0.15   0
   1 -10  -4    2.82    0.21   0
  -1  10   4    3.24    0.20   0
   1 -10  -4    3.14    0.15   0
  -1  10   4    3.41    0.16   0
   0 -10  -4   -0.05    0.13   0
   0 -10  -4    0.13    0.25   0
   0  10   4    0.25    0.14   0
  -1 -10  -4    0.88    0.16   0
   1  10   4    0.91    0.17   0
  -2 -10  -4    0.13    0.17   0
   2  10   4    0.42    0.17   0
   6 -11  -4    0.23    0.16   0
   6 -11  -4    0.29    0.15   0
  -6  11   4    0.19    0.15   0
  -6  11   4    0.10    0.15   0
   5 -11  -4    1.72    0.16   0
   5 -11  -4    1.88    0.15   0
  -5  11   4    1.80    0.16   0
  -5  11   4    1.52    0.12   0
  -4  11   4    0.28    0.15   0
   4 -11  -4    0.31    0.15   0
   4 -11  -4    0.48    0.14   0
  -4  11   4    0.05    0.14   0
   3 -11  -4    1.83    0.18   0
   3 -11  -4    1.99    0.14   0
  -3  11   4    2.06    0.12   0
  -3  11   4    2.18    0.17   0
   2 -11  -4    0.30    0.17   0
   2 -11  -4    0.08    0.13   0
  -2  11   4    0.35    0.14   0
  -2  11   4    0.01    0.16   0
  -1  11   4    1.12    0.15   0
   1 -11  -4    0.84    0.22   0
  -1  11   4    0.99    0.21   0
   1 -11  -4    1.11    0.15   0
   0  11   4    0.36    0.14   0
   0 -11  -4   -0.21    0.16   0
  -1 -11  -4    1.20    0.15   0
   1  11   4    1.37    0.17   0
  -4  12   4    0.36    0.17   0
  -4  12   4    0.14    0.12   0
   3 -12  -4   -0.07    0.18   0
  -3  12   4    0.14    0.17   0
  -3  12   4   -0.05    0.12   0
   3 -12  -4    0.22    0.14   0
   2 -12  -4    0.55    0.19   0
   2 -12  -4    0.31    0.15   0
  -2  12   4    0.47    0.20   0
  -2  12   4    0.31    0.15   0
   0  13  -5    0.87    0.15   0
   0 -13   5    0.78    0.18   0
   0 -13   5    1.19    0.14   0
   0  13  -5    1.04    0.18   0
  -1  13  -5    0.81    0.12   0
   1 -13   5    0.48    0.12   0
   1 -13   5    0.59    0.18   0
  -1  13  -5    0.79    0.15   0
  -2  13  -5    0.59    0.12   0
   2 -13   5    0.42    0.16   0
  -2  13  -5    0.29    0.15   0
   2 -13   5    0.42    0.15   0
  -3  13  -5    0.63    0.14   0
   3 -13   5    0.80    0.16   0
   3 -13   5    0.81    0.14   0
  -3  13  -5    0.97    0.15   0
   2  12  -5    0.16    0.15   0
  -2 -12   5    0.36    0.20   0
  -2 -12   5    0.01    0.15   0
   2  12  -5    0.38    0.20   0
  -1 -12   5    0.47    0.14   0
  -1 -12   5    0.49    0.18   0
   1  12  -5    0.59    0.14   0
   1  12  -5    0.61    0.18   0
   0  12  -5    0.24    0.16   0
   0 -12   5    0.18    0.11   0
   0  12  -5    0.55    0.14   0
   0 -12   5    0.08    0.16   0
  -1  12  -5    0.22    0.14   0
   1 -12   5    0.17    0.13   0
  -1  12  -5    0.26    0.14   0
   1 -12   5    0.24    0.17   0
  -2  12  -5    1.38    0.14   0
   2 -12   5    1.11    0.15   0
   2 -12   5    1.66    0.14   0
  -2  12  -5    1.69    0.16   0
   3 -12   5    2.17    0.16   0
  -3  12  -5    2.48    0.14   0
   3 -12   5    2.91    0.14   0
  -3  12  -5    2.28    0.16   0
   4 -12   5    4.36    0.14   0
  -4  12  -5    4.30    0.13   0
  -4  12  -5    4.81    0.16   0
   4 -12   5    4.74    0.15   0
  -4  12  -5    4.63    0.16   0
  -5  12  -5    1.99    0.13   0
   5 -12   5    1.99    0.16   0
  -5  12  -5    1.89    0.15   0
   5 -12   5    2.07    0.15   0
  -5  12  -5    1.87    0.13   0
   4  11  -5    1.42    0.16   0
   4  11  -5    1.64    0.27   0
   4  11  -5    1.36    0.15   0
   4  11  -5    1.52    0.26   0
   3  11  -5    0.29    0.22   0
  -3 -11   5    0.55    0.14   0
   3  11  -5    0.30    0.14   0
   3  11  -5    0.27    0.21   0
   2  11  -5    0.00    0.17   0
  -2 -11   5   -0.00    0.13   0
   2  11  -5    0.23    0.14   0
  -2 -11   5    0.14    0.19   0
   1  11  -5    0.36    0.16   0
  -1 -11   5    0.11    0.14   0
  -1 -11   5    0.30    0.13   0
   1  11  -5    0.48    0.13   0
   0 -11   5    4.29    0.14   0
   0 -11   5    4.18    0.19   0
   0  11  -5    3.57    0.14   0
   0  11  -5    3.77    0.18   0
  -1  11  -5    7.41    0.19   0
  -1  11  -5    7.08    0.16   0
   1 -11   5    7.49    0.17   0
   1 -11   5    8.13    0.16   0
  -2  11  -5    0.31    0.15   0
   2 -11   5    0.23    0.15   0
  -2  11  -5    0.62    0.13   0
   2 -11   5    0.65    0.13   0
  -3  11  -5    0.51    0.14   0
   3 -11   5    0.37    0.14   0
  -3  11  -5    0.31    0.13   0
  -3  11  -5    0.35    0.13   0
   3 -11   5    0.61    0.13   0
   4 -11   5    0.23    0.14   0
  -4  11  -5   -0.09    0.14   0
   4 -11   5    0.11    0.13   0
  -4  11  -5    0.09    0.13   0
  -4  11  -5   -0.07    0.13   0
  -5  11  -5    2.94    0.15   0
   5 -11   5    3.16    0.16   0
  -5  11  -5    3.24    0.15   0
   5 -11   5    3.48    0.16   0
  -5  11  -5    3.01    0.15   0
  -6  11  -5    0.19    0.14   0
  -6  11  -5    0.19    0.15   0
   6 -11   5    0.40    0.12   0
   6 -11   5    0.52    0.15   0
  -6  11  -5    0.50    0.12   0
   5  10  -5    1.18    0.29   0
   5  10  -5    1.03    0.17   0
   5  10  -5    1.22    0.18   0
   5  10  -5    1.10    0.28   0
   4  10  -5    0.00    0.21   0
   4  10  -5    0.08    0.17   0
   4  10  -5    0.05    0.20   0
   4  10  -5   -0.06    0.13   0
   3  10  -5    1.44    0.19   0
  -3 -10   5    1.81    0.14   0
   3  10  -5    1.52    0.19   0
   3  10  -5    1.66    0.16   0
   2  10  -5    0.54    0.17   0
  -2 -10   5    0.43    0.13   0
  -2 -10   5    0.37    0.16   0
   2  10  -5   -0.02    0.14   0
   1  10  -5    0.05    0.17   0
  -1 -10   5    0.38    0.14   0
   1  10  -5    0.35    0.13   0
  -1 -10   5    0.23    0.11   0
   0 -10   5    5.06    0.19   0
   0 -10   5    5.70    0.15   0
   0  10  -5    4.90    0.16   0
   0  10  -5    5.44    0.15   0
  -1  10  -5    0.30    0.14   0
   1 -10   5    0.31    0.14   0
  -1  10  -5    0.20    0.13   0
   1 -10   5    0.38    0.13   0
  -2  10  -5    1.01    0.14   0
   2 -10   5    1.18    0.14   0
  -2  10  -5    1.10    0.10   0
   2 -10   5    1.13    0.12   0
  -3  10  -5    0.83    0.11   0
  -3  10  -5    0.94    0.13   0
   3 -10   5    0.93    0.14   0
  -3  10  -5    0.99    0.13   0
   3 -10   5    1.26    0.13   0
   4 -10   5    6.88    0.14   0
  -4  10  -5    6.77    0.13   0
  -4  10  -5    7.38    0.15   0
   4 -10   5    7.03    0.15   0
  -4  10  -5    7.10    0.16   0
   5 -10   5    1.91    0.15   0
  -5  10  -5    2.10    0.15   0
  -5  10  -5    2.30    0.15   0
   5 -10   5    2.20    0.15   0
  -5  10  -5    2.30    0.15   0
  -6  10  -5    0.76    0.15   0
   6 -10   5    0.49    0.15   0
  -6  10  -5    0.93    0.15   0
   6 -10   5    0.89    0.14   0
  -6  10  -5    0.68    0.14   0
   7 -10   5    0.26    0.15   0
  -7  10  -5    0.11    0.14   0
   7 -10   5    0.13    0.14   0
  -7  10  -5    0.15    0.15   0
  -7  10  -5    0.10    0.11   0
   6   9  -5    0.26    0.27   0
   6   9  -5    0.17    0.17   0
   6   9  -5    0.30    0.19   0
   6   9  -5    0.18    0.26   0
   5   9  -5    1.46    0.22   0
   5   9  -5    1.49    0.17   0
   5   9  -5    1.52    0.23   0
   5   9  -5    1.40    0.17   0
   4   9  -5    0.22    0.13   0
   4   9  -5    0.44    0.21   0
   4   9  -5    0.25    0.20   0
   4   9  -5    0.24    0.16   0
   3   9  -5    0.06    0.19   0
  -3  -9   5    0.00    0.13   0
   3   9  -5    0.21    0.16   0
   3   9  -5    0.19    0.13   0
   2   9  -5   33.56    0.29   0
   2   9  -5   34.39    0.24   0
  -2  -9   5   38.45    0.23   0
  -2  -9   5   36.98    0.30   0
   1   9  -5    5.90    0.17   0
  -1  -9   5    6.72    0.19   0
   1   9  -5    6.24    0.16   0
  -1  -9   5    6.98    0.15   0
   0   9  -5    0.11    0.16   0
   0  -9   5    0.12    0.14   0
   0   9  -5    0.22    0.11   0
   0  -9   5   -0.22    0.13   0
  -1   9  -5    1.96    0.14   0
   1  -9   5    1.56    0.15   0
  -1   9  -5    1.84    0.13   0
   1  -9   5    1.81    0.11   0
  -2   9  -5   13.36    0.18   0
   2  -9   5   14.90    0.17   0
   2  -9   5   13.88    0.18   0
  -2   9  -5   13.40    0.17   0
  -3   9  -5    7.55    0.15   0
  -3   9  -5    7.77    0.15   0
   3  -9   5    7.33    0.16   0
   3  -9   5    8.19    0.13   0
  -3   9  -5    7.61    0.16   0
  -4   9  -5    4.18    0.13   0
   4  -9   5    4.48    0.16   0
  -4   9  -5    4.39    0.15   0
  -4   9  -5    4.15    0.14   0
   4  -9   5    4.51    0.15   0
   5  -9   5    0.67    0.14   0
  -5   9  -5    0.66    0.13   0
  -5   9  -5    0.55    0.13   0
   5  -9   5    0.32    0.13   0
  -5   9  -5    0.13    0.14   0
  -6   9  -5    0.44    0.13   0
   6  -9   5    0.28    0.14   0
  -6   9  -5    0.51    0.16   0
   6  -9   5    0.90    0.13   0
  -6   9  -5    0.49    0.14   0
  -7   9  -5    0.28    0.14   0
   7  -9   5    0.03    0.14   0
   7  -9   5    0.07    0.14   0
  -7   9  -5    0.06    0.15   0
  -7   9  -5   -0.01    0.11   0
   7   8  -5    0.19    0.26   0
   7   8  -5    0.10    0.26   0
   7   8  -5    0.06    0.22   0
   7   8  -5    0.00    0.21   0
   6   8  -5    0.25    0.18   0
   6   8  -5    0.41    0.16   0
   6   8  -5    0.35    0.21   0
   6   8  -5    0.34    0.21   0
   5   8  -5    4.01    0.18   0
   5   8  -5    4.64    0.22   0
   5   8  -5    4.03    0.18   0
   5   8  -5    3.94    0.21   0
   4   8  -5    3.52    0.17   0
   4   8  -5    4.07    0.20   0
   4   8  -5    3.85    0.15   0
   4   8  -5    3.90    0.21   0
   3   8  -5    0.97    0.18   0
   3   8  -5    1.24    0.16   0
  -3  -8   5    1.36    0.14   0
  -2  -8   5    2.36    0.14   0
   2   8  -5    2.04    0.19   0
  -2  -8   5    2.32    0.18   0
   2   8  -5    2.18    0.15   0
   1   8  -5   11.14    0.20   0
   1   8  -5   11.52    0.18   0
  -1  -8   5   12.30    0.21   0
  -1  -8   5   12.25    0.17   0
   0   8  -5    4.66    0.17   0
   0  -8   5    5.65    0.15   0
   0  -8   5    5.06    0.16   0
   0   8  -5    4.93    0.14   0
   1  -8   5    9.92    0.18   0
  -1   8  -5    9.48    0.18   0
  -1   8  -5    9.65    0.17   0
   1  -8   5   10.49    0.16   0
  -2   8  -5    7.00    0.13   0
  -2   8  -5    6.57    0.15   0
   2  -8   5    6.86    0.17   0
   2  -8   5    7.19    0.13   0
  -2   8  -5    7.10    0.15   0
   3  -8   5    6.08    0.16   0
  -3   8  -5    5.80    0.15   0
   3  -8   5    6.08    0.15   0
  -3   8  -5    5.42    0.14   0
  -3   8  -5    5.98    0.15   0
  -4   8  -5    2.17    0.14   0
  -4   8  -5    2.35    0.13   0
  -4   8  -5    2.10    0.14   0
   4  -8   5    2.39    0.13   0
   4  -8   5    2.23    0.12   0
  -5   8  -5    0.78    0.15   0
   5  -8   5    0.88    0.11   0
  -5   8  -5    0.80    0.13   0
  -5   8  -5    0.96    0.14   0
   5  -8   5    0.88    0.13   0
  -6   8  -5    2.09    0.14   0
  -6   8  -5    2.16    0.15   0
   6  -8   5    2.46    0.14   0
  -6   8  -5    2.19    0.14   0
   6  -8   5    1.90    0.14   0
  -7   8  -5    4.47    0.16   0
   7  -8   5    4.56    0.16   0
  -7   8  -5    4.75    0.16   0
  -7   8  -5    4.59    0.13   0
   7  -8   5    4.21    0.16   0
  -8   8  -5    0.39    0.15   0
   8  -8   5    0.37    0.16   0
  -8   8  -5    0.47    0.15   0
  -8   8  -5    0.34    0.17   0
   8  -8   5    0.43    0.15   0
   7   7  -5    1.78    0.22   0
   7   7  -5    1.86    0.22   0
   7   7  -5    1.67    0.20   0
   7   7  -5    1.77    0.21   0
   6   7  -5    1.51    0.19   0
   6   7  -5    1.42    0.20   0
   6   7  -5    1.20    0.20   0
   6   7  -5    1.28    0.19   0
   5   7  -5   11.21    0.22   0
   5   7  -5   10.63    0.21   0
   5   7  -5   10.35    0.22   0
   5   7  -5   10.54    0.19   0
   4   7  -5   13.22    0.20   0
   4   7  -5   13.13    0.24   0
   4   7  -5   14.10    0.22   0
   4   7  -5   13.68    0.20   0
   3   7  -5    0.09    0.17   0
   3   7  -5   -0.01    0.13   0
   2   7  -5    0.12    0.16   0
  -2  -7   5    0.06    0.17   0
  -2  -7   5   -0.20    0.14   0
   2   7  -5    0.10    0.14   0
   1   7  -5   44.68    0.27   0
  -1  -7   5   50.22    0.30   0
  -1  -7   5   51.86    0.26   0
   1   7  -5   46.88    0.26   0
   0   7  -5   12.29    0.19   0
   0  -7   5   13.45    0.17   0
   0   7  -5   12.92    0.17   0
   0  -7   5   13.19    0.19   0
  -1   7  -5    0.22    0.15   0
  -1   7  -5    0.31    0.13   0
   1  -7   5    0.26    0.15   0
   1  -7   5    0.37    0.13   0
  -2   7  -5    2.89    0.13   0
   2  -7   5    2.46    0.15   0
  -2   7  -5    2.75    0.14   0
  -2   7  -5    2.72    0.15   0
   2  -7   5    2.93    0.14   0
   3  -7   5    0.34    0.15   0
  -3   7  -5    0.37    0.11   0
  -3   7  -5    0.28    0.13   0
  -3   7  -5    0.50    0.15   0
   3  -7   5    0.46    0.13   0
  -4   7  -5    3.41    0.15   0
   4  -7   5    3.46    0.15   0
  -4   7  -5    3.13    0.15   0
  -4   7  -5    3.34    0.15   0
   4  -7   5    3.65    0.15   0
   5  -7   5    0.00    0.14   0
  -5   7  -5    0.30    0.13   0
  -5   7  -5    0.23    0.11   0
   5  -7   5    0.35    0.13   0
  -5   7  -5    0.32    0.13   0
  -6   7  -5    6.68    0.16   0
   6  -7   5    6.14    0.16   0
  -6   7  -5    6.40    0.16   0
   6  -7   5    6.87    0.17   0
  -6   7  -5    6.38    0.17   0
  -7   7  -5    6.18    0.18   0
   7  -7   5    5.86    0.15   0
  -7   7  -5    6.51    0.17   0
   7  -7   5    6.89    0.17   0
  -7   7  -5    5.87    0.16   0
  -8   7  -5    0.81    0.15   0
   8  -7   5    0.88    0.15   0
   8  -7   5    0.84    0.14   0
  -8   7  -5    0.87    0.14   0
  -8   7  -5    0.68    0.17   0
   8   6  -5    1.77    0.20   0
   8   6  -5    1.81    0.22   0
   8   6  -5    1.78    0.26   0
   8   6  -5    1.90    0.28   0
   8   6  -5    1.81    0.21   0
   7   6  -5    2.42    0.22   0
   7   6  -5    2.23    0.18   0
   7   6  -5    2.15    0.19   0
   7   6  -5    2.32    0.18   0
   6   6  -5   -0.02    0.17   0
   6   6  -5    0.10    0.18   0
   6   6  -5    0.10    0.16   0
   6   6  -5   -0.05    0.19   0
   5   6  -5    3.00    0.17   0
   5   6  -5    2.98    0.20   0
   5   6  -5    3.06    0.19   0
   5   6  -5    2.84    0.17   0
   4   6  -5    1.20    0.13   0
   4   6  -5    1.17    0.16   0
   4   6  -5    1.43    0.17   0
   4   6  -5    1.35    0.17   0
   3   6  -5   26.45    0.22   0
   3   6  -5   26.48    0.25   0
   3   6  -5   26.36    0.26   0
   3   6  -5   27.33    0.23   0
   2   6  -5    2.42    0.16   0
   2   6  -5    2.27    0.18   0
  -2  -6   5    2.54    0.17   0
  -2  -6   5    2.65    0.15   0
  -1  -6   5    0.28    0.13   0
   1   6  -5    0.24    0.14   0
   1   6  -5    0.13    0.16   0
  -1  -6   5    0.18    0.15   0
   0   6  -5    0.07    0.13   0
   0   6  -5    0.26    0.16   0
   0  -6   5    0.20    0.15   0
   0  -6   5    0.05    0.13   0
   1  -6   5    0.97    0.12   0
   1  -6   5    0.79    0.15   0
  -1   6  -5    1.07    0.12   0
  -1   6  -5    0.81    0.13   0
  -1   6  -5    0.74    0.13   0
  -2   6  -5    1.14    0.11   0
  -2   6  -5    1.10    0.13   0
  -2   6  -5    1.25    0.13   0
   2  -6   5    1.06    0.12   0
   2  -6   5    1.25    0.13   0
   3  -6   5    5.72    0.13   0
   3  -6   5    5.74    0.13   0
  -3   6  -5    5.52    0.15   0
  -3   6  -5    5.58    0.15   0
  -3   6  -5    5.58    0.16   0
   4  -6   5   31.27    0.23   0
  -4   6  -5   31.18    0.22   0
  -4   6  -5   32.44    0.23   0
   4  -6   5   33.53    0.23   0
  -4   6  -5   32.33    0.21   0
   5  -6   5   17.83    0.19   0
  -5   6  -5   18.13    0.19   0
  -5   6  -5   18.26    0.17   0
  -5   6  -5   19.60    0.20   0
   5  -6   5   19.77    0.20   0
   6  -6   5   13.39    0.18   0
  -6   6  -5   11.98    0.19   0
   6  -6   5   12.24    0.17   0
  -6   6  -5   13.33    0.21   0
  -6   6  -5   12.56    0.18   0
  -7   6  -5   -0.09    0.14   0
   7  -6   5    0.16    0.16   0
   7  -6   5    0.02    0.15   0
  -7   6  -5    0.01    0.14   0
  -7   6  -5    0.11    0.15   0
  -8   6  -5    0.35    0.14   0
   8  -6   5    0.36    0.17   0
  -8   6  -5    0.41    0.17   0
  -8   6  -5    0.30    0.16   0
   8  -6   5    0.43    0.15   0
   8   5  -5    0.08    0.19   0
   8   5  -5    0.01    0.23   0
   8   5  -5    0.27    0.19   0
   8   5  -5   -0.03    0.16   0
   8   5  -5    0.14    0.21   0
   7   5  -5    0.80    0.17   0
   7   5  -5    0.80    0.20   0
   7   5  -5    0.62    0.18   0
   7   5  -5    0.85    0.17   0
   6   5  -5    1.90    0.17   0
   6   5  -5    1.79    0.16   0
   6   5  -5    1.83    0.17   0
   6   5  -5    1.81    0.17   0
   5   5  -5    3.37    0.17   0
   5   5  -5    3.59    0.18   0
   5   5  -5    3.64    0.17   0
   5   5  -5    3.57    0.17   0
   4   5  -5   17.22    0.22   0
   4   5  -5   17.29    0.22   0
   4   5  -5   17.84    0.21   0
   4   5  -5   17.43    0.23   0
   3   5  -5   20.36    0.20   0
   3   5  -5   20.42    0.23   0
   3   5  -5   20.59    0.24   0
   3   5  -5   21.20    0.20   0
   2   5  -5    7.53    0.18   0
  -2  -5   5    8.14    0.17   0
   2   5  -5    7.69    0.16   0
   1   5  -5    0.30    0.16   0
  -1  -5   5    0.59    0.15   0
  -1  -5   5    0.98    0.13   0
   1   5  -5    0.43    0.13   0
   0   5  -5   11.35    0.19   0
   0   5  -5   12.15    0.15   0
   0  -5   5   11.94    0.17   0
   0  -5   5   12.78    0.17   0
  -1   5  -5   48.31    0.26   0
  -1   5  -5   46.55    0.27   0
   1  -5   5   46.52    0.27   0
   1  -5   5   49.89    0.26   0
  -1   5  -5   47.64    0.26   0
   2  -5   5   21.53    0.21   0
   2  -5   5   19.76    0.20   0
  -2   5  -5   20.55    0.20   0
  -2   5  -5   20.40    0.20   0
  -2   5  -5   19.52    0.20   0
   3  -5   5    1.56    0.11   0
   3  -5   5    1.50    0.15   0
  -3   5  -5    1.61    0.14   0
  -3   5  -5    1.40    0.14   0
  -3   5  -5    1.75    0.15   0
   4  -5   5   10.77    0.18   0
  -4   5  -5   10.07    0.18   0
   4  -5   5    9.94    0.18   0
  -4   5  -5   10.43    0.17   0
  -4   5  -5   10.09    0.17   0
   5  -5   5    1.56    0.14   0
   5  -5   5    1.25    0.13   0
  -5   5  -5    1.38    0.15   0
  -5   5  -5    1.51    0.16   0
  -5   5  -5    1.30    0.15   0
  -6   5  -5    9.82    0.17   0
   6  -5   5   10.33    0.18   0
  -6   5  -5   10.16    0.18   0
  -6   5  -5    9.26    0.17   0
   6  -5   5    8.85    0.17   0
   7  -5   5   15.73    0.19   0
   7  -5   5   18.27    0.23   0
  -7   5  -5   17.45    0.21   0
  -7   5  -5   16.32    0.22   0
  -7   5  -5   16.86    0.19   0
  -8   5  -5    1.70    0.20   0
  -8   5  -5    1.83    0.15   0
   8  -5   5    1.60    0.13   0
   8  -5   5    1.69    0.18   0
  -8   5  -5    1.93    0.18   0
   9   4  -5    0.10    0.28   0
   9   4  -5    0.16    0.23   0
   9   4  -5    0.24    0.19   0
   9   4  -5    0.11    0.18   0
   9   4  -5    0.16    0.28   0
   8   4  -5    0.42    0.20   0
   8   4  -5    0.25    0.18   0
   8   4  -5    0.30    0.19   0
   8   4  -5    0.29    0.20   0
   8   4  -5    0.58    0.17   0
   7   4  -5    0.55    0.17   0
   7   4  -5    0.44    0.18   0
   7   4  -5    0.46    0.17   0
   7   4  -5    0.39    0.16   0
   6   4  -5    7.58    0.19   0
   6   4  -5    7.91    0.20   0
   6   4  -5    7.62    0.20   0
   6   4  -5    7.81    0.21   0
   5   4  -5   -0.07    0.16   0
   5   4  -5    0.03    0.16   0
   5   4  -5    0.05    0.16   0
   5   4  -5   -0.05    0.16   0
   4   4  -5    0.10    0.13   0
   4   4  -5    0.10    0.13   0
   4   4  -5   -0.01    0.13   0
   4   4  -5    0.29    0.15   0
   3   4  -5    3.02    0.15   0
   3   4  -5    2.88    0.16   0
   3   4  -5    3.01    0.15   0
   3   4  -5    2.91    0.15   0
   2   4  -5   19.94    0.21   0
   2   4  -5   19.73    0.20   0
   2   4  -5   19.07    0.22   0
  -2  -4   5   20.67    0.22   0
  -1  -4   5    1.99    0.17   0
  -1  -4   5    2.06    0.15   0
   1   4  -5    1.99    0.17   0
   1   4  -5    1.88    0.15   0
   0   4  -5   15.55    0.21   0
   0   4  -5   15.69    0.17   0
   0  -4   5   16.09    0.21   0
   0   4  -5   16.09    0.20   0
   0  -4   5   16.84    0.20   0
  -1   4  -5  195.31    0.49   0
   1  -4   5  195.59    0.47   0
  -1   4  -5  203.78    0.49   0
   1  -4   5  217.52    0.50   0
  -1   4  -5  194.39    0.47   0
   2  -4   5    7.03    0.17   0
  -2   4  -5    7.04    0.17   0
   2  -4   5    7.60    0.16   0
  -2   4  -5    7.54    0.16   0
  -2   4  -5    7.10    0.16   0
   3  -4   5    3.99    0.15   0
   3  -4   5    3.73    0.15   0
  -3   4  -5    3.68    0.13   0
   3  -4   5    3.44    0.13   0
  -3   4  -5    3.70    0.17   0
  -3   4  -5    3.61    0.16   0
   4  -4   5   49.06    0.26   0
   4  -4   5   53.83    0.29   0
  -4   4  -5   52.08    0.27   0
   4  -4   5   51.92    0.27   0
  -4   4  -5   49.74    0.26   0
  -4   4  -5   48.80    0.27   0
   5  -4   5   25.45    0.22   0
  -5   4  -5   25.52    0.22   0
  -5   4  -5   24.99    0.24   0
   5  -4   5   27.58    0.24   0
   5  -4   5   26.42    0.21   0
  -5   4  -5   27.03    0.22   0
  -6   4  -5    6.34    0.19   0
   6  -4   5    6.34    0.17   0
   6  -4   5    7.09    0.19   0
   6  -4   5    6.61    0.16   0
  -6   4  -5    7.08    0.16   0
  -6   4  -5    6.49    0.16   0
   7  -4   5    0.26    0.14   0
   7  -4   5    0.36    0.16   0
  -7   4  -5    0.56    0.18   0
   7  -4   5    0.37    0.14   0
  -7   4  -5    0.46    0.17   0
  -7   4  -5    0.46    0.14   0
  -8   4  -5    1.21    0.19   0
   8  -4   5    1.33    0.15   0
  -8   4  -5    1.39    0.15   0
   8  -4   5    1.07    0.18   0
   8  -4   5    1.28    0.19   0
  -8   4  -5    1.74    0.18   0
   9  -4   5   -0.06    0.16   0
  -9   4  -5   -0.08    0.24   0
  -9   4  -5   -0.04    0.15   0
   9   3  -5    3.47    0.20   0
   9   3  -5    3.07    0.19   0
   9   3  -5    3.14    0.25   0
   9   3  -5    3.14    0.27   0
   9   3  -5    3.11    0.25   0
   8   3  -5    1.04    0.17   0
   8   3  -5    0.91    0.18   0
   8   3  -5    0.97    0.17   0
   8   3  -5    0.94    0.22   0
   8   3  -5    0.98    0.19   0
   7   3  -5    0.16    0.18   0
   7   3  -5    0.04    0.15   0
   7   3  -5   -0.18    0.15   0
   7   3  -5    0.08    0.18   0
   7   3  -5    0.01    0.17   0
   6   3  -5    1.56    0.18   0
   6   3  -5    1.39    0.17   0
   6   3  -5    1.32    0.17   0
   6   3  -5    1.33    0.14   0
   5   3  -5    2.11    0.16   0
   5   3  -5    2.18    0.15   0
   5   3  -5    2.02    0.16   0
   5   3  -5    1.90    0.14   0
   4   3  -5    0.41    0.17   0
   4   3  -5    0.43    0.13   0
   4   3  -5    0.33    0.15   0
   4   3  -5    0.24    0.14   0
   3   3  -5    4.84    0.15   0
   3   3  -5    5.26    0.16   0
   3   3  -5    4.90    0.16   0
   3   3  -5    5.43    0.17   0
   2   3  -5   15.93    0.20   0
   2   3  -5   16.19    0.20   0
   2   3  -5   15.56    0.21   0
  -2  -3   5   16.15    0.21   0
  -1  -3   5    3.34    0.16   0
   1   3  -5    3.07    0.17   0
   1   3  -5    3.44    0.15   0
   1   3  -5    3.17    0.13   0
   1   3  -5    3.42    0.16   0
   0   3  -5    0.14    0.16   0
   0   3  -5    0.16    0.14   0
   0  -3   5    0.24    0.15   0
   0   3  -5    0.17    0.11   0
   0  -3   5    0.20    0.11   0
  -1   3  -5    5.02    0.15   0
   1  -3   5    5.78    0.16   0
  -1   3  -5    5.42    0.16   0
   1  -3   5    5.27    0.17   0
   1  -3   5    5.64    0.16   0
  -1   3  -5    5.52    0.16   0
  -2   3  -5    0.61    0.16   0
   2  -3   5    0.56    0.15   0
   2  -3   5    0.55    0.14   0
   2  -3   5    0.49    0.11   0
  -2   3  -5    0.70    0.14   0
  -2   3  -5    0.49    0.14   0
  -3   3  -5    3.11    0.17   0
  -3   3  -5    3.05    0.17   0
   3  -3   5    3.07    0.16   0
   3  -3   5    3.31    0.15   0
   3  -3   5    3.33    0.15   0
  -3   3  -5    3.27    0.13   0
  -4   3  -5    2.14    0.15   0
   4  -3   5    1.97    0.15   0
   4  -3   5    2.41    0.16   0
   4  -3   5    2.37    0.14   0
  -4   3  -5    2.11    0.16   0
  -4   3  -5    2.38    0.15   0
  -5   3  -5    4.81    0.16   0
   5  -3   5    4.59    0.17   0
  -5   3  -5    5.10    0.19   0
   5  -3   5    5.42    0.18   0
   5  -3   5    5.18    0.15   0
  -5   3  -5    5.25    0.16   0
   6  -3   5    0.43    0.14   0
  -6   3  -5    0.45    0.17   0
   6  -3   5    0.62    0.17   0
   6  -3   5    0.51    0.13   0
  -6   3  -5    0.44    0.14   0
  -6   3  -5    0.49    0.14   0
   7  -3   5    3.96    0.16   0
   7  -3   5    4.22    0.17   0
  -7   3  -5    3.88    0.15   0
  -7   3  -5    3.92    0.21   0
  -7   3  -5    4.34    0.15   0
  -8   3  -5    5.98    0.26   0
  -8   3  -5    5.87    0.17   0
   8  -3   5    5.71    0.18   0
   8  -3   5    6.21    0.17   0
  -8   3  -5    5.99    0.27   0
   9  -3   5    1.17    0.16   0
   9  -3   5    1.11    0.16   0
   9   2  -5    0.37    0.21   0
   9   2  -5    0.56    0.17   0
   9   2  -5    0.54    0.18   0
   8   2  -5    4.12    0.20   0
   8   2  -5    3.89    0.28   0
  -8  -2   5    3.95    0.16   0
   8   2  -5    3.94    0.18   0
   8   2  -5    3.89    0.18   0
  -7  -2   5    2.19    0.15   0
   7   2  -5    2.22    0.17   0
   7   2  -5    2.24    0.19   0
   7   2  -5    2.01    0.14   0
   7   2  -5    2.13    0.23   0
  -6  -2   5    3.81    0.15   0
   6   2  -5    3.66    0.19   0
   6   2  -5    3.61    0.17   0
  -5  -2   5   44.12    0.30   0
   5   2  -5   43.40    0.27   0
   5   2  -5   46.52    0.31   0
   4   2  -5   11.05    0.18   0
   4   2  -5    9.99    0.18   0
  -4  -2   5   11.01    0.20   0
   4   2  -5   10.93    0.19   0
   3   2  -5    2.47    0.17   0
   3   2  -5    2.56    0.16   0
   3   2  -5    2.39    0.16   0
   3   2  -5    2.37    0.16   0
  -3  -2   5    2.51    0.15   0
   2   2  -5    2.54    0.15   0
   2   2  -5    2.54    0.13   0
   2   2  -5    2.27    0.16   0
   2   2  -5    2.48    0.15   0
   1   2  -5    3.93    0.16   0
   1   2  -5    4.05    0.18   0
  -1  -2   5    4.19    0.14   0
   1   2  -5    4.11    0.17   0
   1   2  -5    3.96    0.16   0
   0   2  -5  105.56    0.41   0
   0  -2   5  112.57    0.42   0
   0   2  -5  113.17    0.40   0
   0  -2   5  109.65    0.41   0
   0   2  -5  110.32    0.41   0
   0   2  -5  109.89    0.40   0
  -1   2  -5  122.02    0.43   0
  -1   2  -5  112.65    0.41   0
  -1   2  -5  121.43    0.42   0
   1  -2   5  116.80    0.40   0
  -1   2  -5  117.95    0.40   0
   1  -2   5  119.93    0.42   0
  -2   2  -5    6.92    0.19   0
  -2   2  -5    7.55    0.17   0
  -2   2  -5    7.56    0.17   0
   2  -2   5    7.78    0.17   0
   2  -2   5    7.32    0.18   0
  -3   2  -5   29.15    0.25   0
  -3   2  -5   30.42    0.24   0
  -3   2  -5   27.98    0.24   0
   3  -2   5   30.73    0.23   0
   3  -2   5   28.02    0.24   0
  -4   2  -5    1.22    0.15   0
   4  -2   5    1.21    0.16   0
   4  -2   5    1.31    0.14   0
  -4   2  -5    1.15    0.14   0
  -4   2  -5    1.14    0.18   0
  -5   2  -5    3.24    0.17   0
   5  -2   5    3.28    0.15   0
  -5   2  -5    2.93    0.19   0
   5  -2   5    3.28    0.15   0
  -5   2  -5    3.54    0.15   0
  -6   2  -5    8.36    0.23   0
  -6   2  -5    8.27    0.23   0
  -6   2  -5    8.69    0.17   0
   6  -2   5    9.05    0.17   0
   6  -2   5    7.87    0.17   0
  -6   2  -5    8.36    0.17   0
  -7   2  -5    0.21    0.14   0
  -7   2  -5    0.10    0.23   0
   7  -2   5    0.05    0.17   0
   7  -2   5    0.06    0.16   0
  -7   2  -5    0.02    0.25   0
  -7   2  -5    0.07    0.16   0
   8  -2   5    0.02    0.17   0
   8  -2   5    0.19    0.17   0
  -8   2  -5    0.23    0.16   0
  10   1  -5    0.29    0.21   0
   9   1  -5    0.56    0.19   0
  -9  -1   5    0.79    0.14   0
   9   1  -5    0.68    0.15   0
  -8  -1   5    0.13    0.15   0
   8   1  -5    0.14    0.17   0
  -8  -1   5    0.07    0.14   0
   8   1  -5    0.18    0.14   0
  -7  -1   5   11.40    0.20   0
  -7  -1   5   12.44    0.19   0
   7   1  -5   11.72    0.21   0
   7   1  -5   12.29    0.19   0
  -6  -1   5    0.59    0.17   0
  -6  -1   5    0.88    0.15   0
   6   1  -5    0.78    0.29   0
   6   1  -5    0.76    0.16   0
   6   1  -5    0.66    0.15   0
   6   1  -5    0.78    0.30   0
  -5  -1   5   18.55    0.22   0
   5   1  -5   19.10    0.23   0
   5   1  -5   18.28    0.35   0
  -5  -1   5   19.00    0.21   0
   5   1  -5   19.08    0.21   0
  -4  -1   5    2.72    0.17   0
  -4  -1   5    2.58    0.13   0
   4   1  -5    2.59    0.15   0
   4   1  -5    2.64    0.22   0
   4   1  -5    2.70    0.15   0
   3   1  -5    0.39    0.14   0
   3   1  -5    0.32    0.16   0
  -3  -1   5    0.31    0.15   0
   3   1  -5    0.27    0.15   0
   2   1  -5   12.55    0.20   0
   2   1  -5   12.57    0.19   0
   2   1  -5   12.27    0.17   0
   2   1  -5   12.17    0.22   0
  -2  -1   5   12.64    0.19   0
  -1  -1   5    0.24    0.15   0
  -1  -1   5    0.23    0.15   0
   1   1  -5    0.44    0.15   0
  -1  -1   5    0.38    0.14   0
   1   1  -5    0.35    0.15   0
   1   1  -5    0.16    0.16   0
   0  -1   5   10.58    0.19   0
   0   1  -5   10.08    0.19   0
   0   1  -5    9.69    0.20   0
   0  -1   5   10.39    0.20   0
   0  -1   5   10.00    0.17   0
   0   1  -5   10.47    0.20   0
  -1   1  -5   78.33    0.36   0
  -1   1  -5   77.84    0.37   0
   1  -1   5   76.28    0.36   0
  -1   1  -5   72.38    0.35   0
   1  -1   5   76.55    0.34   0
  -1   1  -5   77.07    0.34   0
  -2   1  -5   34.83    0.27   0
  -2   1  -5   36.96    0.27   0
  -2   1  -5   38.25    0.29   0
   2  -1   5   37.82    0.24   0
   2  -1   5   36.03    0.27   0
  -2   1  -5   38.14    0.25   0
  -3   1  -5    4.27    0.16   0
  -3   1  -5    3.79    0.19   0
   3  -1   5    3.85    0.19   0
  -3   1  -5    4.15    0.17   0
   3  -1   5    4.55    0.16   0
  -3   1  -5    4.25    0.16   0
  -4   1  -5    2.88    0.15   0
   4  -1   5    2.81    0.16   0
  -4   1  -5    2.91    0.19   0
   4  -1   5    3.14    0.15   0
  -4   1  -5    3.05    0.19   0
  -4   1  -5    2.89    0.15   0
  -5   1  -5    2.17    0.16   0
  -5   1  -5    2.05    0.13   0
  -5   1  -5    2.19    0.19   0
   5  -1   5    2.41    0.15   0
  -5   1  -5    1.95    0.21   0
   5  -1   5    2.08    0.17   0
  -6   1  -5   11.40    0.36   0
  -6   1  -5   11.28    0.35   0
  -6   1  -5   11.20    0.20   0
   6  -1   5   11.65    0.19   0
   6  -1   5   11.40    0.20   0
   7  -1   5    4.57    0.17   0
   7  -1   5    5.10    0.17   0
  -7   1  -5    4.70    0.18   0
   8  -1   5    1.12    0.16   0
  -8   1  -5    1.19    0.17   0
   8  -1   5    0.98    0.15   0
  10   0  -5    0.03    0.19   0
 -10   0   5    0.38    0.18   0
  10   0  -5   -0.01    0.16   0
  -9   0   5    0.17    0.16   0
   9   0  -5    0.29    0.16   0
  -9   0   5    0.17    0.18   0
   9   0  -5    0.18    0.19   0
  -8   0   5    4.38    0.18   0
   8   0  -5    4.37    0.19   0
  -8   0   5    4.61    0.16   0
   8   0  -5    4.79    0.16   0
  -7   0   5    1.97    0.16   0
   7   0  -5    2.15    0.15   0
  -7   0   5    2.05    0.14   0
   7   0  -5    1.92    0.17   0
  -6   0   5    9.07    0.18   0
  -6   0   5   10.00    0.18   0
   6   0  -5    9.33    0.16   0
   6   0  -5    9.57    0.18   0
  -5   0   5    2.30    0.14   0
   5   0  -5    2.28    0.16   0
   5   0  -5    2.36    0.15   0
  -5   0   5    2.47    0.15   0
   4   0  -5    0.33    0.30   0
  -4   0   5    0.36    0.15   0
  -4   0   5    0.25    0.15   0
   4   0  -5    0.23    0.16   0
   4   0  -5    0.16    0.15   0
  -3   0   5   12.86    0.18   0
  -3   0   5   12.94    0.19   0
   3   0  -5   13.74    0.18   0
   3   0  -5   13.28    0.30   0
   3   0  -5   12.71    0.17   0
   2   0  -5    1.70    0.16   0
  -2   0   5    1.69    0.15   0
   2   0  -5    1.55    0.16   0
   2   0  -5    6.69    0.17   0
  -2   0   5    1.64    0.18   0
   2   0  -5    1.62    0.19   0
  -1   0   5    1.32    0.15   0
   1   0  -5    1.47    0.16   0
   1   0  -5    1.52    0.16   0
   1   0  -5    1.30    0.17   0
   1   0  -5    1.41    0.14   0
  -1   0   5    1.42    0.16   0
   0   0   5    6.44    0.18   0
   0   0  -5    6.50    0.18   0
   0   0  -5    6.55    0.18   0
   0   0  -5    5.91    0.19   0
   0   0   5    6.20    0.18   0
   0   0   5    6.38    0.18   0
   1   0   5    0.47    0.16   0
  -1   0  -5    0.54    0.16   0
   1   0   5    0.45    0.15   0
   1   0   5    0.25    0.15   0
  -1   0  -5    0.53    0.14   0
  -1   0  -5    0.43    0.15   0
  -2   0  -5   54.25    0.36   0
  -2   0  -5   52.64    0.35   0
  -2   0  -5   48.42    0.31   0
   2   0   5   54.60    0.29   0
   2   0   5   50.86    0.31   0
  -2   0  -5   51.70    0.27   0
   3   0   5    7.90    0.18   0
  -3   0  -5    7.22    0.22   0
   3   0   5    6.60    0.17   0
  -3   0  -5    6.53    0.17   0
  -3   0  -5    6.90    0.17   0
  -3   0  -5    7.06    0.23   0
  -4   0  -5   28.90    0.27   0
   4   0   5   28.64    0.27   0
  -4   0  -5   30.65    0.23   0
   4   0   5   32.51    0.24   0
  -4   0  -5   31.73    0.37   0
  -4   0  -5   29.19    0.35   0
   5   0   5    1.22    0.17   0
  -5   0  -5    1.19    0.33   0
   5   0   5    1.37    0.14   0
  -5   0  -5    1.25    0.17   0
  -5   0  -5    1.14    0.32   0
   6   0   5    0.78    0.17   0
   6   0   5    0.82    0.17   0
  -6   0  -5    0.68    0.16   0
   7   0   5    1.14    0.17   0
   7   0   5    1.57    0.15   0
  -7   0  -5    1.27    0.17   0
   8   0   5    0.04    0.18   0
   8   0   5    0.14    0.17   0
  -8   0  -5    0.07    0.17   0
 -10   1   5    1.55    0.20   0
  10  -1  -5    1.31    0.18   0
  10  -1  -5    1.53    0.16   0
 -10   1   5    1.59    0.16   0
   9  -1  -5    0.47    0.17   0
  -9   1   5    0.57    0.16   0
  -9   1   5    0.55    0.14   0
   9  -1  -5    0.51    0.14   0
  -8   1   5    0.05    0.13   0
   8  -1  -5   -0.04    0.14   0
  -8   1   5    0.23    0.13   0
   8  -1  -5    0.10    0.15   0
   7  -1  -5    0.44    0.14   0
  -7   1   5    0.22    0.15   0
  -7   1   5   -0.09    0.14   0
   7  -1  -5    0.30    0.14   0
   6  -1  -5   27.47    0.24   0
  -6   1   5   26.92    0.22   0
   6  -1  -5   28.62    0.23   0
  -6   1   5   29.02    0.23   0
   5  -1  -5    4.19    0.16   0
   5  -1  -5    4.13    0.17   0
  -5   1   5    4.12    0.16   0
  -5   1   5    4.10    0.16   0
  -4   1   5   19.32    0.22   0
   4  -1  -5   19.85    0.23   0
  -4   1   5   20.01    0.22   0
   4  -1  -5   19.77    0.19   0
  -3   1   5  269.69    0.57   0
  -3   1   5  269.52    0.58   0
   3  -1  -5  264.84    0.58   0
   3  -1  -5  280.54    0.62   0
  -3   1   5 1398.40    2.04   0
  -2   1   5   59.47    0.31   0
   2  -1  -5   58.80    0.30   0
   2  -1  -5   62.55    0.33   0
  -2   1   5   57.70    0.39   0
  -2   1   5   59.84    0.32   0
   2  -1  -5   60.80    0.40   0
  -1   1   5   28.79    0.25   0
  -1   1   5   27.99    0.27   0
   1  -1  -5   27.72    0.25   0
   1  -1  -5   29.30    0.26   0
   1  -1  -5   29.03    0.26   0
   1  -1  -5   30.47    0.29   0
   0   1   5  138.80    0.47   0
   0  -1  -5  145.96    0.50   0
   0  -1  -5  137.16    0.50   0
   0   1   5  139.53    0.45   0
   0  -1  -5  141.03    0.47   0
  -1  -1  -5   15.50    0.23   0
   1   1   5   16.83    0.23   0
   1   1   5   16.80    0.24   0
  -1  -1  -5   17.93    0.23   0
   1   1   5   18.10    0.21   0
  -1  -1  -5   17.01    0.20   0
  -2  -1  -5   27.69    0.28   0
   2   1   5   30.26    0.29   0
   2   1   5   29.81    0.28   0
  -2  -1  -5   30.60    0.23   0
   2   1   5   31.99    0.22   0
  -2  -1  -5   32.54    0.31   0
   3   1   5   29.77    0.28   0
  -3  -1  -5   32.01    0.36   0
  -3  -1  -5   28.47    0.28   0
   3   1   5   33.31    0.24   0
  -3  -1  -5   31.47    0.34   0
  -4  -1  -5    2.57    0.26   0
   4   1   5    2.55    0.18   0
  -4  -1  -5    2.72    0.28   0
  -4  -1  -5    2.54    0.20   0
   4   1   5    2.87    0.14   0
   5   1   5    0.32    0.15   0
   5   1   5    0.10    0.18   0
  -5  -1  -5    0.22    0.16   0
   6   1   5    0.78    0.19   0
   6   1   5    0.80    0.15   0
  -6  -1  -5    0.85    0.19   0
   7   1   5    1.45    0.20   0
   7   1   5    1.36    0.16   0
  -7  -1  -5    1.42    0.19   0
   8   1   5    2.54    0.20   0
  -8  -1  -5    2.65    0.19   0
   8   1   5    2.53    0.17   0
 -10   2   5    0.57    0.17   0
  10  -2  -5    1.10    0.16   0
  10  -2  -5    0.77    0.18   0
 -10   2   5    0.94    0.15   0
   9  -2  -5    1.70    0.15   0
  -9   2   5    1.56    0.14   0
   9  -2  -5    1.74    0.15   0
  -9   2   5    2.00    0.14   0
   8  -2  -5    2.84    0.17   0
   8  -2  -5    3.16    0.15   0
  -8   2   5    3.07    0.14   0
  -8   2   5    3.07    0.12   0
  -7   2   5   13.38    0.18   0
   7  -2  -5   12.60    0.18   0
  -7   2   5   12.63    0.15   0
   7  -2  -5   12.84    0.21   0
  -6   2   5    2.49    0.14   0
  -6   2   5    2.38    0.15   0
   6  -2  -5    2.57    0.15   0
   6  -2  -5    2.56    0.16   0
  -5   2   5    0.11    0.14   0
   5  -2  -5    0.18    0.15   0
  -5   2   5   -0.02    0.14   0
   5  -2  -5    0.28    0.12   0
  -4   2   5    2.76    0.17   0
  -4   2   5    2.65    0.31   0
   4  -2  -5    2.71    0.18   0
  -4   2   5    2.82    0.16   0
   4  -2  -5    2.70    0.14   0
  -3   2   5    0.16    0.15   0
  -3   2   5    0.03    0.15   0
   3  -2  -5    0.40    0.15   0
  -3   2   5    0.10    0.20   0
   3  -2  -5    0.16    0.16   0
  -2   2   5    0.81    0.14   0
   2  -2  -5    0.63    0.15   0
   2  -2  -5    0.69    0.12   0
  -2   2   5    0.70    0.17   0
  -2   2   5    0.66    0.15   0
   1  -2  -5    2.22    0.15   0
  -1   2   5    2.04    0.15   0
   1  -2  -5    2.16    0.16   0
  -1   2   5    2.21    0.16   0
   0   2   5    3.45    0.17   0
   0  -2  -5    3.28    0.18   0
   0  -2  -5    3.31    0.16   0
   0  -2  -5    3.50    0.18   0
   0   2   5    3.50    0.16   0
  -1  -2  -5   73.36    0.42   0
   1   2   5   78.03    0.39   0
  -1  -2  -5   79.27    0.39   0
   1   2   5   81.61    0.34   0
   2   2   5    1.42    0.18   0
  -2  -2  -5    1.33    0.20   0
   2   2   5    1.41    0.19   0
  -2  -2  -5    1.59    0.17   0
   2   2   5    1.34    0.12   0
  -3  -2  -5    0.23    0.20   0
   3   2   5    0.31    0.19   0
   3   2   5    0.04    0.14   0
  -3  -2  -5    0.34    0.22   0
  -4  -2  -5    4.75    0.23   0
   4   2   5    4.59    0.23   0
   4   2   5    4.95    0.17   0
   5   2   5    9.99    0.25   0
   5   2   5   10.85    0.18   0
  -5  -2  -5    9.96    0.23   0
   6   2   5    0.24    0.20   0
   6   2   5    0.51    0.14   0
  -6  -2  -5    0.34    0.19   0
   7   2   5    0.37    0.15   0
   7   2   5    0.30    0.21   0
  -7  -2  -5    0.34    0.20   0
   8   2   5    0.14    0.22   0
  -8  -2  -5    0.11    0.22   0
   8   2   5    0.44    0.18   0
 -10   3   5    1.60    0.18   0
  10  -3  -5    1.51    0.18   0
  10  -3  -5    1.79    0.16   0
 -10   3   5    1.47    0.13   0
   9  -3  -5    0.41    0.16   0
  -9   3   5    0.59    0.14   0
   9  -3  -5    0.54    0.13   0
  -9   3   5    0.42    0.11   0
   8  -3  -5    0.15    0.16   0
  -8   3   5    0.08    0.15   0
  -8   3   5    0.43    0.13   0
   8  -3  -5    0.17    0.14   0
  -7   3   5    1.97    0.14   0
   7  -3  -5    1.97    0.14   0
  -7   3   5    1.70    0.14   0
   7  -3  -5    1.85    0.12   0
  -6   3   5   -0.13    0.14   0
  -6   3   5   -0.04    0.14   0
   6  -3  -5   -0.03    0.14   0
   6  -3  -5    0.24    0.15   0
   5  -3  -5    1.00    0.12   0
  -5   3   5    1.27    0.11   0
   5  -3  -5    1.48    0.15   0
  -5   3   5    1.16    0.14   0
  -4   3   5    1.89    0.14   0
   4  -3  -5    1.93    0.15   0
  -4   3   5    2.01    0.15   0
  -4   3   5    1.88    0.24   0
   4  -3  -5    2.03    0.13   0
  -3   3   5    3.71    0.15   0
   3  -3  -5    3.80    0.14   0
  -3   3   5    3.52    0.16   0
   3  -3  -5    3.64    0.15   0
  -3   3   5    3.76    0.19   0
  -2   3   5   63.32    0.32   0
  -2   3   5   66.80    0.30   0
   2  -3  -5   67.17    0.34   0
  -2   3   5   64.79    0.35   0
   2  -3  -5   65.55    0.32   0
  -1   3   5   22.56    0.23   0
  -1   3   5   23.63    0.21   0
   1  -3  -5   23.60    0.23   0
   1  -3  -5   23.95    0.24   0
  -1   3   5   24.20    0.23   0
   0   3   5   11.35    0.20   0
   0  -3  -5   10.92    0.21   0
   0  -3  -5   11.09    0.20   0
   0  -3  -5   11.49    0.22   0
   0   3   5   11.28    0.18   0
  -1  -3  -5   14.35    0.28   0
  -1  -3  -5   12.47    0.26   0
   1   3   5   13.25    0.21   0
  -1  -3  -5   12.80    0.21   0
   1   3   5   13.78    0.16   0
  -2  -3  -5   14.45    0.30   0
  -2  -3  -5   16.93    0.33   0
   2   3   5   15.63    0.25   0
   2   3   5   16.18    0.19   0
  -2  -3  -5   15.32    0.25   0
  -3  -3  -5    5.30    0.28   0
   3   3   5    5.49    0.25   0
  -3  -3  -5    5.48    0.25   0
   3   3   5    5.45    0.18   0
   4   3   5   19.29    0.37   0
   4   3   5   19.31    0.19   0
  -4  -3  -5   19.08    0.37   0
   5   3   5    0.22    0.25   0
   5   3   5   -0.07    0.14   0
  -5  -3  -5    0.05    0.23   0
   6   3   5    1.02    0.14   0
   6   3   5    0.92    0.27   0
  -6  -3  -5    1.11    0.27   0
   7   3   5    1.68    0.34   0
  -7  -3  -5    1.62    0.34   0
   7   3   5    1.91    0.16   0
  10  -4  -5    0.25    0.16   0
 -10   4   5    0.01    0.15   0
  10  -4  -5    0.23    0.15   0
 -10   4   5    0.14    0.15   0
   9  -4  -5    0.97    0.16   0
   9  -4  -5    0.86    0.15   0
  -9   4   5    0.66    0.16   0
  -9   4   5    0.81    0.14   0
   8  -4  -5    0.62    0.14   0
  -8   4   5    0.36    0.13   0
  -8   4   5    0.16    0.13   0
   8  -4  -5    0.20    0.14   0
   7  -4  -5    1.31    0.14   0
  -7   4   5    1.27    0.14   0
  -7   4   5    1.15    0.11   0
   7  -4  -5    1.42    0.14   0
   6  -4  -5    8.30    0.17   0
  -6   4   5    8.59    0.17   0
   6  -4  -5    8.59    0.14   0
  -6   4   5    8.80    0.16   0
  -5   4   5    0.17    0.23   0
  -5   4   5    0.05    0.14   0
  -5   4   5    0.22    0.13   0
   5  -4  -5    0.24    0.11   0
   5  -4  -5    0.43    0.14   0
   4  -4  -5   24.10    0.21   0
  -4   4   5   24.00    0.21   0
  -4   4   5   24.40    0.21   0
   4  -4  -5   24.11    0.21   0
  -4   4   5   23.71    0.30   0
   3  -4  -5    3.69    0.13   0
  -3   4   5    3.76    0.14   0
  -3   4   5    4.46    0.15   0
   3  -4  -5    3.66    0.16   0
  -3   4   5    3.47    0.17   0
  -2   4   5    1.29    0.14   0
  -2   4   5    1.33    0.12   0
   2  -4  -5    1.35    0.15   0
   2  -4  -5    1.59    0.15   0
  -2   4   5    1.32    0.15   0
  -1   4   5    9.49    0.20   0
  -1   4   5    9.79    0.18   0
   1  -4  -5   10.13    0.20   0
   1  -4  -5    9.29    0.18   0
  -1   4   5    9.76    0.18   0
   0  -4  -5    5.66    0.20   0
   0   4   5    5.88    0.17   0
   0  -4  -5    6.19    0.20   0
   0   4   5    5.74    0.16   0
   0  -4  -5    5.59    0.18   0
   1   4   5   14.98    0.21   0
   1   4   5   15.01    0.18   0
  -1  -4  -5   15.99    0.31   0
  -1  -4  -5   13.99    0.21   0
  -1  -4  -5   13.83    0.30   0
  -2  -4  -5   29.93    0.45   0
   2   4   5   31.94    0.29   0
  -2  -4  -5   31.73    0.30   0
  -2  -4  -5   34.91    0.48   0
   2   4   5   33.12    0.23   0
   3   4   5    8.31    0.26   0
  -3  -4  -5    7.89    0.26   0
   3   4   5    8.15    0.15   0
   4   4   5   16.03    0.19   0
   5   4   5    0.07    0.14   0
   6   4   5    3.41    0.16   0
   7   4   5    0.47    0.17   0
   9  -5  -5    0.93    0.15   0
   9  -5  -5    1.13    0.15   0
  -9   5   5    1.01    0.14   0
  -9   5   5    1.05    0.14   0
   8  -5  -5    0.56    0.14   0
  -8   5   5    0.48    0.14   0
  -8   5   5    0.31    0.13   0
   8  -5  -5    0.48    0.11   0
   7  -5  -5    0.10    0.13   0
  -7   5   5    0.16    0.12   0
  -7   5   5   -0.05    0.12   0
   7  -5  -5   -0.01    0.14   0
   6  -5  -5    0.27    0.14   0
   6  -5  -5    0.00    0.14   0
  -6   5   5    0.07    0.13   0
  -6   5   5    0.14    0.13   0
  -6   5   5    0.11    0.26   0
  -5   5   5    7.84    0.22   0
   5  -5  -5    8.14    0.17   0
  -5   5   5    8.02    0.16   0
  -5   5   5    8.21    0.17   0
   5  -5  -5    8.40    0.18   0
   4  -5  -5    0.12    0.14   0
   4  -5  -5    0.10    0.14   0
  -4   5   5   -0.10    0.13   0
  -4   5   5   -0.11    0.13   0
  -3   5   5    1.47    0.14   0
  -3   5   5    1.77    0.14   0
   3  -5  -5    1.67    0.16   0
   3  -5  -5    1.74    0.15   0
   2  -5  -5   41.24    0.29   0
  -2   5   5   39.09    0.24   0
  -2   5   5   37.42    0.26   0
   2  -5  -5   37.47    0.24   0
   1  -5  -5   38.84    0.25   0
  -1   5   5   41.08    0.26   0
  -1   5   5   41.28    0.30   0
   1  -5  -5   43.99    0.32   0
   0  -5  -5   10.92    0.18   0
   0  -5  -5   11.92    0.25   0
   0   5   5   12.27    0.18   0
   0   5   5   11.81    0.18   0
   0  -5  -5   11.99    0.24   0
  -1  -5  -5    0.07    0.14   0
  -1  -5  -5   -0.04    0.23   0
   1   5   5   -0.15    0.16   0
  -1  -5  -5    0.10    0.23   0
   1   5   5    0.10    0.14   0
  -2  -5  -5    3.18    0.17   0
   2   5   5    3.47    0.18   0
   2   5   5    3.46    0.15   0
   3   5   5    9.16    0.24   0
  -3  -5  -5    8.75    0.24   0
   3   5   5    9.40    0.16   0
  -4  -5  -5    0.15    0.36   0
   4   5   5    0.11    0.12   0
   5   5   5    0.98    0.14   0
   6   5   5    4.42    0.17   0
   9  -6  -5    0.23    0.15   0
  -9   6   5    0.05    0.11   0
   9  -6  -5    0.05    0.15   0
  -9   6   5    0.32    0.14   0
   8  -6  -5    0.83    0.13   0
  -8   6   5    0.93    0.13   0
  -8   6   5    1.22    0.14   0
   8  -6  -5    1.12    0.15   0
   7  -6  -5    3.40    0.15   0
  -7   6   5    3.75    0.15   0
  -7   6   5    3.70    0.14   0
   7  -6  -5    3.89    0.15   0
  -6   6   5    0.04    0.18   0
   6  -6  -5   -0.25    0.14   0
   6  -6  -5    0.12    0.11   0
  -6   6   5   -0.09    0.13   0
  -6   6   5    0.17    0.12   0
   5  -6  -5   -0.08    0.14   0
  -5   6   5   -0.14    0.12   0
  -5   6   5    0.25    0.13   0
   5  -6  -5    0.17    0.15   0
   4  -6  -5    3.51    0.15   0
  -4   6   5    3.49    0.14   0
  -4   6   5    3.64    0.15   0
   4  -6  -5    3.49    0.16   0
   3  -6  -5   29.82    0.23   0
  -3   6   5   29.77    0.20   0
  -3   6   5   30.67    0.23   0
   3  -6  -5   31.49    0.25   0
   2  -6  -5   15.32    0.19   0
  -2   6   5   15.80    0.19   0
  -2   6   5   15.75    0.20   0
   2  -6  -5   16.23    0.23   0
  -1   6   5   23.61    0.27   0
   1  -6  -5   22.52    0.21   0
  -1   6   5   23.62    0.21   0
   1  -6  -5   23.60    0.26   0
   0  -6  -5   16.73    0.21   0
   0  -6  -5   16.89    0.26   0
   0   6   5   17.71    0.20   0
   0  -6  -5   17.08    0.27   0
  -1  -6  -5    3.75    0.30   0
  -1  -6  -5    3.82    0.17   0
  -1  -6  -5    3.51    0.30   0
   1   6   5    3.93    0.17   0
   1   6   5    3.40    0.14   0
   2   6   5    1.48    0.16   0
  -2  -6  -5    1.56    0.16   0
   2   6   5    1.20    0.13   0
   3   6   5    1.55    0.17   0
  -3  -6  -5    1.41    0.19   0
   3   6   5    1.73    0.14   0
   4   6   5    3.05    0.13   0
   4   6   5    2.93    0.29   0
  -4  -6  -5    3.17    0.31   0
   5   6   5    0.12    0.12   0
   6   6   5    0.31    0.15   0
   9  -7  -5   -0.03    0.12   0
   9  -7  -5   -0.06    0.15   0
  -9   7   5    0.15    0.14   0
  -9   7   5   -0.04    0.14   0
   8  -7  -5   -0.05    0.14   0
   8  -7  -5    0.02    0.14   0
  -8   7   5   -0.09    0.13   0
  -8   7   5    0.04    0.11   0
   7  -7  -5    0.52    0.14   0
  -7   7   5    0.48    0.11   0
  -7   7   5    0.48    0.22   0
   7  -7  -5    0.76    0.12   0
  -7   7   5    0.72    0.13   0
  -7   7   5    0.42    0.23   0
   6  -7  -5    0.13    0.13   0
  -6   7   5    0.06    0.13   0
  -6   7   5   -0.08    0.11   0
   6  -7  -5    0.20    0.12   0
   5  -7  -5    0.60    0.13   0
  -5   7   5    0.41    0.13   0
  -5   7   5    0.72    0.13   0
   5  -7  -5    0.79    0.14   0
   4  -7  -5    0.18    0.13   0
  -4   7   5    0.09    0.12   0
  -4   7   5    0.01    0.13   0
   4  -7  -5    0.31    0.15   0
   3  -7  -5    0.02    0.14   0
  -3   7   5    0.20    0.13   0
  -3   7   5    0.04    0.13   0
   3  -7  -5    0.05    0.15   0
   2  -7  -5    1.16    0.14   0
  -2   7   5    1.19    0.12   0
  -2   7   5    0.99    0.16   0
   2  -7  -5    0.87    0.17   0
   1  -7  -5    1.00    0.14   0
  -1   7   5    1.26    0.14   0
  -1   7   5    0.99    0.17   0
   1  -7  -5    1.01    0.19   0
   0  -7  -5    1.30    0.14   0
   0  -7  -5    1.22    0.20   0
   0   7   5    1.39    0.16   0
   0  -7  -5    1.06    0.21   0
   1   7   5    4.86    0.15   0
  -1  -7  -5    4.60    0.15   0
   1   7   5    5.05    0.17   0
  -2  -7  -5    0.07    0.16   0
   2   7   5    0.16    0.16   0
   2   7   5    0.07    0.13   0
   3   7   5    0.50    0.20   0
  -3  -7  -5    0.51    0.19   0
   3   7   5    0.46    0.11   0
  -4  -7  -5    3.20    0.29   0
   4   7   5    3.03    0.28   0
   4   7   5    3.08    0.16   0
   5   7   5    0.79    0.16   0
   8  -8  -5    0.59    0.15   0
   8  -8  -5    0.68    0.15   0
  -8   8   5    0.45    0.32   0
  -8   8   5    0.28    0.14   0
  -8   8   5    0.40    0.32   0
  -8   8   5    0.47    0.14   0
   7  -8  -5    1.05    0.16   0
   7  -8  -5    1.27    0.12   0
  -7   8   5    0.86    0.14   0
  -7   8   5    1.08    0.12   0
   6  -8  -5    5.55    0.17   0
   6  -8  -5    4.78    0.16   0
  -6   8   5    5.31    0.13   0
  -6   8   5    5.48    0.13   0
   5  -8  -5    4.31    0.16   0
   5  -8  -5    4.55    0.15   0
  -5   8   5    4.41    0.14   0
  -5   8   5    4.48    0.15   0
   4  -8  -5    1.29    0.15   0
   4  -8  -5    1.37    0.12   0
  -4   8   5    1.39    0.13   0
  -4   8   5    1.49    0.14   0
   3  -8  -5    0.39    0.17   0
   3  -8  -5    0.72    0.14   0
  -3   8   5    0.39    0.14   0
  -3   8   5    0.69    0.15   0
   2  -8  -5    1.17    0.16   0
   2  -8  -5    1.06    0.13   0
  -2   8   5    1.45    0.14   0
  -2   8   5    1.29    0.16   0
   1  -8  -5    0.99    0.17   0
   1  -8  -5    0.89    0.14   0
  -1   8   5    1.08    0.14   0
  -1   8   5    1.01    0.19   0
   0  -8  -5    5.55    0.26   0
   0  -8  -5    5.54    0.18   0
   0  -8  -5    6.08    0.25   0
   0   8   5    6.20    0.19   0
   1   8   5    6.08    0.19   0
  -1  -8  -5    5.89    0.16   0
   2   8   5    0.51    0.13   0
   2   8   5    0.39    0.16   0
  -2  -8  -5    0.14    0.15   0
   3   8   5    0.86    0.14   0
   3   8   5    0.57    0.18   0
  -3  -8  -5    0.76    0.18   0
   4   8   5    0.06    0.24   0
  -4  -8  -5    0.07    0.26   0
   4   8   5    0.10    0.12   0
   8  -9  -5    0.61    0.16   0
   8  -9  -5    0.29    0.15   0
  -8   9   5    0.42    0.12   0
  -8   9   5    0.45    0.25   0
  -8   9   5    0.46    0.12   0
  -8   9   5    0.53    0.25   0
   7  -9  -5    0.44    0.13   0
  -7   9   5    0.23    0.14   0
  -7   9   5    0.33    0.14   0
   7  -9  -5   -0.00    0.15   0
   6  -9  -5    0.23    0.11   0
  -6   9   5    0.27    0.13   0
   6  -9  -5    0.02    0.15   0
  -6   9   5    0.38    0.13   0
   5  -9  -5    0.05    0.14   0
   5  -9  -5    0.39    0.15   0
  -5   9   5    0.15    0.13   0
  -5   9   5    0.08    0.14   0
   4  -9  -5    0.84    0.17   0
   4  -9  -5    0.78    0.14   0
  -4   9   5    0.72    0.14   0
  -4   9   5    0.76    0.14   0
   3  -9  -5    0.97    0.14   0
   3  -9  -5    1.07    0.11   0
  -3   9   5    0.83    0.14   0
  -3   9   5    1.26    0.16   0
   2  -9  -5    6.17    0.19   0
   2  -9  -5    5.91    0.16   0
  -2   9   5    6.19    0.16   0
  -2   9   5    6.50    0.19   0
   1  -9  -5    0.54    0.19   0
   1  -9  -5    0.44    0.14   0
  -1   9   5    0.55    0.14   0
  -1   9   5    0.38    0.16   0
   0  -9  -5    0.40    0.24   0
   0  -9  -5    0.52    0.24   0
   0  -9  -5    0.43    0.14   0
   0   9   5    0.53    0.16   0
   1   9   5    0.21    0.16   0
  -1  -9  -5    0.12    0.13   0
   2   9   5    0.69    0.17   0
   2   9   5    0.75    0.14   0
  -2  -9  -5    0.52    0.17   0
  -3  -9  -5    1.50    0.20   0
   3   9   5    1.68    0.20   0
   3   9   5    1.28    0.13   0
   7 -10  -5   -0.29    0.17   0
   7 -10  -5    0.01    0.15   0
  -7  10   5    0.28    0.12   0
  -7  10   5    0.04    0.15   0
   6 -10  -5    3.76    0.17   0
   6 -10  -5    3.25    0.16   0
  -6  10   5    3.40    0.13   0
  -6  10   5    3.36    0.16   0
   5 -10  -5    2.89    0.17   0
   5 -10  -5    2.61    0.15   0
  -5  10   5    2.56    0.15   0
  -5  10   5    2.89    0.16   0
   4 -10  -5    0.99    0.15   0
  -4  10   5    1.43    0.16   0
   4 -10  -5    1.49    0.15   0
  -4  10   5    1.38    0.12   0
   3 -10  -5    0.04    0.17   0
   3 -10  -5   -0.09    0.14   0
  -3  10   5    0.10    0.14   0
  -3  10   5   -0.06    0.17   0
   2 -10  -5    1.81    0.18   0
   2 -10  -5    1.75    0.14   0
  -2  10   5    1.49    0.15   0
  -2  10   5    1.91    0.17   0
   1 -10  -5    0.57    0.20   0
   1 -10  -5    0.51    0.14   0
  -1  10   5    0.48    0.14   0
  -1  10   5    0.61    0.19   0
   0 -10  -5    0.31    0.31   0
   0 -10  -5    0.32    0.30   0
   0  10   5    0.40    0.14   0
   0 -10  -5    0.41    0.16   0
   1  10   5    0.08    0.14   0
  -1 -10  -5    0.05    0.14   0
  -2 -10  -5    1.63    0.18   0
   2  10   5    1.61    0.19   0
   2  10   5    1.30    0.15   0
   5 -11  -5    2.06    0.17   0
   5 -11  -5    2.34    0.13   0
  -5  11   5    2.49    0.13   0
  -5  11   5    2.49    0.18   0
  -4  11   5    0.40    0.15   0
   4 -11  -5    0.25    0.17   0
   4 -11  -5    0.89    0.15   0
  -4  11   5    0.43    0.15   0
   3 -11  -5    0.23    0.17   0
   3 -11  -5    0.30    0.14   0
  -3  11   5    0.10    0.14   0
  -3  11   5    0.22    0.17   0
   2 -11  -5    0.64    0.18   0
  -2  11   5    0.43    0.14   0
   2 -11  -5    0.70    0.14   0
  -2  11   5    0.50    0.17   0
   1 -11  -5    2.58    0.26   0
  -1  11   5    3.00    0.16   0
   1 -11  -5    2.62    0.16   0
   0  11   5    0.82    0.15   0
   0 -11  -5    0.85    0.16   0
   0  13  -6    0.23    0.18   0
   0 -13   6    0.01    0.14   0
   0  13  -6   -0.06    0.14   0
   0 -13   6    0.21    0.18   0
  -1  13  -6    1.36    0.15   0
   1 -13   6    1.54    0.18   0
   1 -13   6    1.52    0.15   0
  -1  13  -6    1.16    0.16   0
   2 -13   6    2.07    0.15   0
  -2  13  -6    1.69    0.12   0
   2 -13   6    1.94    0.16   0
  -2  13  -6    1.78    0.16   0
   3 -13   6    1.55    0.15   0
  -3  13  -6    1.45    0.14   0
   3 -13   6    1.58    0.16   0
  -3  13  -6    1.49    0.13   0
  -3  13  -6    1.65    0.16   0
  -2 -12   6    0.08    0.18   0
   2  12  -6   -0.14    0.14   0
   2  12  -6    0.11    0.17   0
  -2 -12   6    0.29    0.16   0
   1  12  -6    0.20    0.15   0
  -1 -12   6    0.26    0.13   0
   1  12  -6    0.21    0.14   0
  -1 -12   6    0.16    0.17   0
   0  12  -6   -0.04    0.14   0
   0 -12   6    0.12    0.16   0
   0  12  -6    0.17    0.13   0
   0 -12   6    0.13    0.13   0
   1 -12   6    0.75    0.15   0
  -1  12  -6    0.74    0.12   0
  -1  12  -6    0.77    0.15   0
   1 -12   6    0.61    0.14   0
  -2  12  -6    1.50    0.15   0
   2 -12   6    1.28    0.11   0
   2 -12   6    1.26    0.15   0
  -2  12  -6    1.21    0.14   0
  -3  12  -6    2.25    0.15   0
  -3  12  -6    2.04    0.14   0
   3 -12   6    2.13    0.16   0
   3 -12   6    2.39    0.15   0
  -3  12  -6    1.95    0.15   0
   4 -12   6    6.05    0.16   0
  -4  12  -6    5.67    0.16   0
   4 -12   6    5.19    0.14   0
  -4  12  -6    5.33    0.16   0
  -4  12  -6    6.05    0.17   0
  -5  12  -6    0.80    0.15   0
   5 -12   6    0.41    0.15   0
  -5  12  -6    0.91    0.15   0
  -5  12  -6    0.89    0.15   0
   5 -12   6    0.53    0.16   0
   4  11  -6    0.30    0.15   0
   4  11  -6    0.27    0.22   0
   4  11  -6    0.14    0.15   0
   4  11  -6    0.17    0.20   0
   3  11  -6    0.56    0.20   0
   3  11  -6    0.63    0.14   0
  -3 -11   6    0.59    0.14   0
   3  11  -6    0.45    0.19   0
   2  11  -6    0.37    0.17   0
  -2 -11   6    0.57    0.17   0
   2  11  -6    0.41    0.14   0
  -2 -11   6    0.24    0.14   0
   1  11  -6    1.73    0.17   0
  -1 -11   6    1.88    0.15   0
   1  11  -6    1.87    0.14   0
  -1 -11   6    1.91    0.13   0
   0  11  -6    3.04    0.16   0
   0 -11   6    3.34    0.18   0
   0  11  -6    3.26    0.14   0
   0 -11   6    3.49    0.15   0
  -1  11  -6    4.52    0.16   0
   1 -11   6    5.00    0.15   0
   1 -11   6    4.80    0.16   0
  -1  11  -6    4.25    0.15   0
  -2  11  -6    2.85    0.16   0
   2 -11   6    3.13    0.14   0
  -2  11  -6    3.03    0.12   0
   2 -11   6    3.17    0.14   0
  -3  11  -6    0.96    0.14   0
  -3  11  -6    0.90    0.13   0
   3 -11   6    1.29    0.15   0
  -3  11  -6    0.98    0.13   0
   3 -11   6    1.27    0.13   0
  -4  11  -6    0.44    0.14   0
   4 -11   6    0.27    0.14   0
  -4  11  -6    0.23    0.13   0
  -4  11  -6    0.47    0.13   0
   4 -11   6    0.30    0.11   0
   5 -11   6    0.11    0.15   0
  -5  11  -6    0.18    0.11   0
  -5  11  -6    0.43    0.14   0
  -5  11  -6    0.28    0.14   0
   5 -11   6   -0.12    0.14   0
  -6  11  -6    0.19    0.12   0
   6 -11   6    0.27    0.15   0
  -6  11  -6    0.25    0.15   0
   6 -11   6    0.13    0.14   0
  -6  11  -6    0.02    0.15   0
   5  10  -6    0.14    0.14   0
   5  10  -6    0.08    0.22   0
   5  10  -6    0.21    0.15   0
   5  10  -6    0.07    0.21   0
   4  10  -6    0.52    0.16   0
   4  10  -6    0.42    0.19   0
   4  10  -6    0.34    0.18   0
   4  10  -6    0.31    0.14   0
   3  10  -6    1.37    0.20   0
  -3 -10   6    1.81    0.14   0
   3  10  -6    1.32    0.16   0
   2  10  -6    8.10    0.20   0
  -2 -10   6    9.01    0.21   0
  -2 -10   6    9.22    0.16   0
   2  10  -6    8.19    0.17   0
   1  10  -6    0.42    0.17   0
  -1 -10   6    0.15    0.14   0
   1  10  -6    0.30    0.13   0
  -1 -10   6    0.37    0.13   0
   0  10  -6    0.42    0.15   0
   0 -10   6    0.65    0.14   0
   0 -10   6    0.52    0.14   0
   0  10  -6    0.63    0.14   0
  -1  10  -6    0.69    0.14   0
   1 -10   6    0.91    0.13   0
   1 -10   6    1.04    0.14   0
  -1  10  -6    0.75    0.11   0
  -2  10  -6    0.36    0.13   0
   2 -10   6    0.25    0.12   0
   2 -10   6   -0.07    0.13   0
  -2  10  -6   -0.08    0.13   0
  -2  10  -6   -0.01    0.13   0
  -3  10  -6    2.30    0.14   0
  -3  10  -6    2.12    0.13   0
   3 -10   6    2.39    0.13   0
  -3  10  -6    2.24    0.14   0
   3 -10   6    2.20    0.12   0
  -4  10  -6   -0.12    0.14   0
   4 -10   6    0.10    0.14   0
  -4  10  -6    0.16    0.13   0
  -4  10  -6    0.17    0.13   0
   4 -10   6    0.16    0.13   0
   5 -10   6    9.18    0.17   0
  -5  10  -6    8.64    0.17   0
  -5  10  -6    8.78    0.17   0
  -5  10  -6    9.20    0.17   0
   5 -10   6    9.28    0.17   0
  -6  10  -6    0.84    0.14   0
   6 -10   6    0.69    0.15   0
  -6  10  -6    0.54    0.17   0
   6 -10   6    0.87    0.14   0
  -6  10  -6    0.73    0.15   0
   7 -10   6    0.33    0.15   0
  -7  10  -6    0.22    0.16   0
  -7  10  -6    0.35    0.15   0
  -7  10  -6    0.45    0.14   0
   7 -10   6    0.28    0.15   0
   6   9  -6    0.10    0.22   0
   6   9  -6    0.12    0.17   0
   6   9  -6    0.10    0.17   0
   6   9  -6    0.13    0.21   0
   5   9  -6    1.01    0.17   0
   5   9  -6    0.88    0.20   0
   5   9  -6    0.74    0.17   0
   5   9  -6    1.07    0.19   0
   4   9  -6    1.66    0.16   0
   4   9  -6    1.67    0.17   0
   4   9  -6    1.55    0.19   0
   4   9  -6    1.64    0.14   0
   3   9  -6    0.76    0.17   0
   3   9  -6    0.43    0.14   0
  -2  -9   6    0.43    0.13   0
   2   9  -6    0.30    0.16   0
   2   9  -6    0.78    0.14   0
  -2  -9   6    0.53    0.16   0
  -1  -9   6    8.37    0.15   0
  -1  -9   6    7.82    0.17   0
   1   9  -6    7.76    0.15   0
   1   9  -6    7.03    0.16   0
   0   9  -6    1.52    0.14   0
   0  -9   6    1.56    0.16   0
   0  -9   6    1.42    0.10   0
   0   9  -6    1.59    0.13   0
  -1   9  -6    0.73    0.14   0
   1  -9   6    0.71    0.12   0
   1  -9   6    0.66    0.14   0
  -1   9  -6    0.91    0.10   0
   2  -9   6    0.21    0.12   0
   2  -9   6    0.06    0.13   0
  -2   9  -6   -0.03    0.11   0
  -2   9  -6   -0.27    0.12   0
  -2   9  -6    0.13    0.12   0
  -3   9  -6    0.12    0.14   0
   3  -9   6    0.24    0.14   0
  -3   9  -6    0.23    0.11   0
  -3   9  -6    0.12    0.13   0
   3  -9   6    0.13    0.10   0
  -4   9  -6    0.24    0.12   0
  -4   9  -6    0.42    0.10   0
  -4   9  -6    0.43    0.12   0
   4  -9   6    0.53    0.14   0
   4  -9   6    0.60    0.13   0
   5  -9   6    2.39    0.14   0
  -5   9  -6    1.98    0.14   0
  -5   9  -6    2.00    0.13   0
  -5   9  -6    2.36    0.14   0
   5  -9   6    2.09    0.14   0
   6  -9   6    0.71    0.14   0
   6  -9   6    0.89    0.14   0
  -6   9  -6    0.69    0.13   0
  -6   9  -6    0.54    0.14   0
  -6   9  -6    0.62    0.11   0
   7  -9   6    0.37    0.15   0
  -7   9  -6    0.29    0.14   0
   7  -9   6    0.53    0.15   0
  -7   9  -6    0.46    0.15   0
  -7   9  -6    0.19    0.17   0
   7   8  -6    0.09    0.23   0
   7   8  -6    0.17    0.20   0
   7   8  -6    0.24    0.19   0
   7   8  -6    0.05    0.20   0
   6   8  -6    0.03    0.19   0
   6   8  -6    0.14    0.16   0
   6   8  -6   -0.06    0.19   0
   6   8  -6    0.17    0.18   0
   5   8  -6    0.24    0.16   0
   5   8  -6    0.09    0.19   0
   5   8  -6    0.27    0.18   0
   5   8  -6    0.23    0.16   0
   4   8  -6    0.29    0.15   0
   4   8  -6    0.37    0.17   0
   4   8  -6    0.36    0.16   0
   4   8  -6    0.36    0.15   0
   3   8  -6    7.63    0.19   0
   3   8  -6    7.97    0.17   0
   2   8  -6   45.54    0.28   0
  -2  -8   6   53.80    0.27   0
  -2  -8   6   52.05    0.32   0
   2   8  -6   48.29    0.24   0
  -1  -8   6    7.65    0.16   0
  -1  -8   6    7.53    0.19   0
   1   8  -6    6.73    0.16   0
   1   8  -6    6.65    0.14   0
   0   8  -6   19.90    0.21   0
   0  -8   6   22.33    0.21   0
   0  -8   6   22.23    0.17   0
   0   8  -6   21.35    0.20   0
  -1   8  -6    0.30    0.16   0
   1  -8   6    0.40    0.15   0
   1  -8   6    0.32    0.13   0
  -1   8  -6    0.57    0.14   0
  -2   8  -6    1.97    0.15   0
   2  -8   6    2.32    0.13   0
   2  -8   6    2.16    0.15   0
  -2   8  -6    1.63    0.13   0
  -2   8  -6    1.87    0.13   0
   3  -8   6    2.32    0.13   0
   3  -8   6    2.49    0.14   0
  -3   8  -6    2.49    0.15   0
  -3   8  -6    2.55    0.13   0
  -3   8  -6    2.23    0.14   0
   4  -8   6    0.13    0.13   0
   4  -8   6    0.28    0.14   0
  -4   8  -6    0.16    0.13   0
  -4   8  -6    0.53    0.13   0
  -4   8  -6    0.48    0.14   0
   5  -8   6    0.85    0.14   0
  -5   8  -6    0.70    0.13   0
   5  -8   6    0.96    0.13   0
  -5   8  -6    1.09    0.13   0
  -5   8  -6    0.73    0.14   0
   6  -8   6    0.44    0.14   0
  -6   8  -6    0.53    0.14   0
  -6   8  -6    0.62    0.14   0
   6  -8   6    0.32    0.11   0
  -6   8  -6    0.56    0.14   0
   7  -8   6    1.68    0.15   0
  -7   8  -6    1.59    0.15   0
   7  -8   6    1.29    0.15   0
  -7   8  -6    1.86    0.15   0
  -7   8  -6    1.53    0.14   0
  -8   8  -6    0.28    0.15   0
   8  -8   6    0.24    0.17   0
  -8   8  -6    0.37    0.15   0
   8  -8   6    0.22    0.16   0
  -8   8  -6    0.19    0.15   0
   7   7  -6    0.64    0.20   0
   7   7  -6    0.69    0.20   0
   7   7  -6    0.73    0.19   0
   7   7  -6    0.75    0.18   0
   6   7  -6    0.31    0.19   0
   6   7  -6    0.41    0.16   0
   6   7  -6    0.24    0.19   0
   6   7  -6    0.38    0.18   0
   5   7  -6    0.22    0.13   0
   5   7  -6   -0.06    0.13   0
   5   7  -6    0.10    0.17   0
   5   7  -6    0.01    0.16   0
   4   7  -6    0.25    0.13   0
   4   7  -6    0.02    0.13   0
   4   7  -6    0.28    0.14   0
   4   7  -6    0.23    0.16   0
   3   7  -6    7.73    0.16   0
   3   7  -6    8.49    0.18   0
   3   7  -6    7.77    0.20   0
   2   7  -6    0.51    0.15   0
   2   7  -6    0.48    0.18   0
  -2  -7   6    0.63    0.14   0
  -2  -7   6    0.67    0.15   0
   1   7  -6   24.04    0.18   0
   1   7  -6   23.01    0.22   0
  -1  -7   6   25.37    0.24   0
  -1  -7   6   25.98    0.21   0
   0  -7   6   27.30    0.22   0
   0   7  -6   25.52    0.22   0
   0  -7   6   27.83    0.20   0
   0   7  -6   26.68    0.20   0
  -1   7  -6    9.15    0.18   0
   1  -7   6    9.28    0.15   0
   1  -7   6   10.10    0.16   0
  -1   7  -6    9.38    0.16   0
  -1   7  -6    9.66    0.16   0
  -2   7  -6    3.22    0.13   0
   2  -7   6    3.73    0.15   0
   2  -7   6    3.70    0.14   0
  -2   7  -6    3.62    0.14   0
  -2   7  -6    3.63    0.12   0
  -3   7  -6    0.12    0.14   0
   3  -7   6    0.34    0.13   0
   3  -7   6    0.18    0.14   0
  -3   7  -6    0.25    0.13   0
  -3   7  -6    0.21    0.13   0
  -4   7  -6   15.32    0.18   0
   4  -7   6   16.26    0.18   0
   4  -7   6   14.67    0.16   0
  -4   7  -6   15.26    0.18   0
  -4   7  -6   15.85    0.18   0
  -5   7  -6    2.14    0.14   0
   5  -7   6    2.28    0.15   0
   5  -7   6    1.74    0.12   0
  -5   7  -6    2.37    0.14   0
  -5   7  -6    2.16    0.14   0
   6  -7   6    2.59    0.15   0
   6  -7   6    2.72    0.15   0
  -6   7  -6    2.46    0.15   0
  -6   7  -6    2.43    0.17   0
  -6   7  -6    2.80    0.15   0
  -7   7  -6    1.14    0.16   0
  -7   7  -6    1.17    0.12   0
   7  -7   6    1.29    0.15   0
   7  -7   6    1.18    0.14   0
  -7   7  -6    1.35    0.17   0
  -8   7  -6    0.02    0.17   0
   8  -7   6    0.10    0.15   0
   8  -7   6    0.17    0.17   0
  -8   7  -6   -0.02    0.18   0
  -8   7  -6   -0.00    0.15   0
   8   6  -6    0.17    0.19   0
   8   6  -6    0.21    0.20   0
   8   6  -6    0.15    0.21   0
   8   6  -6    0.16    0.22   0
   7   6  -6   -0.01    0.16   0
   7   6  -6    0.16    0.16   0
   7   6  -6   -0.03    0.17   0
   7   6  -6    0.09    0.19   0
   6   6  -6    0.17    0.16   0
   6   6  -6    0.16    0.16   0
   6   6  -6    0.22    0.15   0
   6   6  -6    0.20    0.16   0
   5   6  -6    0.70    0.15   0
   5   6  -6    0.46    0.14   0
   5   6  -6    0.56    0.16   0
   5   6  -6    0.48    0.15   0
   4   6  -6   11.77    0.19   0
   4   6  -6   12.08    0.18   0
   4   6  -6   12.33    0.19   0
   4   6  -6   11.72    0.21   0
   3   6  -6   15.17    0.21   0
   3   6  -6   15.24    0.18   0
   3   6  -6   15.62    0.19   0
   2   6  -6   39.46    0.26   0
   2   6  -6   41.06    0.24   0
  -2  -6   6   44.34    0.27   0
  -1  -6   6    4.18    0.12   0
   1   6  -6    3.49    0.17   0
   1   6  -6    3.87    0.14   0
  -1  -6   6    4.06    0.16   0
   0   6  -6    4.01    0.17   0
   0  -6   6    4.46    0.14   0
   0  -6   6    4.19    0.16   0
   0   6  -6    4.20    0.14   0
   0   6  -6    3.98    0.14   0
  -1   6  -6    0.35    0.12   0
  -1   6  -6    0.08    0.15   0
   1  -6   6    0.08    0.14   0
  -1   6  -6    0.21    0.12   0
   1  -6   6    0.03    0.12   0
  -2   6  -6    3.01    0.15   0
   2  -6   6    2.94    0.13   0
   2  -6   6    3.40    0.12   0
  -2   6  -6    3.33    0.14   0
  -2   6  -6    3.53    0.14   0
  -3   6  -6    6.99    0.17   0
   3  -6   6    7.29    0.17   0
   3  -6   6    7.86    0.16   0
  -3   6  -6    7.31    0.16   0
  -3   6  -6    7.44    0.16   0
  -4   6  -6    2.60    0.15   0
   4  -6   6    2.68    0.12   0
   4  -6   6    2.91    0.14   0
  -4   6  -6    2.69    0.13   0
  -4   6  -6    2.89    0.15   0
   5  -6   6    6.59    0.17   0
   5  -6   6    8.18    0.16   0
  -5   6  -6    6.97    0.14   0
  -5   6  -6    7.05    0.16   0
  -5   6  -6    7.30    0.17   0
  -6   6  -6    0.43    0.12   0
   6  -6   6    0.74    0.14   0
  -6   6  -6    0.42    0.15   0
  -6   6  -6    0.58    0.14   0
   6  -6   6    0.75    0.13   0
  -7   6  -6    2.05    0.15   0
   7  -6   6    2.38    0.16   0
  -7   6  -6    2.08    0.15   0
  -7   6  -6    2.23    0.15   0
   7  -6   6    2.39    0.17   0
   8  -6   6    0.36    0.17   0
  -8   6  -6    0.20    0.15   0
   8  -6   6    0.33    0.15   0
  -8   6  -6    0.33    0.15   0
  -8   6  -6    0.27    0.19   0
   8   5  -6   -0.21    0.17   0
   8   5  -6   -0.04    0.18   0
   8   5  -6    0.07    0.20   0
   8   5  -6   -0.05    0.19   0
   7   5  -6    0.38    0.17   0
   7   5  -6    0.22    0.18   0
   7   5  -6    0.27    0.16   0
   7   5  -6    0.37    0.16   0
   6   5  -6   10.96    0.20   0
   6   5  -6   11.06    0.21   0
   6   5  -6   10.92    0.20   0
   6   5  -6   11.14    0.22   0
   5   5  -6    5.38    0.18   0
   5   5  -6    5.44    0.19   0
   5   5  -6    5.76    0.18   0
   5   5  -6    5.50    0.18   0
   4   5  -6    4.89    0.15   0
   4   5  -6    4.83    0.16   0
   4   5  -6    4.84    0.16   0
   4   5  -6    5.08    0.16   0
   3   5  -6    0.71    0.13   0
   3   5  -6    0.68    0.17   0
   3   5  -6    1.01    0.14   0
   3   5  -6    0.82    0.16   0
   2   5  -6    3.72    0.12   0
   2   5  -6    3.59    0.17   0
   2   5  -6    3.76    0.15   0
  -2  -5   6    4.01    0.17   0
   1   5  -6    0.20    0.16   0
  -1  -5   6    0.02    0.16   0
   1   5  -6    0.22    0.11   0
  -1  -5   6    0.06    0.14   0
   0   5  -6   52.87    0.28   0
   0  -5   6   54.76    0.27   0
   0   5  -6   55.54    0.26   0
   0  -5   6   57.03    0.25   0
   0   5  -6   55.38    0.27   0
  -1   5  -6   14.93    0.18   0
   1  -5   6   16.77    0.19   0
  -1   5  -6   15.63    0.19   0
   1  -5   6   15.46    0.20   0
  -1   5  -6   15.58    0.18   0
  -2   5  -6    1.66    0.12   0
  -2   5  -6    1.16    0.15   0
   2  -5   6    1.42    0.14   0
  -2   5  -6    1.56    0.14   0
   2  -5   6    1.55    0.14   0
  -3   5  -6    6.32    0.14   0
   3  -5   6    6.34    0.17   0
  -3   5  -6    6.48    0.15   0
   3  -5   6    6.64    0.16   0
  -3   5  -6    6.12    0.16   0
  -4   5  -6   10.28    0.18   0
   4  -5   6    9.65    0.18   0
  -4   5  -6    9.75    0.16   0
   4  -5   6   11.05    0.19   0
  -4   5  -6   10.18    0.17   0
  -5   5  -6   43.68    0.25   0
   5  -5   6   42.75    0.25   0
  -5   5  -6   42.27    0.26   0
  -5   5  -6   44.90    0.26   0
   5  -5   6   48.65    0.29   0
   6  -5   6    6.95    0.17   0
  -6   5  -6    7.39    0.17   0
  -6   5  -6    7.13    0.18   0
  -6   5  -6    7.51    0.17   0
   6  -5   6    8.34    0.19   0
  -7   5  -6    1.26    0.16   0
   7  -5   6    1.41    0.15   0
   7  -5   6    1.54    0.17   0
  -7   5  -6    1.53    0.18   0
  -7   5  -6    1.50    0.15   0
   8  -5   6    6.01    0.17   0
   8  -5   6    6.76    0.20   0
  -8   5  -6    6.47    0.18   0
  -8   5  -6    6.32    0.17   0
  -8   5  -6    6.10    0.22   0
   9   4  -6    0.94    0.23   0
   9   4  -6    1.05    0.19   0
   9   4  -6    1.05    0.18   0
   9   4  -6    0.82    0.23   0
   9   4  -6    0.71    0.26   0
   8   4  -6    0.38    0.16   0
   8   4  -6    0.37    0.18   0
   8   4  -6    0.32    0.21   0
   8   4  -6    0.38    0.18   0
   8   4  -6    0.41    0.19   0
   7   4  -6    0.84    0.16   0
   7   4  -6    0.74    0.15   0
   7   4  -6    0.76    0.17   0
   7   4  -6    0.79    0.14   0
   6   4  -6    2.12    0.16   0
   6   4  -6    2.39    0.16   0
   6   4  -6    2.18    0.17   0
   6   4  -6    2.25    0.15   0
   5   4  -6    9.65    0.18   0
   5   4  -6    9.98    0.20   0
   5   4  -6   10.13    0.18   0
   5   4  -6    9.82    0.19   0
   4   4  -6    0.56    0.16   0
   4   4  -6    0.59    0.15   0
   4   4  -6    0.42    0.14   0
   4   4  -6    0.51    0.15   0
   3   4  -6    0.15    0.14   0
   3   4  -6    0.15    0.15   0
   3   4  -6    0.17    0.13   0
   3   4  -6    0.18    0.14   0
   2   4  -6  116.42    0.39   0
   2   4  -6  110.69    0.40   0
   2   4  -6  118.28    0.38   0
  -2  -4   6  120.69    0.41   0
   1   4  -6    3.83    0.15   0
   1   4  -6    4.12    0.15   0
   1   4  -6    3.71    0.17   0
  -1  -4   6    3.99    0.14   0
   1   4  -6    3.99    0.16   0
   0   4  -6   12.41    0.20   0
   0  -4   6   13.40    0.20   0
   0   4  -6   13.55    0.18   0
   0  -4   6   14.90    0.18   0
   0   4  -6   13.64    0.16   0
  -1   4  -6  114.87    0.38   0
   1  -4   6  132.51    0.39   0
   1  -4   6  119.26    0.38   0
  -1   4  -6  121.43    0.38   0
  -1   4  -6  117.02    0.38   0
  -2   4  -6    7.74    0.15   0
   2  -4   6    7.80    0.17   0
  -2   4  -6    8.21    0.17   0
   2  -4   6    7.86    0.16   0
   2  -4   6    8.85    0.17   0
  -2   4  -6    8.08    0.14   0
  -3   4  -6    9.15    0.19   0
   3  -4   6    9.24    0.15   0
   3  -4   6   10.22    0.17   0
   3  -4   6    9.81    0.17   0
  -3   4  -6    9.80    0.17   0
  -3   4  -6    8.90    0.15   0
   4  -4   6    7.46    0.18   0
   4  -4   6    8.41    0.17   0
  -4   4  -6    7.35    0.17   0
   4  -4   6    7.66    0.17   0
  -4   4  -6    7.12    0.15   0
  -4   4  -6    7.24    0.16   0
  -5   4  -6    8.69    0.17   0
   5  -4   6    8.61    0.18   0
  -5   4  -6    8.57    0.17   0
   5  -4   6    9.51    0.17   0
   5  -4   6    9.15    0.17   0
  -5   4  -6    9.37    0.17   0
  -6   4  -6   13.95    0.18   0
   6  -4   6   14.92    0.22   0
   6  -4   6   13.38    0.18   0
  -6   4  -6   13.21    0.21   0
   6  -4   6   14.05    0.18   0
  -6   4  -6   14.72    0.21   0
  -7   4  -6    3.30    0.19   0
   7  -4   6    3.12    0.16   0
   7  -4   6    3.52    0.18   0
  -7   4  -6    3.58    0.18   0
  -7   4  -6    3.68    0.15   0
  -8   4  -6    1.81    0.20   0
   8  -4   6    1.65    0.16   0
   8  -4   6    1.93    0.18   0
  -8   4  -6    1.90    0.22   0
  -8   4  -6    2.00    0.16   0
  -8   4  -6    1.82    0.16   0
   9   3  -6    0.82    0.28   0
   9   3  -6    0.91    0.18   0
   9   3  -6    0.83    0.22   0
   9   3  -6    0.81    0.15   0
   9   3  -6    0.86    0.19   0
   8   3  -6    1.63    0.17   0
   8   3  -6    1.51    0.17   0
   8   3  -6    1.38    0.19   0
   8   3  -6    1.60    0.24   0
   8   3  -6    1.49    0.17   0
   7   3  -6    0.51    0.16   0
   7   3  -6    0.73    0.14   0
   7   3  -6    0.67    0.17   0
   7   3  -6    0.67    0.14   0
   6   3  -6    2.69    0.15   0
   6   3  -6    2.64    0.15   0
   6   3  -6    2.67    0.17   0
   6   3  -6    2.72    0.15   0
   5   3  -6    7.65    0.18   0
   5   3  -6    7.58    0.18   0
   5   3  -6    7.44    0.17   0
   5   3  -6    7.57    0.19   0
   4   3  -6    7.15    0.17   0
   4   3  -6    6.83    0.17   0
   4   3  -6    7.39    0.16   0
   4   3  -6    7.18    0.17   0
   3   3  -6    6.33    0.16   0
   3   3  -6    6.15    0.16   0
   3   3  -6    6.19    0.17   0
   3   3  -6    6.39    0.17   0
   3   3  -6    6.27    0.15   0
   2   3  -6   90.74    0.36   0
   2   3  -6   93.75    0.35   0
  -2  -3   6   95.86    0.37   0
   2   3  -6   94.23    0.40   0
   2   3  -6   96.94    0.36   0
   1   3  -6    3.55    0.16   0
   1   3  -6    3.52    0.15   0
   1   3  -6    3.45    0.14   0
   1   3  -6    3.18    0.17   0
  -1  -3   6    3.65    0.16   0
   0   3  -6    0.35    0.14   0
   0   3  -6    0.33    0.15   0
   0   3  -6    0.43    0.13   0
   0   3  -6    0.32    0.14   0
   0  -3   6    0.34    0.15   0
  -1   3  -6   92.22    0.35   0
   1  -3   6   95.71    0.34   0
   1  -3   6   94.28    0.33   0
  -1   3  -6   97.12    0.35   0
  -1   3  -6   98.03    0.34   0
   2  -3   6    0.63    0.15   0
  -2   3  -6    0.61    0.16   0
   2  -3   6    0.64    0.14   0
  -2   3  -6    0.56    0.14   0
  -2   3  -6    0.53    0.14   0
   2  -3   6    0.62    0.14   0
  -3   3  -6   33.47    0.24   0
  -3   3  -6   33.77    0.24   0
   3  -3   6   33.66    0.24   0
  -3   3  -6   35.76    0.24   0
   3  -3   6   34.81    0.22   0
   3  -3   6   37.73    0.25   0
  -4   3  -6    4.58    0.17   0
   4  -3   6    4.65    0.16   0
  -4   3  -6    5.24    0.16   0
   4  -3   6    4.74    0.15   0
   4  -3   6    5.50    0.18   0
  -4   3  -6    4.68    0.15   0
  -5   3  -6    0.12    0.14   0
   5  -3   6    0.04    0.15   0
  -5   3  -6    0.32    0.15   0
   5  -3   6    0.47    0.13   0
  -5   3  -6    0.36    0.14   0
  -6   3  -6    0.21    0.14   0
  -6   3  -6    0.14    0.18   0
   6  -3   6    0.29    0.14   0
   6  -3   6    0.25    0.14   0
  -6   3  -6    0.35    0.13   0
  -7   3  -6    3.10    0.21   0
  -7   3  -6    2.83    0.21   0
   7  -3   6    2.64    0.15   0
   7  -3   6    2.94    0.15   0
  -7   3  -6    3.16    0.16   0
  -7   3  -6    2.80    0.15   0
  -8   3  -6    1.83    0.26   0
   8  -3   6    1.93    0.16   0
   8  -3   6    1.94    0.15   0
  -8   3  -6    1.58    0.16   0
  -8   3  -6    1.82    0.27   0
   9   2  -6    0.48    0.19   0
   9   2  -6    0.34    0.17   0
   9   2  -6    0.44    0.14   0
   8   2  -6   -0.01    0.15   0
   8   2  -6   -0.04    0.35   0
   8   2  -6    0.15    0.18   0
   8   2  -6    0.04    0.16   0
   8   2  -6    0.06    0.32   0
   7   2  -6    0.05    0.21   0
   7   2  -6   -0.01    0.15   0
   7   2  -6    0.07    0.14   0
   7   2  -6    0.07    0.24   0
  -6  -2   6   15.88    0.20   0
   6   2  -6   16.27    0.20   0
   6   2  -6   16.69    0.21   0
   6   2  -6   15.63    0.30   0
  -5  -2   6   16.43    0.20   0
   5   2  -6   17.22    0.20   0
   5   2  -6   17.10    0.20   0
   5   2  -6   16.12    0.26   0
   5   2  -6   17.20    0.20   0
  -4  -2   6   13.22    0.19   0
   4   2  -6   13.10    0.18   0
   4   2  -6   13.54    0.19   0
   4   2  -6   12.99    0.17   0
   4   2  -6   12.63    0.22   0
  -3  -2   6    5.78    0.17   0
   3   2  -6    5.73    0.16   0
   3   2  -6    5.73    0.17   0
   3   2  -6    5.63    0.18   0
   3   2  -6    5.92    0.17   0
   2   2  -6   62.86    0.30   0
   2   2  -6   62.27    0.31   0
   2   2  -6   61.35    0.34   0
  -1  -2   6    3.45    0.16   0
   1   2  -6    3.04    0.12   0
   1   2  -6    3.13    0.12   0
   1   2  -6    2.92    0.16   0
  -1  -2   6    3.14    0.15   0
   1   2  -6    3.17    0.16   0
   0   2  -6    0.64    0.14   0
   0  -2   6    0.57    0.15   0
   0   2  -6    0.42    0.16   0
   0  -2   6    0.68    0.14   0
   0   2  -6    0.67    0.14   0
   0   2  -6    0.63    0.14   0
  -1   2  -6   28.69    0.23   0
  -1   2  -6   27.33    0.24   0
   1  -2   6   29.11    0.24   0
   1  -2   6   28.65    0.21   0
  -1   2  -6   28.69    0.24   0
  -1   2  -6   28.54    0.23   0
  -2   2  -6    0.51    0.13   0
  -2   2  -6    0.46    0.16   0
   2  -2   6    0.40    0.15   0
   2  -2   6    0.29    0.14   0
  -2   2  -6    0.32    0.11   0
  -2   2  -6    0.40    0.14   0
  -3   2  -6    5.40    0.15   0
   3  -2   6    5.16    0.17   0
  -3   2  -6    5.39    0.15   0
  -3   2  -6    5.19    0.15   0
  -3   2  -6    4.98    0.18   0
   3  -2   6    5.50    0.13   0
  -4   2  -6    0.50    0.15   0
   4  -2   6    0.61    0.15   0
   4  -2   6    0.44    0.14   0
  -4   2  -6    0.51    0.14   0
  -4   2  -6    0.53    0.15   0
  -4   2  -6    0.58    0.16   0
  -5   2  -6    0.40    0.16   0
   5  -2   6    0.49    0.14   0
  -5   2  -6    0.43    0.13   0
  -5   2  -6    0.46    0.15   0
   5  -2   6    0.50    0.14   0
  -5   2  -6    0.49    0.14   0
  -6   2  -6   10.89    0.26   0
  -6   2  -6   10.37    0.17   0
  -6   2  -6   10.39    0.24   0
   6  -2   6   10.29    0.18   0
   6  -2   6   11.33    0.18   0
  -6   2  -6   10.94    0.18   0
  -7   2  -6   19.72    0.21   0
   7  -2   6   18.87    0.23   0
  -7   2  -6   18.89    0.38   0
   7  -2   6   19.97    0.21   0
  -7   2  -6   19.34    0.38   0
  -7   2  -6   18.88    0.21   0
   8  -2   6    0.28    0.18   0
  -8   2  -6    0.01    0.14   0
   8  -2   6    0.09    0.15   0
  -9  -1   6    0.03    0.14   0
   9   1  -6    0.21    0.14   0
   9   1  -6   -0.12    0.16   0
  -8  -1   6    5.85    0.18   0
  -8  -1   6    6.41    0.16   0
   8   1  -6    6.03    0.19   0
   8   1  -6    5.97    0.16   0
  -7  -1   6    0.42    0.15   0
   7   1  -6    0.51    0.16   0
  -7  -1   6    0.37    0.14   0
   7   1  -6    0.42    0.14   0
  -6  -1   6   27.86    0.24   0
   6   1  -6   28.84    0.23   0
  -6  -1   6   29.46    0.24   0
   6   1  -6   28.52    0.26   0
   6   1  -6   28.00    0.56   0
  -5  -1   6    0.72    0.14   0
  -5  -1   6    0.51    0.12   0
   5   1  -6    0.52    0.14   0
   5   1  -6    0.66    0.15   0
   5   1  -6    0.53    0.24   0
  -4  -1   6    0.15    0.14   0
   4   1  -6    0.15    0.14   0
   4   1  -6    0.05    0.20   0
   4   1  -6    0.16    0.14   0
  -3  -1   6   17.78    0.20   0
   3   1  -6   18.16    0.19   0
   3   1  -6   18.04    0.20   0
   3   1  -6   17.78    0.20   0
   3   1  -6   17.56    0.25   0
  -2  -1   6    0.09    0.14   0
   2   1  -6    0.17    0.13   0
   2   1  -6    0.12    0.11   0
  -2  -1   6    0.07    0.15   0
   2   1  -6    0.12    0.14   0
   2   1  -6    0.24    0.16   0
  -1  -1   6    4.10    0.16   0
   1   1  -6    3.67    0.13   0
   1   1  -6    3.66    0.16   0
  -1  -1   6    3.91    0.16   0
  -1  -1   6    3.64    0.15   0
   1   1  -6    3.97    0.16   0
   0  -1   6   70.76    0.34   0
   0   1  -6   70.33    0.33   0
   0   1  -6   67.76    0.33   0
   0  -1   6   71.84    0.34   0
   0  -1   6   67.80    0.33   0
   0   1  -6   70.62    0.33   0
  -1   1  -6    8.88    0.17   0
   1  -1   6    8.76    0.19   0
   1  -1   6    8.60    0.15   0
  -1   1  -6    8.83    0.17   0
  -1   1  -6    7.90    0.19   0
  -1   1  -6    8.82    0.19   0
  -2   1  -6    4.42    0.15   0
  -2   1  -6    4.10    0.17   0
   2  -1   6    4.01    0.16   0
  -2   1  -6    4.65    0.16   0
   2  -1   6    4.44    0.13   0
  -2   1  -6    4.35    0.13   0
  -3   1  -6    8.05    0.19   0
   3  -1   6    7.68    0.17   0
  -3   1  -6    7.42    0.18   0
   3  -1   6    8.37    0.17   0
  -3   1  -6    7.59    0.18   0
  -3   1  -6    7.94    0.14   0
  -4   1  -6   11.41    0.20   0
  -4   1  -6   11.57    0.23   0
  -4   1  -6   12.26    0.23   0
   4  -1   6   11.88    0.19   0
   4  -1   6   12.97    0.19   0
  -4   1  -6   12.39    0.18   0
   5  -1   6   -0.11    0.16   0
  -5   1  -6   -0.00    0.14   0
  -5   1  -6    0.01    0.14   0
  -5   1  -6    0.11    0.19   0
   5  -1   6    0.01    0.15   0
  -5   1  -6    0.05    0.18   0
  -6   1  -6    1.37    0.14   0
  -6   1  -6    1.25    0.25   0
   6  -1   6    1.42    0.17   0
  -6   1  -6    1.35    0.25   0
   6  -1   6    1.30    0.14   0
  -6   1  -6    1.34    0.14   0
   7  -1   6    0.54    0.17   0
   7  -1   6    0.60    0.15   0
  -7   1  -6    0.62    0.17   0
   8  -1   6    0.58    0.18   0
   8  -1   6    0.55    0.15   0
  -8   1  -6    0.88    0.17   0
 -10   0   6    0.39    0.17   0
  10   0  -6    0.37    0.20   0
 -10   0   6    0.13    0.15   0
  10   0  -6    0.10    0.16   0
  -9   0   6   -0.03    0.17   0
  -9   0   6   -0.07    0.16   0
   9   0  -6   -0.13    0.15   0
   9   0  -6    0.25    0.17   0
  -8   0   6    2.33    0.17   0
  -8   0   6    2.67    0.15   0
   8   0  -6    2.43    0.15   0
   8   0  -6    2.52    0.15   0
  -7   0   6    2.13    0.16   0
  -7   0   6    2.86    0.15   0
   7   0  -6    2.80    0.17   0
   7   0  -6    2.48    0.15   0
   6   0  -6    0.20    0.15   0
  -6   0   6    0.54    0.15   0
   6   0  -6    0.53    0.16   0
  -6   0   6    0.27    0.12   0
   5   0  -6    0.55    0.14   0
  -5   0   6    0.33    0.14   0
   5   0  -6    0.28    0.15   0
  -5   0   6    0.44    0.14   0
  -4   0   6    0.23    0.15   0
   4   0  -6    0.30    0.14   0
   4   0  -6    0.28    0.15   0
  -4   0   6    0.23    0.11   0
   4   0  -6    0.23    0.24   0
  -3   0   6    2.65    0.16   0
   3   0  -6    2.83    0.15   0
   3   0  -6    2.70    0.13   0
  -3   0   6    2.67    0.20   0
   3   0  -6    2.64    0.19   0
  -2   0   6    4.74    0.16   0
   2   0  -6    4.79    0.16   0
   2   0  -6    4.85    0.16   0
  -2   0   6    4.59    0.16   0
   2   0  -6    4.68    0.16   0
   2   0  -6    4.92    0.17   0
  -1   0   6   25.52    0.23   0
   1   0  -6   21.97    0.23   0
   1   0  -6   20.98    0.21   0
   1   0  -6   20.05    0.22   0
  -1   0   6   20.45    0.22   0
   1   0  -6   21.19    0.22   0
   0   0   6    3.45    0.16   0
   0   0  -6    3.38    0.16   0
   0   0  -6    3.18    0.17   0
   0   0   6    3.28    0.16   0
   0   0   6    3.29    0.16   0
   0   0  -6    3.57    0.16   0
  -1   0  -6  105.98    0.42   0
  -1   0  -6  114.02    0.43   0
   1   0   6  109.81    0.42   0
   1   0   6  111.14    0.42   0
  -1   0  -6  113.33    0.38   0
   1   0   6  112.74    0.38   0
  -2   0  -6    7.74    0.18   0
  -2   0  -6    8.61    0.19   0
  -2   0  -6    8.57    0.18   0
   2   0   6    8.01    0.17   0
  -2   0  -6    8.43    0.16   0
   2   0   6    8.60    0.14   0
  -3   0  -6    0.50    0.13   0
  -3   0  -6    0.55    0.15   0
  -3   0  -6    0.49    0.17   0
   3   0   6    0.35    0.14   0
  -3   0  -6    0.66    0.17   0
   3   0   6    0.47    0.14   0
  -4   0  -6   32.50    0.33   0
   4   0   6   32.72    0.26   0
  -4   0  -6   34.35    0.35   0
   4   0   6   35.59    0.24   0
  -4   0  -6   31.40    0.26   0
  -4   0  -6   32.65    0.21   0
  -5   0  -6   13.67    0.21   0
   5   0   6   13.66    0.22   0
  -5   0  -6   13.57    0.34   0
  -5   0  -6   14.98    0.36   0
   5   0   6   14.97    0.19   0
   6   0   6    0.46    0.17   0
   6   0   6    0.64    0.14   0
  -6   0  -6    0.48    0.16   0
   7   0   6    3.07    0.18   0
   7   0   6    3.28    0.16   0
  -7   0  -6    2.77    0.18   0
   8   0   6    3.33    0.20   0
   8   0   6    3.58    0.17   0
  -8   0  -6    3.70    0.22   0
  10  -1  -6    1.82    0.19   0
 -10   1   6    2.30    0.16   0
 -10   1   6    2.06    0.18   0
  10  -1  -6    2.00    0.17   0
   9  -1  -6    2.70    0.18   0
  -9   1   6    2.64    0.17   0
  -9   1   6    2.86    0.15   0
   9  -1  -6    2.65    0.16   0
  -8   1   6    2.58    0.14   0
   8  -1  -6    2.71    0.15   0
  -8   1   6    3.07    0.12   0
   8  -1  -6    2.60    0.17   0
  -7   1   6    1.07    0.13   0
  -7   1   6    1.11    0.14   0
   7  -1  -6    0.93    0.14   0
   7  -1  -6    1.15    0.14   0
  -6   1   6   11.06    0.18   0
   6  -1  -6   10.54    0.18   0
   6  -1  -6   10.62    0.18   0
  -6   1   6    9.70    0.17   0
  -5   1   6   37.00    0.24   0
  -5   1   6   38.58    0.24   0
   5  -1  -6   36.57    0.25   0
   5  -1  -6   38.31    0.24   0
  -4   1   6    9.02    0.18   0
  -4   1   6    9.21    0.17   0
   4  -1  -6    9.57    0.19   0
   4  -1  -6    9.40    0.17   0
  -3   1   6    9.11    0.16   0
  -3   1   6    8.94    0.16   0
   3  -1  -6    9.70    0.19   0
  -3   1   6    8.34    0.24   0
   3  -1  -6    8.97    0.18   0
   3  -1  -6    9.08    0.23   0
  -2   1   6    8.35    0.17   0
   2  -1  -6    7.99    0.18   0
   2  -1  -6    9.16    0.18   0
  -2   1   6    8.10    0.20   0
   2  -1  -6    8.22    0.18   0
   2  -1  -6    8.54    0.21   0
   1  -1  -6   68.82    0.34   0
  -1   1   6   66.28    0.34   0
  -1   1   6   68.33    0.33   0
   1  -1  -6   64.76    0.31   0
   1  -1  -6   71.29    0.34   0
   1  -1  -6   70.87    0.36   0
   0   1   6    3.68    0.17   0
   0   1   6    3.37    0.16   0
   0  -1  -6    3.43    0.18   0
   0  -1  -6    3.42    0.17   0
   0  -1  -6    3.61    0.17   0
   1   1   6  125.91    0.45   0
  -1  -1  -6  118.33    0.44   0
  -1  -1  -6  132.94    0.47   0
   1   1   6  126.49    0.46   0
   1   1   6  130.42    0.40   0
  -1  -1  -6  128.37    0.40   0
   2   1   6    5.67    0.18   0
   2   1   6    5.91    0.18   0
  -2  -1  -6    6.10    0.20   0
   2   1   6    6.43    0.16   0
  -2  -1  -6    5.33    0.17   0
  -2  -1  -6    5.93    0.15   0
  -3  -1  -6    1.93    0.19   0
  -3  -1  -6    2.06    0.20   0
   3   1   6    2.01    0.18   0
  -3  -1  -6    2.19    0.19   0
   3   1   6    2.19    0.15   0
  -4  -1  -6    4.37    0.20   0
   4   1   6    4.30    0.19   0
  -4  -1  -6    4.23    0.24   0
   4   1   6    4.63    0.16   0
  -4  -1  -6    4.50    0.24   0
   5   1   6    0.21    0.17   0
   5   1   6    0.43    0.14   0
  -5  -1  -6    0.38    0.18   0
   6   1   6    1.49    0.19   0
   6   1   6    2.04    0.14   0
  -6  -1  -6    1.85    0.17   0
   7   1   6    0.31    0.19   0
   7   1   6    0.36    0.15   0
  -7  -1  -6    0.45    0.19   0
  10  -2  -6   -0.15    0.17   0
 -10   2   6    0.13    0.17   0
 -10   2   6   -0.11    0.15   0
  10  -2  -6    0.19    0.16   0
   9  -2  -6   -0.15    0.16   0
  -9   2   6    0.07    0.16   0
  -9   2   6    0.15    0.11   0
   9  -2  -6    0.13    0.15   0
   8  -2  -6    0.24    0.12   0
  -8   2   6    0.16    0.13   0
  -8   2   6    0.07    0.14   0
   8  -2  -6    0.10    0.14   0
  -7   2   6    1.74    0.14   0
  -7   2   6    2.09    0.14   0
   7  -2  -6    2.12    0.15   0
   7  -2  -6    1.88    0.12   0
  -6   2   6   65.44    0.29   0
  -6   2   6   69.50    0.31   0
   6  -2  -6   65.15    0.29   0
   6  -2  -6   67.31    0.31   0
  -5   2   6    9.75    0.17   0
   5  -2  -6   10.12    0.18   0
   5  -2  -6   10.01    0.15   0
  -5   2   6   10.55    0.17   0
   4  -2  -6   12.82    0.16   0
  -4   2   6   13.11    0.18   0
  -4   2   6   12.68    0.30   0
   4  -2  -6   13.45    0.19   0
  -4   2   6   13.22    0.18   0
  -3   2   6    6.61    0.17   0
  -3   2   6    6.68    0.16   0
   3  -2  -6    6.62    0.17   0
   3  -2  -6    6.71    0.17   0
  -3   2   6    6.46    0.21   0
   2  -2  -6   60.41    0.32   0
  -2   2   6   57.15    0.33   0
  -2   2   6   59.71    0.28   0
   2  -2  -6   61.50    0.31   0
  -2   2   6   58.29    0.29   0
  -1   2   6   91.79    0.36   0
   1  -2  -6   86.31    0.37   0
   1  -2  -6   94.05    0.38   0
  -1   2   6   90.86    0.38   0
   1  -2  -6   94.01    0.41   0
   0   2   6    4.32    0.15   0
   0  -2  -6    4.76    0.16   0
   0  -2  -6    4.14    0.16   0
   0  -2  -6    4.65    0.19   0
   0   2   6    4.50    0.17   0
   1   2   6    4.07    0.17   0
  -1  -2  -6    4.03    0.19   0
  -1  -2  -6    4.45    0.16   0
  -1  -2  -6    4.40    0.18   0
   1   2   6    4.30    0.16   0
   2   2   6    7.04    0.18   0
   2   2   6    7.10    0.20   0
  -2  -2  -6    7.37    0.20   0
   2   2   6    7.34    0.14   0
  -2  -2  -6    6.46    0.23   0
  -3  -2  -6    6.93    0.23   0
   3   2   6    7.20    0.22   0
  -3  -2  -6    7.32    0.21   0
  -3  -2  -6    7.26    0.23   0
   3   2   6    7.19    0.15   0
  -4  -2  -6   23.37    0.42   0
   4   2   6   24.16    0.21   0
  -4  -2  -6   23.39    0.41   0
   4   2   6   24.07    0.29   0
  -4  -2  -6   22.76    0.30   0
   5   2   6    6.92    0.22   0
   5   2   6    7.26    0.16   0
  -5  -2  -6    7.06    0.23   0
   6   2   6    3.54    0.23   0
   6   2   6    3.27    0.15   0
  -6  -2  -6    3.53    0.22   0
   7   2   6    0.17    0.22   0
   7   2   6    0.27    0.15   0
  -7  -2  -6    0.23    0.21   0
 -10   3   6    0.22    0.14   0
  10  -3  -6    0.16    0.15   0
 -10   3   6   -0.02    0.14   0
  10  -3  -6   -0.12    0.16   0
   9  -3  -6    4.48    0.16   0
  -9   3   6    4.61    0.16   0
  -9   3   6    4.44    0.16   0
   9  -3  -6    4.51    0.17   0
   8  -3  -6    4.59    0.16   0
  -8   3   6    5.03    0.15   0
   8  -3  -6    4.33    0.16   0
  -8   3   6    4.59    0.16   0
  -7   3   6    1.19    0.14   0
  -7   3   6    1.35    0.14   0
   7  -3  -6    1.09    0.14   0
   7  -3  -6    1.27    0.14   0
  -6   3   6   24.22    0.21   0
  -6   3   6   22.75    0.21   0
   6  -3  -6   22.76    0.22   0
   6  -3  -6   22.89    0.18   0
   5  -3  -6    0.36    0.15   0
  -5   3   6    0.10    0.13   0
   5  -3  -6    0.74    0.14   0
  -5   3   6    0.45    0.27   0
  -5   3   6    0.57    0.11   0
  -4   3   6    0.28    0.21   0
  -4   3   6    0.28    0.11   0
   4  -3  -6    0.40    0.14   0
   4  -3  -6    0.37    0.14   0
  -4   3   6    0.24    0.13   0
  -3   3   6    0.54    0.15   0
  -3   3   6    0.49    0.14   0
  -3   3   6    0.70    0.13   0
   3  -3  -6    0.67    0.11   0
   3  -3  -6    0.59    0.12   0
  -2   3   6   10.83    0.18   0
  -2   3   6   10.23    0.19   0
  -2   3   6   10.65    0.18   0
   2  -3  -6   10.99    0.19   0
   2  -3  -6   10.82    0.19   0
  -1   3   6    2.92    0.16   0
  -1   3   6    2.85    0.15   0
   1  -3  -6    2.74    0.15   0
   1  -3  -6    2.35    0.13   0
   1  -3  -6    2.97    0.16   0
   0   3   6    5.30    0.16   0
   0  -3  -6    4.97    0.18   0
   0  -3  -6    5.11    0.18   0
   0   3   6    5.44    0.16   0
   0  -3  -6    5.34    0.16   0
   1   3   6    2.54    0.16   0
  -1  -3  -6    2.21    0.19   0
  -1  -3  -6    2.40    0.16   0
  -1  -3  -6    2.42    0.19   0
   1   3   6    2.67    0.12   0
   2   3   6    8.92    0.20   0
  -2  -3  -6    8.04    0.26   0
  -2  -3  -6    9.29    0.26   0
  -2  -3  -6    8.52    0.20   0
   2   3   6    9.19    0.15   0
  -3  -3  -6   83.70    0.49   0
   3   3   6   85.72    0.49   0
  -3  -3  -6   83.08    0.52   0
  -3  -3  -6   93.56    0.56   0
   3   3   6   88.12    0.34   0
  -4  -3  -6    3.08    0.30   0
  -4  -3  -6    2.88    0.32   0
   4   3   6    3.02    0.16   0
  -4  -3  -6    3.02    0.25   0
   5   3   6   14.99    0.19   0
   5   3   6   15.27    0.34   0
  -5  -3  -6   15.25    0.34   0
   6   3   6    1.26    0.15   0
  -6  -3  -6    1.29    0.30   0
   7   3   6    0.91    0.16   0
  10  -4  -6    0.28    0.15   0
 -10   4   6    0.47    0.17   0
 -10   4   6    0.48    0.12   0
  10  -4  -6    0.03    0.16   0
   9  -4  -6   -0.12    0.14   0
   9  -4  -6   -0.05    0.15   0
  -9   4   6    0.20    0.14   0
  -9   4   6   -0.08    0.14   0
   8  -4  -6    0.32    0.15   0
  -8   4   6    0.60    0.13   0
  -8   4   6    0.64    0.13   0
   8  -4  -6    0.31    0.14   0
   7  -4  -6    0.07    0.13   0
  -7   4   6    0.08    0.13   0
  -7   4   6    0.22    0.12   0
   7  -4  -6    0.20    0.14   0
   6  -4  -6    5.49    0.16   0
  -6   4   6    5.12    0.15   0
  -6   4   6    5.59    0.15   0
   6  -4  -6    5.44    0.15   0
  -5   4   6   19.95    0.20   0
  -5   4   6   20.80    0.20   0
  -5   4   6   19.56    0.32   0
   5  -4  -6   19.71    0.18   0
   5  -4  -6   20.64    0.20   0
  -4   4   6    6.01    0.15   0
  -4   4   6    5.86    0.16   0
   4  -4  -6    5.97    0.16   0
  -4   4   6    5.47    0.20   0
   4  -4  -6    5.66    0.16   0
  -3   4   6   11.40    0.18   0
  -3   4   6   11.69    0.17   0
   3  -4  -6   11.42    0.19   0
   3  -4  -6   10.98    0.16   0
  -3   4   6   11.13    0.19   0
   2  -4  -6    1.62    0.15   0
  -2   4   6    1.73    0.12   0
  -2   4   6    1.41    0.14   0
   2  -4  -6    1.55    0.15   0
  -2   4   6    1.40    0.14   0
  -1   4   6    9.52    0.17   0
   1  -4  -6    9.27    0.17   0
   1  -4  -6   10.19    0.18   0
  -1   4   6    9.99    0.18   0
   0   4   6   20.30    0.22   0
   0  -4  -6   19.45    0.25   0
   0  -4  -6   21.21    0.26   0
   0  -4  -6   19.08    0.20   0
   0   4   6   20.83    0.20   0
  -1  -4  -6    4.98    0.24   0
   1   4   6    5.36    0.18   0
  -1  -4  -6    5.62    0.24   0
   1   4   6    5.36    0.16   0
  -1  -4  -6    4.82    0.16   0
  -2  -4  -6    1.90    0.18   0
  -2  -4  -6    1.48    0.24   0
   2   4   6    1.79    0.18   0
  -2  -4  -6    1.85    0.24   0
   2   4   6    1.86    0.12   0
  -3  -4  -6    3.53    0.32   0
   3   4   6    3.71    0.21   0
  -3  -4  -6    3.65    0.21   0
  -3  -4  -6    3.89    0.33   0
   3   4   6    3.65    0.12   0
   4   4   6    0.42    0.14   0
  -4  -4  -6    0.40    0.30   0
  -4  -4  -6    0.38    0.29   0
   5   4   6    1.55    0.15   0
   6   4   6    0.71    0.15   0
   9  -5  -6    0.40    0.17   0
  -9   5   6    0.34    0.14   0
  -9   5   6    0.07    0.14   0
   9  -5  -6    0.29    0.15   0
   8  -5  -6    0.44    0.14   0
  -8   5   6    0.71    0.13   0
  -8   5   6    0.68    0.13   0
   8  -5  -6    0.51    0.12   0
   7  -5  -6    0.55    0.14   0
  -7   5   6    0.80    0.13   0
  -7   5   6    0.63    0.10   0
   7  -5  -6    0.70    0.14   0
   6  -5  -6   -0.17    0.13   0
  -6   5   6    0.12    0.11   0
   6  -5  -6    0.00    0.11   0
  -6   5   6   -0.23    0.13   0
  -6   5   6    0.01    0.24   0
  -5   5   6   -0.14    0.13   0
   5  -5  -6    0.23    0.14   0
  -5   5   6   -0.06    0.14   0
  -5   5   6    0.10    0.17   0
   5  -5  -6    0.16    0.11   0
  -4   5   6    1.16    0.17   0
  -4   5   6    1.13    0.14   0
  -4   5   6    1.08    0.14   0
   4  -5  -6    1.11    0.15   0
   4  -5  -6    0.88    0.14   0
   3  -5  -6    4.69    0.19   0
  -3   5   6    4.29    0.16   0
  -3   5   6    4.46    0.16   0
   3  -5  -6    4.37    0.17   0
  -3   5   6    4.23    0.16   0
  -2   5   6    0.16    0.14   0
  -2   5   6    0.04    0.16   0
   2  -5  -6    0.29    0.15   0
   2  -5  -6    0.26    0.14   0
  -2   5   6    0.24    0.14   0
   1  -5  -6    5.92    0.16   0
  -1   5   6    6.30    0.16   0
   1  -5  -6    6.45    0.21   0
  -1   5   6    6.02    0.16   0
   0  -5  -6   25.23    0.22   0
   0  -5  -6   28.65    0.29   0
   0  -5  -6   25.61    0.28   0
   0   5   6   28.27    0.22   0
   0   5   6   27.42    0.24   0
  -1  -5  -6   47.84    0.43   0
   1   5   6   49.95    0.30   0
  -1  -5  -6   47.15    0.29   0
   1   5   6   50.98    0.27   0
  -1  -5  -6   52.23    0.44   0
  -2  -5  -6    0.87    0.35   0
  -2  -5  -6    0.98    0.18   0
   2   5   6    0.97    0.18   0
   2   5   6    1.16    0.14   0
  -2  -5  -6    0.88    0.32   0
   3   5   6    2.95    0.19   0
  -3  -5  -6    2.71    0.20   0
   3   5   6    2.74    0.14   0
   4   5   6   16.91    0.19   0
  -4  -5  -6   17.18    0.42   0
   5   5   6    0.17    0.15   0
   6   5   6    0.42    0.13   0
  -9   6   6    0.48    0.14   0
   9  -6  -6    0.37    0.15   0
  -9   6   6    0.44    0.15   0
   9  -6  -6    0.47    0.13   0
   8  -6  -6    0.32    0.14   0
  -8   6   6    0.39    0.13   0
  -8   6   6    0.29    0.13   0
   8  -6  -6    0.41    0.15   0
   7  -6  -6    2.18    0.15   0
  -7   6   6    2.21    0.11   0
  -7   6   6    2.43    0.14   0
   7  -6  -6    2.27    0.15   0
   6  -6  -6    0.40    0.14   0
  -6   6   6    0.46    0.13   0
  -6   6   6    0.50    0.13   0
   6  -6  -6    0.39    0.12   0
  -6   6   6    0.41    0.20   0
   5  -6  -6    3.36    0.12   0
  -5   6   6    3.44    0.14   0
  -5   6   6    3.38    0.14   0
   5  -6  -6    3.61    0.15   0
  -5   6   6    3.60    0.19   0
  -4   6   6    1.61    0.16   0
   4  -6  -6    1.79    0.14   0
  -4   6   6    1.58    0.13   0
  -4   6   6    1.87    0.14   0
   4  -6  -6    1.59    0.15   0
  -3   6   6   23.41    0.23   0
  -3   6   6   23.35    0.21   0
  -3   6   6   24.52    0.21   0
   3  -6  -6   23.97    0.22   0
   3  -6  -6   24.64    0.23   0
   2  -6  -6    6.32    0.14   0
  -2   6   6    6.90    0.19   0
   2  -6  -6    7.24    0.19   0
  -2   6   6    7.43    0.17   0
  -2   6   6    7.24    0.19   0
   1  -6  -6    0.15    0.14   0
  -1   6   6    0.28    0.14   0
   1  -6  -6    0.31    0.18   0
  -1   6   6    0.38    0.14   0
   0  -6  -6    8.16    0.17   0
   0  -6  -6    8.54    0.22   0
   0   6   6    8.91    0.17   0
   0  -6  -6    8.48    0.23   0
   0   6   6    8.70    0.15   0
  -1  -6  -6    9.71    0.17   0
  -1  -6  -6    9.92    0.30   0
   1   6   6   10.56    0.19   0
   1   6   6   10.65    0.16   0
  -1  -6  -6    9.95    0.30   0
   2   6   6    0.22    0.16   0
  -2  -6  -6    0.33    0.16   0
   2   6   6    0.18    0.13   0
   3   6   6    6.75    0.21   0
  -3  -6  -6    6.38    0.23   0
   3   6   6    7.06    0.16   0
  -4  -6  -6    2.93    0.29   0
   4   6   6    3.11    0.16   0
   5   6   6    0.31    0.15   0
   9  -7  -6    0.56    0.16   0
   9  -7  -6    0.79    0.16   0
  -9   7   6    1.00    0.15   0
  -9   7   6    0.92    0.12   0
   8  -7  -6    0.14    0.14   0
  -8   7   6   -0.04    0.14   0
  -8   7   6    0.02    0.11   0
   8  -7  -6   -0.05    0.14   0
   7  -7  -6    0.26    0.11   0
  -7   7   6   -0.02    0.14   0
  -7   7   6    0.13    0.14   0
  -7   7   6    0.17    0.23   0
   7  -7  -6    0.35    0.15   0
   6  -7  -6    0.87    0.12   0
  -6   7   6    0.82    0.13   0
  -6   7   6    0.91    0.14   0
  -6   7   6    0.62    0.18   0
   6  -7  -6    0.88    0.12   0
  -5   7   6    0.42    0.16   0
   5  -7  -6    0.48    0.14   0
  -5   7   6    0.41    0.13   0
  -5   7   6    0.75    0.13   0
   5  -7  -6    0.47    0.14   0
   4  -7  -6    0.15    0.13   0
  -4   7   6    0.12    0.11   0
  -4   7   6    0.27    0.13   0
   4  -7  -6    0.36    0.15   0
   3  -7  -6    0.13    0.11   0
  -3   7   6    0.05    0.13   0
  -3   7   6   -0.07    0.13   0
   3  -7  -6    0.04    0.14   0
   2  -7  -6    2.47    0.14   0
  -2   7   6    2.78    0.14   0
  -2   7   6    2.49    0.17   0
   2  -7  -6    2.43    0.15   0
  -1   7   6    2.15    0.14   0
   1  -7  -6    2.04    0.14   0
  -1   7   6    2.11    0.14   0
   1  -7  -6    1.91    0.17   0
   0  -7  -6    6.10    0.22   0
   0  -7  -6    6.10    0.16   0
   0  -7  -6    5.86    0.22   0
   0   7   6    6.47    0.16   0
   0   7   6    6.36    0.16   0
  -1  -7  -6    3.36    0.35   0
  -1  -7  -6    3.21    0.36   0
   1   7   6    3.72    0.17   0
  -1  -7  -6    3.25    0.16   0
   1   7   6    3.49    0.13   0
   2   7   6    1.05    0.16   0
  -2  -7  -6    0.85    0.16   0
   2   7   6    1.04    0.13   0
  -3  -7  -6    0.19    0.19   0
   3   7   6    0.08    0.17   0
   3   7   6    0.05    0.11   0
   4   7   6    0.12    0.26   0
  -4  -7  -6   -0.02    0.27   0
   4   7   6    0.08    0.15   0
   8  -8  -6    0.62    0.16   0
   8  -8  -6    0.75    0.15   0
  -8   8   6    0.61    0.15   0
  -8   8   6    0.73    0.14   0
   7  -8  -6    0.25    0.16   0
  -7   8   6    0.04    0.14   0
   7  -8  -6    0.07    0.15   0
  -7   8   6    0.33    0.12   0
  -7   8   6    0.15    0.22   0
  -6   8   6    1.24    0.17   0
   6  -8  -6    1.33    0.12   0
  -6   8   6    1.40    0.11   0
  -6   8   6    1.35    0.12   0
   6  -8  -6    1.14    0.15   0
   5  -8  -6    1.04    0.12   0
  -5   8   6    1.33    0.13   0
  -5   8   6    1.40    0.14   0
   5  -8  -6    1.29    0.16   0
   4  -8  -6    1.00    0.14   0
  -4   8   6    1.28    0.13   0
  -4   8   6    1.23    0.14   0
   4  -8  -6    1.26    0.16   0
   3  -8  -6    0.30    0.11   0
  -3   8   6    0.48    0.13   0
  -3   8   6    0.22    0.15   0
   3  -8  -6    0.36    0.16   0
  -2   8   6    1.90    0.14   0
  -2   8   6    1.96    0.15   0
   2  -8  -6    1.99    0.14   0
   2  -8  -6    1.92    0.15   0
   1  -8  -6    2.86    0.20   0
   1  -8  -6    2.85    0.14   0
  -1   8   6    3.01    0.14   0
   0  -8  -6    0.11    0.22   0
   0  -8  -6   -0.05    0.13   0
   0  -8  -6    0.05    0.22   0
   0   8   6    0.12    0.14   0
   0   8   6    0.10    0.14   0
   1   8   6    3.97    0.17   0
  -1  -8  -6    3.65    0.15   0
   1   8   6    3.88    0.12   0
   2   8   6    0.22    0.16   0
  -2  -8  -6    0.09    0.16   0
   2   8   6   -0.00    0.11   0
   3   8   6    0.72    0.19   0
  -3  -8  -6    0.62    0.21   0
   3   8   6    0.63    0.12   0
   7  -9  -6    1.67    0.16   0
   7  -9  -6    1.45    0.13   0
  -7   9   6    1.56    0.13   0
  -7   9   6    1.22    0.15   0
  -7   9   6    1.43    0.20   0
   6  -9  -6   -0.16    0.15   0
   6  -9  -6    0.02    0.14   0
  -6   9   6    0.02    0.14   0
  -6   9   6    0.01    0.14   0
   5  -9  -6    0.92    0.16   0
   5  -9  -6    0.63    0.12   0
  -5   9   6    0.48    0.11   0
  -5   9   6    0.78    0.14   0
   4  -9  -6    2.30    0.19   0
   4  -9  -6    1.93    0.12   0
  -4   9   6    2.00    0.14   0
  -4   9   6    1.90    0.14   0
   3  -9  -6    0.26    0.14   0
  -3   9   6    0.33    0.14   0
   3  -9  -6    0.25    0.14   0
  -3   9   6    0.30    0.16   0
   2  -9  -6    2.60    0.18   0
  -2   9   6    2.95    0.17   0
  -2   9   6    2.74    0.15   0
   2  -9  -6    2.55    0.14   0
   1  -9  -6    3.22    0.21   0
   1  -9  -6    3.37    0.15   0
  -1   9   6    3.84    0.17   0
   0  -9  -6    0.14    0.23   0
   0  -9  -6    0.06    0.24   0
   0  -9  -6    0.15    0.13   0
   0   9   6    0.16    0.16   0
   0   9   6    0.06    0.14   0
   1   9   6    0.27    0.16   0
  -1  -9  -6   -0.11    0.16   0
   1   9   6   -0.08    0.14   0
   2   9   6    0.43    0.15   0
   2   9   6    0.60    0.17   0
  -2  -9  -6    0.58    0.17   0
   6 -10  -6   -0.04    0.16   0
   6 -10  -6    0.01    0.15   0
  -6  10   6   -0.14    0.14   0
  -6  10   6    0.06    0.15   0
   5 -10  -6    1.89    0.17   0
   5 -10  -6    1.94    0.13   0
  -5  10   6    2.14    0.15   0
  -5  10   6    2.22    0.18   0
   4 -10  -6    0.76    0.18   0
   4 -10  -6    1.05    0.15   0
  -4  10   6    0.81    0.15   0
  -4  10   6    0.81    0.17   0
   3 -10  -6    2.75    0.19   0
   3 -10  -6    2.68    0.15   0
  -3  10   6    3.37    0.15   0
  -3  10   6    3.22    0.16   0
   2 -10  -6    0.05    0.19   0
  -2  10   6    0.07    0.17   0
   2 -10  -6    0.11    0.14   0
  -2  10   6    0.04    0.14   0
   1 -10  -6    0.01    0.20   0
   1 -10  -6    0.08    0.21   0
   1 -10  -6    0.11    0.14   0
  -1  10   6    0.12    0.14   0
   0 -10  -6    0.56    0.38   0
   0  10   6    0.43    0.17   0
   0 -10  -6    0.60    0.16   0
   0  10   6    0.42    0.15   0
   1  10   6    0.14    0.15   0
  -1 -10  -6    0.23    0.15   0
   1  10   6   -0.09    0.15   0
  -5  11   6    0.09    0.15   0
   4 -11  -6    0.70    0.16   0
   4 -11  -6    0.68    0.15   0
  -4  11   6    0.88    0.15   0
  -4  11   6    0.86    0.15   0
   3 -11  -6    0.11    0.18   0
   3 -11  -6   -0.04    0.15   0
  -3  11   6    0.07    0.15   0
  -3  11   6    0.08    0.17   0
   2 -11  -6    0.20    0.21   0
  -2  11   6    0.08    0.20   0
  -2  11   6   -0.13    0.15   0
   2 -11  -6   -0.07    0.14   0
   1 -11  -6    0.07    0.25   0
   1 -11  -6    0.07    0.24   0
  -1  11   6   -0.08    0.16   0
  -1  13  -7    0.13    0.15   0
   1 -13   7    0.37    0.18   0
  -1  13  -7    0.10    0.14   0
   1 -13   7    0.23    0.14   0
  -2  13  -7    0.45    0.16   0
  -2  13  -7    0.96    0.14   0
  -2  13  -7    0.49    0.15   0
  -2 -12   7    1.13    0.15   0
   2  12  -7    0.94    0.19   0
   2  12  -7    0.92    0.15   0
  -2 -12   7    1.38    0.19   0
  -1 -12   7    0.01    0.15   0
   1  12  -7    0.12    0.14   0
  -1 -12   7   -0.04    0.13   0
   1  12  -7    0.11    0.17   0
   0 -12   7    0.14    0.17   0
   0  12  -7   -0.03    0.14   0
   0  12  -7    0.10    0.14   0
   0 -12   7    0.02    0.14   0
  -1  12  -7    2.69    0.16   0
   1 -12   7    2.82    0.16   0
  -1  12  -7    2.68    0.12   0
   1 -12   7    2.96    0.15   0
  -2  12  -7    1.74    0.15   0
   2 -12   7    1.50    0.16   0
  -2  12  -7    1.79    0.14   0
   2 -12   7    1.65    0.15   0
  -2  12  -7    1.70    0.12   0
  -3  12  -7    0.24    0.15   0
   3 -12   7    0.09    0.15   0
   3 -12   7    0.30    0.14   0
  -3  12  -7    0.04    0.11   0
  -3  12  -7    0.13    0.14   0
  -4  12  -7   -0.20    0.15   0
   4 -12   7    0.00    0.15   0
  -4  12  -7    0.12    0.15   0
   4 -12   7    0.39    0.14   0
  -4  12  -7    0.03    0.14   0
   4  11  -7    0.34    0.14   0
   4  11  -7    0.37    0.21   0
   4  11  -7    0.39    0.18   0
   4  11  -7    0.42    0.15   0
   3  11  -7    0.40    0.20   0
   3  11  -7    0.26    0.14   0
   2  11  -7    0.39    0.17   0
  -2 -11   7    0.13    0.17   0
   2  11  -7    0.12    0.14   0
  -2 -11   7    0.38    0.13   0
   1  11  -7    0.31    0.14   0
  -1 -11   7    0.05    0.14   0
   1  11  -7    0.28    0.13   0
  -1 -11   7    0.26    0.13   0
   0  11  -7    0.10    0.15   0
   0 -11   7    0.02    0.17   0
   0  11  -7    0.01    0.15   0
   0 -11   7    0.25    0.14   0
  -1  11  -7    2.63    0.16   0
   1 -11   7    2.81    0.18   0
  -1  11  -7    2.67    0.12   0
   1 -11   7    2.86    0.14   0
  -2  11  -7    1.34    0.14   0
   2 -11   7    1.34    0.14   0
   2 -11   7    1.51    0.13   0
  -2  11  -7    1.36    0.11   0
  -2  11  -7    1.40    0.11   0
  -3  11  -7    0.24    0.14   0
   3 -11   7    0.30    0.11   0
   3 -11   7    0.49    0.14   0
  -3  11  -7    0.36    0.13   0
  -3  11  -7    0.24    0.14   0
  -4  11  -7    0.45    0.15   0
   4 -11   7    0.64    0.15   0
  -4  11  -7    0.33    0.14   0
   4 -11   7    0.48    0.14   0
  -4  11  -7    0.50    0.14   0
  -5  11  -7    3.62    0.16   0
   5 -11   7    3.92    0.14   0
   5 -11   7    3.43    0.14   0
  -5  11  -7    3.19    0.15   0
  -5  11  -7    3.74    0.16   0
   5  10  -7    0.32    0.17   0
   5  10  -7    0.46    0.21   0
   5  10  -7    0.61    0.15   0
   5  10  -7    0.54    0.20   0
   4  10  -7    0.48    0.14   0
   4  10  -7    0.07    0.17   0
   4  10  -7    0.25    0.19   0
   4  10  -7    0.27    0.16   0
   3  10  -7    1.57    0.18   0
   3  10  -7    1.69    0.14   0
   2  10  -7   16.38    0.23   0
  -2 -10   7   20.60    0.20   0
  -2 -10   7   19.61    0.24   0
   2  10  -7   17.27    0.19   0
   1  10  -7    5.62    0.19   0
  -1 -10   7    6.60    0.19   0
  -1 -10   7    6.43    0.15   0
   1  10  -7    6.09    0.15   0
   0  10  -7    0.57    0.15   0
   0 -10   7    0.55    0.14   0
   0  10  -7    0.43    0.10   0
   0 -10   7    0.54    0.13   0
  -1  10  -7    0.71    0.13   0
   1 -10   7    1.06    0.14   0
  -1  10  -7    0.87    0.13   0
  -1  10  -7    0.73    0.11   0
   1 -10   7    0.94    0.13   0
   2 -10   7    0.58    0.14   0
   2 -10   7    0.55    0.12   0
  -2  10  -7    0.56    0.13   0
  -2  10  -7    0.70    0.12   0
  -2  10  -7    0.31    0.14   0
  -3  10  -7    0.93    0.14   0
   3 -10   7    1.04    0.11   0
   3 -10   7    1.03    0.14   0
  -3  10  -7    0.74    0.13   0
  -3  10  -7    1.02    0.13   0
  -4  10  -7    1.11    0.15   0
   4 -10   7    1.21    0.14   0
   4 -10   7    1.17    0.14   0
  -4  10  -7    1.14    0.11   0
  -4  10  -7    1.45    0.14   0
  -5  10  -7    1.87    0.12   0
   5 -10   7    1.82    0.12   0
   5 -10   7    2.15    0.14   0
  -5  10  -7    1.88    0.14   0
  -5  10  -7    1.95    0.14   0
   6 -10   7    1.74    0.16   0
  -6  10  -7    2.19    0.15   0
   6 -10   7    2.03    0.15   0
  -6  10  -7    2.39    0.16   0
  -6  10  -7    1.84    0.15   0
   6   9  -7    0.20    0.20   0
   6   9  -7    0.03    0.17   0
   6   9  -7    0.05    0.17   0
   6   9  -7    0.07    0.20   0
   5   9  -7    0.30    0.14   0
   5   9  -7    0.13    0.16   0
   5   9  -7    0.02    0.19   0
   5   9  -7    0.07    0.16   0
   4   9  -7    1.16    0.14   0
   4   9  -7    1.32    0.18   0
   4   9  -7    1.23    0.14   0
   4   9  -7    1.24    0.17   0
   3   9  -7    0.22    0.16   0
   3   9  -7    0.17    0.14   0
   2   9  -7    0.09    0.16   0
  -2  -9   7    0.17    0.10   0
  -2  -9   7    0.04    0.16   0
   2   9  -7    0.19    0.13   0
   1   9  -7    0.97    0.16   0
  -1  -9   7    1.29    0.14   0
  -1  -9   7    1.13    0.13   0
   1   9  -7    0.99    0.13   0
   0  -9   7    6.03    0.14   0
   0   9  -7    5.39    0.16   0
   0  -9   7    5.98    0.16   0
   0   9  -7    5.67    0.14   0
  -1   9  -7    0.29    0.14   0
   1  -9   7    0.01    0.13   0
  -1   9  -7   -0.05    0.12   0
   1  -9   7   -0.09    0.12   0
  -1   9  -7    0.11    0.12   0
  -2   9  -7    1.85    0.12   0
   2  -9   7    2.18    0.14   0
   2  -9   7    2.45    0.13   0
  -2   9  -7    2.37    0.13   0
  -2   9  -7    2.40    0.13   0
  -3   9  -7    1.45    0.15   0
   3  -9   7    1.46    0.15   0
   3  -9   7    1.68    0.13   0
  -3   9  -7    1.61    0.11   0
  -3   9  -7    1.41    0.13   0
  -4   9  -7    0.09    0.13   0
   4  -9   7    0.26    0.14   0
   4  -9   7    0.31    0.13   0
  -4   9  -7    0.33    0.11   0
  -4   9  -7    0.02    0.13   0
  -5   9  -7   -0.25    0.11   0
   5  -9   7    0.22    0.13   0
  -5   9  -7   -0.07    0.13   0
   5  -9   7    0.05    0.11   0
  -5   9  -7   -0.09    0.13   0
  -6   9  -7    1.82    0.14   0
  -6   9  -7    1.84    0.15   0
   6  -9   7    2.37    0.15   0
  -6   9  -7    1.80    0.15   0
   6  -9   7    1.37    0.14   0
  -7   9  -7    1.23    0.16   0
   7  -9   7    0.92    0.13   0
   7  -9   7    1.08    0.19   0
  -7   9  -7    1.32    0.16   0
  -7   9  -7    1.21    0.15   0
   6   8  -7    0.20    0.17   0
   6   8  -7    0.40    0.19   0
   6   8  -7    0.44    0.19   0
   6   8  -7    0.44    0.17   0
   5   8  -7    0.15    0.17   0
   5   8  -7    0.20    0.13   0
   5   8  -7    0.14    0.16   0
   5   8  -7    0.19    0.15   0
   4   8  -7    4.48    0.15   0
   4   8  -7    4.24    0.15   0
   4   8  -7    4.33    0.18   0
   4   8  -7    4.08    0.18   0
   3   8  -7    2.75    0.15   0
   3   8  -7    2.92    0.15   0
   3   8  -7    2.66    0.17   0
   2   8  -7    0.87    0.11   0
  -2  -8   7    0.99    0.14   0
   2   8  -7    0.98    0.15   0
  -2  -8   7    0.92    0.16   0
  -1  -8   7   15.88    0.18   0
   1   8  -7   14.15    0.21   0
  -1  -8   7   15.17    0.19   0
   1   8  -7   14.38    0.17   0
   0   8  -7   21.40    0.19   0
   0  -8   7   24.48    0.20   0
   0  -8   7   23.37    0.21   0
   0   8  -7   22.40    0.17   0
   0   8  -7   22.90    0.19   0
  -1   8  -7   22.29    0.21   0
   1  -8   7   22.39    0.19   0
  -1   8  -7   23.19    0.17   0
  -1   8  -7   22.73    0.17   0
   1  -8   7   25.27    0.19   0
  -2   8  -7    9.20    0.17   0
   2  -8   7    8.73    0.16   0
  -2   8  -7    9.12    0.15   0
   2  -8   7   10.00    0.16   0
  -2   8  -7    9.48    0.16   0
  -3   8  -7    0.65    0.14   0
   3  -8   7    0.68    0.13   0
   3  -8   7    0.50    0.10   0
  -3   8  -7    0.51    0.13   0
  -3   8  -7    0.57    0.13   0
   4  -8   7    0.54    0.14   0
   4  -8   7    0.72    0.13   0
  -4   8  -7    0.53    0.13   0
  -4   8  -7    0.69    0.13   0
  -4   8  -7    0.60    0.11   0
  -5   8  -7   -0.13    0.13   0
   5  -8   7    0.19    0.13   0
  -5   8  -7    0.12    0.13   0
  -5   8  -7   -0.12    0.13   0
   5  -8   7   -0.02    0.13   0
  -6   8  -7    1.61    0.14   0
   6  -8   7    1.58    0.15   0
  -6   8  -7    1.26    0.14   0
   6  -8   7    1.41    0.16   0
  -6   8  -7    1.22    0.14   0
  -7   8  -7    2.82    0.18   0
   7  -8   7    3.06    0.16   0
  -7   8  -7    3.21    0.16   0
   7  -8   7    2.83    0.17   0
  -7   8  -7    2.72    0.16   0
   7   7  -7    2.42    0.21   0
   7   7  -7    2.50    0.18   0
   7   7  -7    3.11    0.19   0
   7   7  -7    2.67    0.18   0
   6   7  -7    7.44    0.19   0
   6   7  -7    7.18    0.19   0
   6   7  -7    7.44    0.20   0
   6   7  -7    8.22    0.21   0
   5   7  -7    0.10    0.15   0
   5   7  -7    0.21    0.13   0
   5   7  -7    0.12    0.16   0
   5   7  -7    0.23    0.16   0
   4   7  -7    3.47    0.16   0
   4   7  -7    3.38    0.16   0
   4   7  -7    3.90    0.15   0
   4   7  -7    3.49    0.15   0
   3   7  -7   26.49    0.21   0
   3   7  -7   26.44    0.23   0
   3   7  -7   27.76    0.22   0
   2   7  -7    5.98    0.17   0
   2   7  -7    6.25    0.16   0
  -2  -7   7    7.02    0.17   0
   1   7  -7    0.41    0.15   0
   1   7  -7    0.26    0.14   0
  -1  -7   7    0.36    0.14   0
  -1  -7   7    0.34    0.15   0
   0   7  -7    2.18    0.13   0
   0   7  -7    2.12    0.15   0
   0  -7   7    2.46    0.15   0
   0   7  -7    2.28    0.11   0
   0  -7   7    2.49    0.14   0
   1  -7   7    1.44    0.13   0
  -1   7  -7    1.35    0.13   0
   1  -7   7    1.16    0.12   0
  -1   7  -7    1.34    0.13   0
  -1   7  -7    1.29    0.11   0
  -2   7  -7    0.83    0.12   0
  -2   7  -7    0.65    0.11   0
   2  -7   7    0.49    0.14   0
   2  -7   7    0.54    0.12   0
  -2   7  -7    0.54    0.12   0
  -3   7  -7    2.13    0.12   0
   3  -7   7    1.97    0.14   0
  -3   7  -7    2.12    0.14   0
   3  -7   7    2.25    0.11   0
  -3   7  -7    2.29    0.13   0
  -4   7  -7    4.92    0.13   0
   4  -7   7    4.91    0.15   0
   4  -7   7    5.42    0.15   0
  -4   7  -7    4.94    0.15   0
  -4   7  -7    4.94    0.15   0
  -5   7  -7   31.83    0.22   0
  -5   7  -7   32.83    0.23   0
   5  -7   7   34.97    0.24   0
  -5   7  -7   33.09    0.23   0
   5  -7   7   32.01    0.22   0
  -6   7  -7    0.54    0.14   0
   6  -7   7    0.26    0.14   0
  -6   7  -7    0.46    0.16   0
  -6   7  -7    0.28    0.13   0
   6  -7   7    0.39    0.14   0
   7  -7   7   -0.04    0.16   0
  -7   7  -7    0.28    0.15   0
   7  -7   7    0.38    0.15   0
  -7   7  -7    0.36    0.15   0
  -7   7  -7    0.13    0.12   0
   8   6  -7    0.18    0.19   0
   8   6  -7    0.44    0.19   0
   8   6  -7    0.38    0.20   0
   8   6  -7    0.19    0.18   0
   7   6  -7    1.54    0.16   0
   7   6  -7    1.64    0.16   0
   7   6  -7    1.70    0.17   0
   7   6  -7    1.90    0.17   0
   6   6  -7    0.31    0.14   0
   6   6  -7    0.62    0.17   0
   6   6  -7    0.38    0.14   0
   6   6  -7    0.48    0.14   0
   5   6  -7   -0.05    0.13   0
   5   6  -7    0.08    0.13   0
   5   6  -7    0.21    0.14   0
   5   6  -7    0.20    0.13   0
   4   6  -7    0.09    0.13   0
   4   6  -7    0.07    0.14   0
   4   6  -7    0.00    0.13   0
   4   6  -7   -0.08    0.16   0
   3   6  -7   17.13    0.19   0
   3   6  -7   16.85    0.20   0
   3   6  -7   18.35    0.19   0
   2   6  -7   12.92    0.15   0
   2   6  -7   12.55    0.19   0
  -2  -6   7   14.61    0.19   0
   2   6  -7   13.78    0.17   0
   1   6  -7    0.12    0.15   0
  -1  -6   7    0.00    0.11   0
  -1  -6   7    0.05    0.12   0
   1   6  -7    0.03    0.13   0
   1   6  -7    0.09    0.13   0
   0   6  -7    0.24    0.15   0
   0  -6   7    0.20    0.13   0
   0  -6   7    0.27    0.11   0
   0   6  -7    0.08    0.13   0
   0   6  -7    0.27    0.10   0
  -1   6  -7    0.43    0.15   0
  -1   6  -7    0.53    0.13   0
   1  -6   7    0.52    0.14   0
  -1   6  -7    0.81    0.13   0
   1  -6   7    0.63    0.13   0
  -2   6  -7   14.61    0.17   0
  -2   6  -7   14.33    0.18   0
   2  -6   7   13.71    0.18   0
   2  -6   7   15.33    0.15   0
  -2   6  -7   13.91    0.15   0
  -3   6  -7    6.95    0.16   0
   3  -6   7    7.08    0.14   0
  -3   6  -7    7.25    0.16   0
  -3   6  -7    7.00    0.16   0
   3  -6   7    7.62    0.16   0
   4  -6   7    8.69    0.17   0
  -4   6  -7    8.74    0.16   0
  -4   6  -7    8.76    0.16   0
   4  -6   7    9.79    0.16   0
  -4   6  -7    8.45    0.14   0
   5  -6   7    5.31    0.15   0
  -5   6  -7    4.90    0.16   0
   5  -6   7    4.57    0.16   0
  -5   6  -7    4.65    0.15   0
  -5   6  -7    4.74    0.15   0
   6  -6   7    0.90    0.14   0
   6  -6   7    1.11    0.16   0
  -6   6  -7    0.97    0.15   0
  -6   6  -7    0.76    0.14   0
  -6   6  -7    0.93    0.14   0
  -7   6  -7    0.45    0.14   0
   7  -6   7    0.39    0.15   0
  -7   6  -7    0.37    0.15   0
   7  -6   7    0.48    0.16   0
  -7   6  -7    0.22    0.14   0
  -8   6  -7    2.18    0.19   0
   8  -6   7    2.56    0.17   0
   8  -6   7    2.54    0.19   0
  -8   6  -7    2.58    0.17   0
  -8   6  -7    2.29    0.16   0
   8   5  -7    0.61    0.19   0
   8   5  -7    0.85    0.19   0
   8   5  -7    0.62    0.20   0
   8   5  -7    0.58    0.17   0
   7   5  -7    0.67    0.15   0
   7   5  -7    0.38    0.16   0
   7   5  -7    0.71    0.17   0
   7   5  -7    0.41    0.16   0
   6   5  -7    2.35    0.15   0
   6   5  -7    2.84    0.17   0
   6   5  -7    2.84    0.15   0
   6   5  -7    2.63    0.15   0
   5   5  -7   17.56    0.20   0
   5   5  -7   17.03    0.20   0
   5   5  -7   17.61    0.21   0
   5   5  -7   17.17    0.21   0
   4   5  -7    0.03    0.15   0
   4   5  -7    0.14    0.13   0
   4   5  -7    0.00    0.12   0
   4   5  -7    0.19    0.14   0
   3   5  -7    0.02    0.13   0
   3   5  -7   -0.02    0.13   0
   3   5  -7   -0.01    0.14   0
   3   5  -7    0.03    0.15   0
   2   5  -7    8.70    0.16   0
   2   5  -7    8.11    0.17   0
  -2  -5   7    9.03    0.17   0
   2   5  -7    8.91    0.16   0
   2   5  -7    9.05    0.14   0
   1   5  -7    2.04    0.16   0
  -1  -5   7    3.50    0.15   0
   1   5  -7    2.24    0.14   0
   1   5  -7    2.02    0.14   0
   0   5  -7   21.71    0.21   0
   0  -5   7   21.79    0.21   0
   0   5  -7   22.45    0.20   0
   0   5  -7   21.76    0.19   0
   0  -5   7   23.59    0.19   0
  -1   5  -7   26.36    0.21   0
   1  -5   7   27.80    0.21   0
  -1   5  -7   28.39    0.21   0
  -1   5  -7   27.94    0.21   0
   1  -5   7   31.42    0.22   0
  -2   5  -7   14.13    0.19   0
  -2   5  -7   14.70    0.18   0
   2  -5   7   15.07    0.18   0
  -2   5  -7   15.19    0.18   0
   2  -5   7   15.74    0.16   0
  -3   5  -7    9.72    0.18   0
   3  -5   7    9.21    0.15   0
   3  -5   7   10.57    0.17   0
  -3   5  -7    9.78    0.17   0
  -3   5  -7    9.57    0.16   0
   4  -5   7   22.14    0.21   0
  -4   5  -7   22.29    0.21   0
   4  -5   7   25.13    0.21   0
  -4   5  -7   22.99    0.21   0
  -4   5  -7   21.62    0.20   0
  -5   5  -7    6.14    0.16   0
   5  -5   7    6.30    0.16   0
   5  -5   7    6.42    0.16   0
  -5   5  -7    6.00    0.16   0
  -5   5  -7    6.67    0.14   0
   5  -5   7    7.08    0.17   0
   6  -5   7    7.46    0.16   0
  -6   5  -7    7.34    0.18   0
   6  -5   7    8.58    0.19   0
   6  -5   7    8.11    0.17   0
  -6   5  -7    7.86    0.16   0
  -6   5  -7    7.99    0.17   0
  -7   5  -7    0.96    0.17   0
   7  -5   7    1.17    0.15   0
  -7   5  -7    1.09    0.15   0
  -7   5  -7    1.26    0.14   0
  -8   5  -7    0.99    0.20   0
   8  -5   7    0.77    0.15   0
  -8   5  -7    0.72    0.15   0
  -8   5  -7    0.88    0.16   0
  -8   5  -7    0.90    0.20   0
   9   4  -7    0.77    0.18   0
   9   4  -7    0.87    0.19   0
   9   4  -7    0.84    0.25   0
   9   4  -7    0.77    0.21   0
   9   4  -7    0.80    0.19   0
   9   4  -7    0.87    0.28   0
   8   4  -7    1.46    0.18   0
   8   4  -7    1.57    0.17   0
   8   4  -7    1.61    0.18   0
   8   4  -7    1.67    0.15   0
   7   4  -7    0.35    0.16   0
   7   4  -7    0.22    0.16   0
   7   4  -7    0.25    0.16   0
   7   4  -7    0.18    0.16   0
   6   4  -7    4.13    0.15   0
   6   4  -7    4.14    0.17   0
   6   4  -7    3.80    0.16   0
   6   4  -7    4.33    0.16   0
   5   4  -7    5.79    0.16   0
   5   4  -7    6.05    0.16   0
   5   4  -7    5.93    0.16   0
   5   4  -7    6.39    0.15   0
   4   4  -7    0.05    0.13   0
   4   4  -7    0.08    0.14   0
   4   4  -7   -0.12    0.14   0
   4   4  -7    0.06    0.13   0
   3   4  -7    0.09    0.13   0
   3   4  -7    0.15    0.14   0
   3   4  -7    0.27    0.14   0
   3   4  -7    0.08    0.13   0
   3   4  -7    0.11    0.13   0
   2   4  -7   10.00    0.17   0
   2   4  -7    8.84    0.18   0
  -2  -4   7    9.46    0.18   0
   2   4  -7    9.32    0.17   0
   2   4  -7    9.62    0.17   0
   1   4  -7   77.18    0.29   0
   1   4  -7   75.94    0.32   0
   1   4  -7   80.41    0.31   0
  -1  -4   7   81.77    0.33   0
   1   4  -7   81.70    0.33   0
   0   4  -7   32.93    0.22   0
   0   4  -7   33.11    0.20   0
   0   4  -7   31.52    0.21   0
   0  -4   7   33.22    0.23   0
   0   4  -7   32.92    0.23   0
  -1   4  -7   34.29    0.24   0
   1  -4   7   35.26    0.23   0
  -1   4  -7   35.81    0.23   0
  -1   4  -7   35.60    0.23   0
   2  -4   7    7.05    0.16   0
  -2   4  -7    6.04    0.17   0
   2  -4   7    6.62    0.17   0
  -2   4  -7    6.44    0.16   0
   2  -4   7    6.50    0.15   0
  -2   4  -7    6.58    0.15   0
  -3   4  -7   17.39    0.19   0
  -3   4  -7   16.77    0.19   0
   3  -4   7   17.50    0.19   0
  -3   4  -7   17.76    0.19   0
   3  -4   7   17.91    0.19   0
   3  -4   7   19.26    0.20   0
  -4   4  -7   24.65    0.22   0
   4  -4   7   25.39    0.22   0
   4  -4   7   25.88    0.20   0
   4  -4   7   27.76    0.23   0
  -4   4  -7   26.02    0.22   0
  -4   4  -7   25.39    0.23   0
  -5   4  -7    5.64    0.16   0
   5  -4   7    5.58    0.14   0
   5  -4   7    6.31    0.16   0
  -5   4  -7    5.66    0.16   0
  -5   4  -7    6.13    0.16   0
  -6   4  -7    3.06    0.15   0
   6  -4   7    2.80    0.13   0
  -6   4  -7    3.06    0.17   0
   6  -4   7    3.06    0.15   0
  -6   4  -7    3.14    0.15   0
  -7   4  -7    0.94    0.17   0
   7  -4   7    1.03    0.15   0
  -7   4  -7    0.99    0.16   0
   7  -4   7    1.05    0.15   0
  -7   4  -7    0.99    0.15   0
  -7   4  -7    0.85    0.15   0
  -8   4  -7    0.55    0.21   0
   8  -4   7    0.56    0.16   0
   8  -4   7    0.58    0.18   0
  -8   4  -7    0.72    0.21   0
  -8   4  -7    0.67    0.15   0
  -8   4  -7    0.90    0.18   0
   9   3  -7    0.39    0.17   0
   9   3  -7    0.33    0.18   0
   9   3  -7    0.17    0.16   0
   9   3  -7    0.21    0.19   0
   8   3  -7    1.53    0.17   0
   8   3  -7    1.83    0.15   0
   8   3  -7    1.54    0.24   0
   8   3  -7    1.61    0.18   0
   8   3  -7    1.52    0.15   0
   8   3  -7    1.62    0.27   0
   7   3  -7    0.06    0.14   0
   7   3  -7    0.05    0.18   0
   7   3  -7    0.13    0.16   0
   7   3  -7   -0.10    0.15   0
   7   3  -7   -0.10    0.14   0
   6   3  -7    4.73    0.18   0
   6   3  -7    4.91    0.16   0
   6   3  -7    5.02    0.18   0
   6   3  -7    4.43    0.19   0
   6   3  -7    4.77    0.16   0
   5   3  -7    5.50    0.16   0
   5   3  -7    5.12    0.18   0
   5   3  -7    5.18    0.16   0
   5   3  -7    5.01    0.18   0
   5   3  -7    4.85    0.16   0
   4   3  -7   10.95    0.18   0
   4   3  -7   11.55    0.18   0
   4   3  -7   12.07    0.18   0
   4   3  -7   11.25    0.20   0
   4   3  -7   11.08    0.18   0
   3   3  -7    1.04    0.14   0
   3   3  -7    0.98    0.14   0
   3   3  -7    1.05    0.15   0
   3   3  -7    0.66    0.15   0
   3   3  -7    0.96    0.16   0
   2   3  -7    2.99    0.14   0
   2   3  -7    3.11    0.16   0
  -2  -3   7    3.11    0.15   0
   2   3  -7    3.11    0.15   0
   2   3  -7    3.05    0.12   0
   1   3  -7   48.14    0.26   0
   1   3  -7   45.75    0.27   0
   1   3  -7   49.98    0.26   0
  -1  -3   7   49.25    0.27   0
   1   3  -7   48.62    0.26   0
   0   3  -7    3.15    0.14   0
   0   3  -7    3.03    0.13   0
   0  -3   7    3.23    0.15   0
   0   3  -7    2.99    0.15   0
   0   3  -7    2.98    0.15   0
   0  -3   7    3.29    0.13   0
  -1   3  -7    6.92    0.16   0
  -1   3  -7    7.01    0.17   0
  -1   3  -7    6.44    0.15   0
   1  -3   7    7.10    0.17   0
   1  -3   7    7.07    0.14   0
  -1   3  -7    6.79    0.16   0
  -2   3  -7  119.24    0.39   0
  -2   3  -7  113.63    0.35   0
   2  -3   7  119.40    0.37   0
  -2   3  -7  118.53    0.39   0
   2  -3   7  120.82    0.37   0
  -2   3  -7  115.44    0.37   0
  -3   3  -7   34.60    0.25   0
  -3   3  -7   31.92    0.24   0
  -3   3  -7   33.11    0.23   0
   3  -3   7   32.78    0.23   0
  -3   3  -7   33.69    0.23   0
   3  -3   7   34.53    0.23   0
  -4   3  -7    8.71    0.17   0
  -4   3  -7    9.12    0.17   0
   4  -3   7    8.57    0.17   0
   4  -3   7    8.77    0.17   0
  -4   3  -7    8.14    0.17   0
  -4   3  -7    8.42    0.17   0
  -5   3  -7    0.39    0.15   0
   5  -3   7    0.23    0.14   0
  -5   3  -7    0.36    0.14   0
   5  -3   7    0.31    0.14   0
  -5   3  -7    0.30    0.16   0
  -5   3  -7    0.37    0.14   0
  -6   3  -7    1.57    0.14   0
  -6   3  -7    1.61    0.18   0
   6  -3   7    1.47    0.14   0
  -6   3  -7    1.67    0.18   0
   6  -3   7    1.38    0.14   0
  -6   3  -7    1.50    0.14   0
  -7   3  -7    0.94    0.20   0
  -7   3  -7    0.72    0.19   0
   7  -3   7    0.85    0.17   0
   7  -3   7    1.18    0.17   0
  -7   3  -7    1.20    0.15   0
  -7   3  -7    0.83    0.14   0
  -8   3  -7    0.25    0.15   0
   8  -3   7    0.06    0.16   0
  -8   3  -7    0.13    0.27   0
   8  -3   7    0.03    0.15   0
  -8   3  -7    0.03    0.26   0
   9   2  -7    0.12    0.17   0
   9   2  -7    0.18    0.18   0
   9   2  -7    0.15    0.19   0
   9   2  -7    0.11    0.17   0
   8   2  -7    0.11    0.14   0
   8   2  -7    0.25    0.15   0
   8   2  -7    0.40    0.16   0
   8   2  -7    0.28    0.17   0
   7   2  -7    3.73    0.16   0
   7   2  -7    3.51    0.15   0
   7   2  -7    3.42    0.27   0
   7   2  -7    3.46    0.15   0
  -6  -2   7    7.08    0.16   0
   6   2  -7    7.53    0.17   0
   6   2  -7    8.09    0.18   0
   6   2  -7    8.07    0.18   0
   6   2  -7    7.45    0.26   0
  -5  -2   7   15.16    0.21   0
   5   2  -7   15.00    0.20   0
   5   2  -7   14.78    0.19   0
   5   2  -7   13.95    0.25   0
   5   2  -7   14.85    0.19   0
  -4  -2   7    5.64    0.16   0
   4   2  -7    5.29    0.15   0
   4   2  -7    4.94    0.16   0
   4   2  -7    5.36    0.20   0
   4   2  -7    5.21    0.13   0
  -3  -2   7    1.52    0.15   0
   3   2  -7    1.35    0.12   0
   3   2  -7    1.32    0.15   0
   3   2  -7    1.29    0.14   0
   3   2  -7    1.15    0.15   0
   2   2  -7    7.39    0.16   0
   2   2  -7    7.23    0.15   0
   2   2  -7    7.40    0.17   0
  -2  -2   7    7.68    0.14   0
   1   2  -7    0.46    0.13   0
   1   2  -7    0.16    0.12   0
  -1  -2   7    0.32    0.11   0
  -1  -2   7    0.25    0.14   0
   1   2  -7    0.23    0.14   0
   0   2  -7    1.16    0.13   0
   0   2  -7    1.10    0.14   0
   0   2  -7    1.24    0.15   0
   0  -2   7    1.20    0.15   0
   0  -2   7    1.20    0.14   0
   0   2  -7    1.34    0.14   0
  -1   2  -7   73.39    0.32   0
  -1   2  -7   68.80    0.31   0
   1  -2   7   73.05    0.30   0
   1  -2   7   73.98    0.30   0
  -1   2  -7   74.11    0.31   0
  -1   2  -7   73.94    0.32   0
  -2   2  -7    0.17    0.13   0
  -2   2  -7   -0.20    0.16   0
  -2   2  -7    0.19    0.16   0
   2  -2   7    0.25    0.15   0
  -2   2  -7    0.21    0.11   0
   2  -2   7    0.28    0.13   0
  -3   2  -7    1.07    0.13   0
  -3   2  -7    1.04    0.16   0
   3  -2   7    0.93    0.15   0
  -3   2  -7    1.03    0.15   0
   3  -2   7    1.03    0.11   0
  -3   2  -7    1.16    0.14   0
  -4   2  -7    0.65    0.14   0
  -4   2  -7    0.42    0.16   0
  -4   2  -7    0.53    0.16   0
   4  -2   7    0.58    0.15   0
   4  -2   7    0.72    0.14   0
  -4   2  -7    0.59    0.14   0
  -5   2  -7    2.20    0.17   0
  -5   2  -7    2.25    0.18   0
   5  -2   7    2.04    0.15   0
   5  -2   7    2.03    0.15   0
  -5   2  -7    2.03    0.18   0
  -5   2  -7    2.25    0.14   0
  -6   2  -7    2.92    0.15   0
  -6   2  -7    3.14    0.21   0
  -6   2  -7    3.08    0.21   0
   6  -2   7    3.21    0.16   0
   6  -2   7    3.10    0.16   0
  -6   2  -7    3.58    0.15   0
  -7   2  -7    3.81    0.16   0
   7  -2   7    3.47    0.18   0
  -7   2  -7    3.61    0.27   0
   7  -2   7    3.59    0.16   0
  -7   2  -7    3.57    0.18   0
  -7   2  -7    3.60    0.29   0
   8  -2   7    0.51    0.18   0
   8  -2   7    0.35    0.19   0
  -8   2  -7    0.26    0.15   0
   9   1  -7    0.01    0.17   0
   9   1  -7   -0.06    0.15   0
  -8  -1   7    0.23    0.13   0
   8   1  -7    0.08    0.16   0
  -8  -1   7    0.19    0.14   0
   8   1  -7    0.18    0.14   0
  -7  -1   7    7.19    0.17   0
   7   1  -7    7.28    0.19   0
  -7  -1   7    7.73    0.16   0
   7   1  -7    7.43    0.16   0
  -6  -1   7    4.64    0.14   0
   6   1  -7    5.04    0.18   0
   6   1  -7    4.86    0.39   0
   6   1  -7    5.15    0.16   0
  -5  -1   7    7.02    0.16   0
   5   1  -7    7.48    0.17   0
   5   1  -7    7.26    0.26   0
   5   1  -7    6.86    0.14   0
  -4  -1   7    0.94    0.14   0
   4   1  -7    0.93    0.14   0
   4   1  -7    0.75    0.14   0
   4   1  -7    0.79    0.19   0
   4   1  -7    0.74    0.14   0
  -3  -1   7    0.43    0.14   0
   3   1  -7    0.46    0.14   0
   3   1  -7    0.45    0.11   0
   3   1  -7    0.42    0.15   0
   3   1  -7    0.36    0.14   0
  -2  -1   7    3.18    0.15   0
   2   1  -7    3.26    0.14   0
   2   1  -7    3.35    0.17   0
   2   1  -7    3.05    0.15   0
  -2  -1   7    3.11    0.14   0
   2   1  -7    2.99    0.15   0
  -1  -1   7    8.07    0.17   0
   1   1  -7    7.79    0.16   0
   1   1  -7    7.54    0.17   0
  -1  -1   7    7.76    0.17   0
  -1  -1   7    7.47    0.17   0
   1   1  -7    8.01    0.18   0
   0  -1   7    5.56    0.16   0
   0   1  -7    5.37    0.16   0
   0   1  -7    5.17    0.17   0
   0  -1   7    5.38    0.15   0
   0  -1   7    5.30    0.16   0
   0   1  -7    5.73    0.17   0
  -1   1  -7   11.59    0.18   0
  -1   1  -7   10.62    0.19   0
   1  -1   7   11.60    0.19   0
   1  -1   7   11.41    0.17   0
  -1   1  -7   11.86    0.18   0
  -1   1  -7   11.89    0.17   0
  -2   1  -7    0.21    0.16   0
  -2   1  -7    0.15    0.13   0
   2  -1   7    0.22    0.15   0
   2  -1   7    0.78    0.11   0
  -2   1  -7    0.21    0.13   0
  -2   1  -7    0.29    0.11   0
  -3   1  -7    4.10    0.16   0
  -3   1  -7    4.60    0.15   0
   3  -1   7    4.47    0.16   0
  -3   1  -7    4.48    0.15   0
   3  -1   7    4.89    0.16   0
  -3   1  -7    4.32    0.17   0
  -4   1  -7   26.73    0.24   0
  -4   1  -7   27.19    0.27   0
  -4   1  -7   28.21    0.28   0
   4  -1   7   27.53    0.22   0
   4  -1   7   29.33    0.21   0
  -4   1  -7   28.31    0.22   0
  -5   1  -7    0.04    0.13   0
   5  -1   7   -0.13    0.14   0
  -5   1  -7    0.04    0.18   0
   5  -1   7   -0.04    0.14   0
  -5   1  -7   -0.03    0.18   0
  -5   1  -7   -0.03    0.13   0
  -6   1  -7    2.18    0.25   0
   6  -1   7    2.10    0.15   0
  -6   1  -7    2.33    0.26   0
   6  -1   7    1.86    0.15   0
  -6   1  -7    2.16    0.17   0
   7  -1   7    0.38    0.18   0
   7  -1   7    0.47    0.15   0
  -7   1  -7    0.21    0.16   0
   8  -1   7    0.72    0.19   0
   8  -1   7    0.52    0.16   0
  -9   0   7    1.61    0.17   0
  -9   0   7    2.01    0.15   0
   9   0  -7    1.84    0.17   0
   9   0  -7    1.89    0.15   0
  -8   0   7    0.60    0.15   0
  -8   0   7    0.19    0.14   0
   8   0  -7    0.40    0.14   0
   8   0  -7    0.41    0.14   0
  -7   0   7    2.63    0.14   0
  -7   0   7    2.72    0.15   0
   7   0  -7    2.70    0.17   0
   7   0  -7    2.70    0.12   0
  -6   0   7    3.17    0.13   0
   6   0  -7    3.39    0.15   0
  -6   0   7    3.37    0.16   0
   6   0  -7    3.43    0.14   0
  -5   0   7    2.59    0.15   0
  -5   0   7    2.41    0.15   0
   5   0  -7    2.44    0.15   0
   5   0  -7    2.63    0.15   0
   5   0  -7    2.55    0.31   0
  -4   0   7    2.28    0.15   0
   4   0  -7    2.38    0.13   0
   4   0  -7    2.28    0.15   0
   4   0  -7    2.44    0.23   0
  -3   0   7   15.53    0.19   0
   3   0  -7   15.13    0.19   0
   3   0  -7   15.81    0.20   0
   3   0  -7   14.72    0.16   0
  -3   0   7   14.53    0.22   0
   3   0  -7   15.27    0.23   0
  -2   0   7   19.29    0.20   0
   2   0  -7   19.78    0.20   0
   2   0  -7   18.33    0.20   0
  -2   0   7   18.46    0.23   0
   2   0  -7   18.62    0.19   0
   2   0  -7   19.17    0.22   0
  -1   0   7    4.67    0.16   0
   1   0  -7    4.75    0.16   0
   1   0  -7    4.65    0.15   0
   1   0  -7    4.37    0.17   0
  -1   0   7    4.55    0.16   0
   1   0  -7    4.73    0.17   0
   0   0   7    6.71    0.17   0
   0   0  -7    6.07    0.18   0
   0   0  -7    6.93    0.16   0
   0   0   7    6.88    0.17   0
   0   0   7    6.49    0.17   0
   0   0  -7    7.02    0.17   0
   1   0   7   11.85    0.19   0
  -1   0  -7   11.60    0.22   0
  -1   0  -7   12.03    0.20   0
   1   0   7   12.12    0.19   0
   1   0   7   12.48    0.18   0
  -1   0  -7   12.31    0.17   0
  -2   0  -7    5.58    0.19   0
  -2   0  -7    6.03    0.15   0
  -2   0  -7    6.09    0.16   0
   2   0   7    5.69    0.16   0
   2   0   7    6.45    0.15   0
  -2   0  -7    6.01    0.15   0
  -3   0  -7    0.57    0.15   0
   3   0   7    0.45    0.16   0
  -3   0  -7    0.58    0.16   0
  -3   0  -7    0.71    0.18   0
   3   0   7    0.65    0.15   0
  -3   0  -7    0.86    0.14   0
  -4   0  -7    8.85    0.18   0
   4   0   7    9.39    0.20   0
  -4   0  -7    9.53    0.23   0
  -4   0  -7    9.21    0.23   0
   4   0   7    9.77    0.18   0
  -4   0  -7    9.83    0.17   0
   5   0   7    2.23    0.15   0
  -5   0  -7    1.84    0.17   0
  -5   0  -7    2.09    0.25   0
   5   0   7    1.96    0.14   0
  -5   0  -7    1.81    0.23   0
   6   0   7    0.93    0.17   0
   6   0   7    0.98    0.12   0
  -6   0  -7    0.98    0.17   0
   7   0   7    0.33    0.18   0
   7   0   7    0.24    0.15   0
  -7   0  -7    0.46    0.17   0
  10  -1  -7    0.27    0.18   0
 -10   1   7    0.42    0.17   0
 -10   1   7    0.16    0.15   0
  10  -1  -7    0.33    0.16   0
  -9   1   7    2.05    0.17   0
  -9   1   7    2.29    0.15   0
   9  -1  -7    2.20    0.15   0
   9  -1  -7    2.04    0.18   0
  -8   1   7    0.35    0.14   0
  -8   1   7    0.38    0.14   0
   8  -1  -7    0.60    0.12   0
   8  -1  -7    0.46    0.14   0
  -7   1   7    1.36    0.14   0
   7  -1  -7    1.39    0.15   0
   7  -1  -7    1.32    0.14   0
  -7   1   7    1.14    0.14   0
  -6   1   7    0.15    0.13   0
   6  -1  -7    0.01    0.17   0
  -6   1   7    0.12    0.14   0
   6  -1  -7    0.18    0.14   0
   5  -1  -7   19.86    0.18   0
   5  -1  -7   19.82    0.19   0
  -5   1   7   20.29    0.20   0
  -5   1   7   19.20    0.20   0
  -4   1   7    3.19    0.12   0
  -4   1   7    3.10    0.22   0
   4  -1  -7    3.29    0.16   0
   4  -1  -7    3.34    0.14   0
  -4   1   7    3.23    0.15   0
   3  -1  -7   19.43    0.19   0
  -3   1   7   19.76    0.20   0
   3  -1  -7   20.97    0.21   0
  -3   1   7   18.56    0.25   0
   3  -1  -7   20.24    0.25   0
  -2   1   7    2.67    0.15   0
   2  -1  -7    2.61    0.16   0
   2  -1  -7    2.92    0.15   0
  -2   1   7    2.57    0.17   0
   2  -1  -7    2.73    0.16   0
   2  -1  -7    2.96    0.19   0
  -1   1   7    2.00    0.15   0
   1  -1  -7    1.95    0.16   0
   1  -1  -7    5.65    0.17   0
  -1   1   7    2.01    0.15   0
   1  -1  -7    2.10    0.16   0
   1  -1  -7    2.26    0.16   0
   0   1   7   60.79    0.31   0
   0  -1  -7   57.27    0.31   0
   0  -1  -7   62.49    0.32   0
   0   1   7   59.78    0.29   0
   0  -1  -7   62.66    0.31   0
   1   1   7    8.52    0.19   0
  -1  -1  -7    7.74    0.18   0
  -1  -1  -7    9.14    0.17   0
   1   1   7    8.63    0.17   0
   1   1   7    9.23    0.15   0
  -1  -1  -7    8.87    0.16   0
  -2  -1  -7   20.41    0.25   0
   2   1   7   24.42    0.21   0
   2   1   7   22.61    0.24   0
  -2  -1  -7   23.29    0.25   0
  -2  -1  -7   22.24    0.18   0
  -3  -1  -7    8.34    0.21   0
  -3  -1  -7    9.32    0.21   0
   3   1   7    9.32    0.21   0
  -3  -1  -7    9.62    0.23   0
   3   1   7    9.70    0.18   0
  -4  -1  -7    3.79    0.19   0
   4   1   7    4.08    0.20   0
  -4  -1  -7    4.07    0.22   0
  -4  -1  -7    4.02    0.21   0
   4   1   7    4.36    0.15   0
  -5  -1  -7    1.15    0.17   0
   5   1   7    0.99    0.19   0
   5   1   7    0.97    0.15   0
   6   1   7    3.89    0.20   0
   6   1   7    3.95    0.16   0
  -6  -1  -7    3.91    0.20   0
   7   1   7   -0.05    0.20   0
   7   1   7    0.07    0.15   0
  -7  -1  -7   -0.02    0.19   0
  10  -2  -7    0.95    0.18   0
 -10   2   7    0.71    0.17   0
 -10   2   7    0.79    0.15   0
  10  -2  -7    0.69    0.13   0
   9  -2  -7    1.62    0.18   0
  -9   2   7    1.61    0.15   0
  -9   2   7    1.50    0.14   0
   9  -2  -7    1.62    0.12   0
  -8   2   7    3.58    0.15   0
  -8   2   7    3.98    0.15   0
   8  -2  -7    3.61    0.16   0
   8  -2  -7    4.06    0.16   0
  -7   2   7    0.15    0.13   0
  -7   2   7    0.07    0.14   0
   7  -2  -7    0.21    0.16   0
   7  -2  -7   -0.03    0.14   0
  -6   2   7    3.45    0.15   0
   6  -2  -7    3.38    0.16   0
  -6   2   7    3.59    0.13   0
   6  -2  -7    3.83    0.16   0
  -5   2   7   20.71    0.20   0
   5  -2  -7   21.08    0.21   0
  -5   2   7   20.88    0.20   0
   5  -2  -7   21.37    0.20   0
  -4   2   7    8.93    0.17   0
  -4   2   7    9.16    0.15   0
   4  -2  -7    9.74    0.18   0
  -4   2   7    8.84    0.24   0
   4  -2  -7    8.99    0.15   0
  -3   2   7    1.64    0.11   0
   3  -2  -7    1.58    0.14   0
  -3   2   7    1.64    0.16   0
   3  -2  -7    1.65    0.15   0
  -3   2   7    1.70    0.15   0
  -2   2   7   55.28    0.28   0
   2  -2  -7   53.57    0.29   0
   2  -2  -7   57.26    0.30   0
  -2   2   7   52.56    0.32   0
   2  -2  -7   56.22    0.30   0
  -1   2   7   24.57    0.22   0
   1  -2  -7   23.79    0.23   0
   1  -2  -7   25.51    0.23   0
   1  -2  -7   25.80    0.24   0
  -1   2   7   25.08    0.23   0
   0   2   7   16.87    0.20   0
   0  -2  -7   16.27    0.21   0
   0  -2  -7   18.11    0.23   0
   0  -2  -7   18.33    0.21   0
   0   2   7   17.49    0.20   0
   1   2   7    5.58    0.15   0
  -1  -2  -7    6.16    0.18   0
  -1  -2  -7    5.38    0.19   0
  -1  -2  -7    5.63    0.16   0
   1   2   7    6.35    0.16   0
   2   2   7    0.10    0.15   0
  -2  -2  -7    0.04    0.18   0
   2   2   7   -0.11    0.16   0
  -2  -2  -7    0.11    0.16   0
   2   2   7   -0.08    0.14   0
  -3  -2  -7    8.59    0.21   0
  -3  -2  -7    7.65    0.20   0
   3   2   7    8.09    0.21   0
  -3  -2  -7    7.99    0.21   0
   3   2   7    8.88    0.17   0
  -4  -2  -7    0.21    0.19   0
  -4  -2  -7    0.17    0.22   0
   4   2   7   -0.03    0.19   0
   4   2   7    0.01    0.15   0
  -4  -2  -7   -0.00    0.23   0
   5   2   7    2.26    0.20   0
   5   2   7    2.30    0.15   0
  -5  -2  -7    2.18    0.19   0
   6   2   7    1.17    0.15   0
   6   2   7    1.21    0.21   0
  -6  -2  -7    1.30    0.21   0
   7   2   7    0.00    0.22   0
   7   2   7    0.05    0.15   0
  -7  -2  -7    0.05    0.24   0
  10  -3  -7    0.07    0.15   0
   9  -3  -7    2.47    0.18   0
  -9   3   7    2.49    0.15   0
  -9   3   7    2.86    0.15   0
   9  -3  -7    2.51    0.16   0
  -8   3   7    1.49    0.14   0
  -8   3   7    1.53    0.12   0
   8  -3  -7    1.66    0.12   0
   8  -3  -7    1.80    0.14   0
   7  -3  -7   -0.04    0.14   0
  -7   3   7   -0.07    0.14   0
   7  -3  -7    0.09    0.14   0
  -7   3   7    0.13    0.13   0
  -6   3   7    3.32    0.15   0
  -6   3   7    3.33    0.15   0
   6  -3  -7    3.25    0.16   0
   6  -3  -7    3.30    0.15   0
  -5   3   7    0.26    0.11   0
  -5   3   7    0.05    0.21   0
  -5   3   7   -0.05    0.11   0
   5  -3  -7   -0.05    0.12   0
   5  -3  -7    0.06    0.11   0
  -4   3   7   11.95    0.17   0
   4  -3  -7   11.56    0.16   0
  -4   3   7   11.34    0.15   0
  -4   3   7   11.54    0.25   0
   4  -3  -7   11.99    0.18   0
   3  -3  -7    6.34    0.14   0
  -3   3   7    6.42    0.16   0
  -3   3   7    6.58    0.19   0
  -3   3   7    6.53    0.16   0
   3  -3  -7    6.52    0.15   0
  -2   3   7   -0.01    0.11   0
   2  -3  -7   -0.01    0.14   0
   2  -3  -7    0.14    0.14   0
  -2   3   7    0.16    0.14   0
  -1   3   7    9.81    0.17   0
   1  -3  -7    9.42    0.17   0
   1  -3  -7    9.92    0.18   0
   1  -3  -7   10.45    0.18   0
  -1   3   7   10.03    0.18   0
   0  -3  -7    0.20    0.15   0
   0   3   7    0.23    0.15   0
   0  -3  -7    0.20    0.16   0
   0  -3  -7    0.03    0.14   0
   0   3   7   -0.01    0.14   0
   1   3   7    5.94    0.16   0
  -1  -3  -7    5.74    0.16   0
  -1  -3  -7    5.30    0.20   0
  -1  -3  -7    6.12    0.20   0
   1   3   7    6.40    0.16   0
   2   3   7   15.71    0.23   0
  -2  -3  -7   14.58    0.26   0
  -2  -3  -7   16.91    0.27   0
  -2  -3  -7   15.70    0.24   0
   2   3   7   16.67    0.17   0
  -3  -3  -7    3.10    0.22   0
   3   3   7    3.23    0.12   0
  -3  -3  -7    3.65    0.22   0
  -3  -3  -7    3.41    0.19   0
  -4  -3  -7    8.32    0.26   0
   4   3   7    8.62    0.17   0
  -4  -3  -7    8.13    0.29   0
  -4  -3  -7    8.56    0.29   0
   5   3   7    1.20    0.15   0
  -5  -3  -7    1.49    0.25   0
   6   3   7    0.85    0.15   0
  -6  -3  -7    0.85    0.29   0
   9  -4  -7    0.11    0.15   0
  -9   4   7    0.21    0.14   0
  -9   4   7    0.25    0.14   0
   9  -4  -7    0.09    0.15   0
   8  -4  -7    0.63    0.15   0
  -8   4   7    0.52    0.14   0
  -8   4   7    0.77    0.11   0
   8  -4  -7    0.76    0.14   0
  -7   4   7    0.18    0.12   0
  -7   4   7    0.13    0.11   0
   7  -4  -7    0.07    0.14   0
   7  -4  -7    0.41    0.14   0
  -6   4   7    0.56    0.13   0
  -6   4   7    0.53    0.13   0
   6  -4  -7    0.52    0.14   0
   6  -4  -7    0.71    0.14   0
  -5   4   7    1.04    0.20   0
  -5   4   7    0.82    0.13   0
   5  -4  -7    1.25    0.15   0
  -5   4   7    0.92    0.11   0
   5  -4  -7    1.10    0.14   0
   4  -4  -7    3.74    0.16   0
  -4   4   7    3.41    0.12   0
  -4   4   7    4.27    0.13   0
   4  -4  -7    3.85    0.15   0
  -4   4   7    3.63    0.18   0
  -3   4   7   14.33    0.19   0
  -3   4   7   14.80    0.19   0
   3  -4  -7   14.90    0.20   0
   3  -4  -7   15.03    0.20   0
  -3   4   7   14.34    0.22   0
  -2   4   7    0.30    0.13   0
   2  -4  -7    0.48    0.14   0
   2  -4  -7    0.28    0.14   0
  -2   4   7    0.33    0.16   0
  -1   4   7    6.06    0.16   0
   1  -4  -7    5.57    0.16   0
   1  -4  -7    5.71    0.16   0
   1  -4  -7    6.11    0.18   0
  -1   4   7    5.76    0.16   0
   0   4   7   15.74    0.21   0
   0  -4  -7   14.69    0.23   0
   0  -4  -7   16.45    0.24   0
   0  -4  -7   15.15    0.19   0
   0   4   7   16.15    0.17   0
   1   4   7   12.95    0.21   0
  -1  -4  -7   11.92    0.25   0
  -1  -4  -7   13.58    0.24   0
   1   4   7   13.91    0.19   0
  -1  -4  -7   12.63    0.21   0
  -2  -4  -7    0.33    0.21   0
   2   4   7    0.28    0.16   0
  -2  -4  -7    0.45    0.21   0
   2   4   7    0.48    0.14   0
  -2  -4  -7    0.51    0.18   0
  -3  -4  -7    0.54    0.25   0
   3   4   7    0.62    0.19   0
  -3  -4  -7    0.42    0.19   0
  -3  -4  -7    0.68    0.24   0
   3   4   7    0.41    0.14   0
  -4  -4  -7   10.64    0.33   0
  -4  -4  -7   10.14    0.34   0
   4   4   7   10.59    0.17   0
   5   4   7    0.96    0.15   0
   6   4   7    0.16    0.15   0
   9  -5  -7    0.36    0.15   0
  -9   5   7    0.03    0.16   0
  -9   5   7   -0.00    0.14   0
   9  -5  -7   -0.13    0.13   0
   8  -5  -7    0.83    0.12   0
  -8   5   7    1.08    0.14   0
  -8   5   7    1.15    0.14   0
   8  -5  -7    1.14    0.15   0
   7  -5  -7    0.79    0.14   0
  -7   5   7    0.81    0.11   0
  -7   5   7    0.66    0.13   0
   7  -5  -7    1.17    0.14   0
  -6   5   7    1.85    0.12   0
  -6   5   7    2.09    0.12   0
  -6   5   7    1.81    0.24   0
   6  -5  -7    1.66    0.14   0
   6  -5  -7    1.73    0.12   0
  -5   5   7    0.38    0.13   0
  -5   5   7    0.23    0.13   0
  -5   5   7    0.29    0.17   0
   5  -5  -7    0.29    0.11   0
   5  -5  -7    0.28    0.13   0
  -4   5   7    0.78    0.13   0
   4  -5  -7    0.65    0.12   0
  -4   5   7    0.64    0.14   0
  -4   5   7    0.83    0.16   0
   4  -5  -7    0.50    0.15   0
  -3   5   7   52.49    0.28   0
  -3   5   7   53.26    0.26   0
   3  -5  -7   54.39    0.29   0
   3  -5  -7   52.30    0.28   0
  -3   5   7   51.51    0.30   0
  -2   5   7    3.43    0.18   0
  -2   5   7    3.25    0.13   0
   2  -5  -7    3.73    0.16   0
  -2   5   7    3.42    0.15   0
   2  -5  -7    3.40    0.16   0
   1  -5  -7    5.01    0.20   0
  -1   5   7    4.60    0.15   0
   1  -5  -7    4.33    0.19   0
  -1   5   7    5.03    0.16   0
   1  -5  -7    4.19    0.16   0
   0   5   7   16.49    0.20   0
   0  -5  -7   15.64    0.25   0
   0  -5  -7   18.17    0.26   0
   0   5   7   17.02    0.20   0
   0  -5  -7   15.54    0.19   0
  -1  -5  -7    7.27    0.19   0
  -1  -5  -7    7.20    0.25   0
   1   5   7    8.09    0.19   0
  -1  -5  -7    8.17    0.26   0
   1   5   7    7.76    0.16   0
  -2  -5  -7    2.86    0.17   0
  -2  -5  -7    2.73    0.27   0
   2   5   7    2.76    0.17   0
   2   5   7    3.34    0.15   0
  -2  -5  -7    2.99    0.26   0
   3   5   7    0.48    0.17   0
  -3  -5  -7    0.34    0.18   0
   3   5   7    0.52    0.11   0
  -4  -5  -7    5.72    0.32   0
  -4  -5  -7    5.01    0.31   0
   4   5   7    5.62    0.14   0
   5   5   7    3.14    0.16   0
   9  -6  -7    0.90    0.15   0
  -9   6   7    0.86    0.15   0
  -9   6   7    0.90    0.14   0
   9  -6  -7    0.73    0.15   0
   8  -6  -7    0.08    0.14   0
  -8   6   7    0.26    0.14   0
  -8   6   7    0.32    0.13   0
   8  -6  -7    0.21    0.14   0
   7  -6  -7    0.07    0.14   0
  -7   6   7    0.19    0.13   0
   7  -6  -7    0.24    0.14   0
  -7   6   7    0.31    0.13   0
   6  -6  -7    0.56    0.14   0
  -6   6   7    0.43    0.13   0
  -6   6   7    0.47    0.14   0
  -6   6   7    0.42    0.19   0
   6  -6  -7    0.75    0.15   0
   5  -6  -7    0.75    0.14   0
  -5   6   7    0.75    0.11   0
  -5   6   7    0.66    0.13   0
  -5   6   7    0.73    0.17   0
   5  -6  -7    0.69    0.14   0
   4  -6  -7   12.75    0.18   0
  -4   6   7   12.67    0.17   0
  -4   6   7   12.61    0.18   0
   4  -6  -7   13.06    0.19   0
  -4   6   7   12.51    0.21   0
   3  -6  -7    1.81    0.15   0
  -3   6   7    1.92    0.14   0
  -3   6   7    2.32    0.15   0
   3  -6  -7    1.89    0.15   0
  -3   6   7    1.88    0.14   0
   2  -6  -7   22.90    0.21   0
  -2   6   7   24.71    0.21   0
  -2   6   7   24.90    0.24   0
   2  -6  -7   25.30    0.26   0
  -2   6   7   24.81    0.23   0
   1  -6  -7    0.74    0.14   0
  -1   6   7    1.05    0.14   0
  -1   6   7    1.10    0.14   0
   1  -6  -7    1.06    0.16   0
   1  -6  -7    0.86    0.18   0
   0  -6  -7   -0.01    0.16   0
   0  -6  -7    0.18    0.19   0
   0   6   7    0.56    0.14   0
   0  -6  -7    0.28    0.19   0
   0   6   7    0.37    0.12   0
  -1  -6  -7    3.04    0.16   0
  -1  -6  -7    3.12    0.24   0
   1   6   7    3.40    0.14   0
   1   6   7    3.48    0.13   0
  -1  -6  -7    3.39    0.23   0
   2   6   7    0.33    0.16   0
  -2  -6  -7    0.31    0.19   0
   2   6   7    0.36    0.13   0
   3   6   7    0.31    0.20   0
  -3  -6  -7    0.31    0.20   0
   3   6   7    0.38    0.12   0
  -4  -6  -7    1.90    0.29   0
   4   6   7    1.97    0.15   0
   5   6   7   -0.04    0.16   0
   8  -7  -7    0.18    0.12   0
  -8   7   7    0.16    0.14   0
  -8   7   7   -0.03    0.12   0
   8  -7  -7    0.23    0.16   0
   7  -7  -7    0.18    0.14   0
  -7   7   7    0.26    0.11   0
  -7   7   7    0.17    0.11   0
  -7   7   7    0.12    0.24   0
   7  -7  -7    0.22    0.15   0
   6  -7  -7    2.50    0.15   0
  -6   7   7    2.94    0.14   0
  -6   7   7    2.63    0.15   0
  -6   7   7    2.54    0.19   0
   6  -7  -7    3.01    0.16   0
   5  -7  -7    4.22    0.15   0
  -5   7   7    4.21    0.12   0
  -5   7   7    4.27    0.15   0
  -5   7   7    3.96    0.18   0
   5  -7  -7    4.33    0.16   0
   4  -7  -7    0.85    0.14   0
  -4   7   7    1.07    0.14   0
  -4   7   7    0.70    0.14   0
   4  -7  -7    0.72    0.14   0
  -4   7   7    0.84    0.15   0
   3  -7  -7    4.13    0.15   0
  -3   7   7    4.06    0.15   0
  -3   7   7    4.34    0.17   0
   3  -7  -7    4.55    0.18   0
  -3   7   7    3.94    0.15   0
   2  -7  -7    0.40    0.13   0
  -2   7   7    0.49    0.15   0
  -2   7   7    0.50    0.13   0
   2  -7  -7    0.45    0.16   0
  -2   7   7    0.69    0.14   0
   1  -7  -7   -0.18    0.13   0
  -1   7   7    0.02    0.13   0
   1  -7  -7   -0.06    0.18   0
   1  -7  -7    0.19    0.16   0
  -1   7   7    0.08    0.14   0
   0  -7  -7    0.13    0.16   0
   0  -7  -7    0.24    0.19   0
   0   7   7    0.09    0.14   0
   0   7   7    0.06    0.14   0
   0  -7  -7    0.19    0.18   0
  -1  -7  -7    4.49    0.32   0
  -1  -7  -7    4.42    0.33   0
  -1  -7  -7    4.34    0.17   0
   1   7   7    4.98    0.17   0
   1   7   7    4.71    0.15   0
   2   7   7    1.74    0.18   0
  -2  -7  -7    1.72    0.17   0
   2   7   7    1.92    0.12   0
  -3  -7  -7    0.23    0.20   0
   3   7   7    0.40    0.18   0
   3   7   7    0.39    0.14   0
  -4  -7  -7    0.36    0.30   0
   4   7   7    0.42    0.15   0
   8  -8  -7    0.36    0.16   0
   8  -8  -7    0.04    0.16   0
  -8   8   7    0.28    0.14   0
  -8   8   7    0.16    0.15   0
   7  -8  -7    1.75    0.16   0
  -7   8   7    1.80    0.15   0
  -7   8   7    1.90    0.13   0
  -7   8   7    1.76    0.22   0
   7  -8  -7    1.84    0.16   0
  -6   8   7    0.24    0.11   0
   6  -8  -7    0.29    0.15   0
  -6   8   7    0.08    0.14   0
  -6   8   7    0.44    0.19   0
   6  -8  -7    0.19    0.15   0
   5  -8  -7    0.37    0.15   0
  -5   8   7    0.84    0.13   0
  -5   8   7    0.54    0.14   0
  -5   8   7    0.58    0.16   0
   5  -8  -7    0.52    0.16   0
   4  -8  -7    0.45    0.14   0
  -4   8   7    0.36    0.13   0
  -4   8   7   -0.01    0.14   0
   4  -8  -7    0.16    0.15   0
  -4   8   7    0.15    0.13   0
   3  -8  -7    0.09    0.14   0
  -3   8   7   -0.07    0.13   0
  -3   8   7    0.19    0.14   0
   3  -8  -7    0.30    0.16   0
  -3   8   7    0.38    0.16   0
   2  -8  -7    1.23    0.14   0
  -2   8   7    1.43    0.14   0
  -2   8   7    1.54    0.17   0
  -2   8   7    1.59    0.15   0
   2  -8  -7    1.49    0.17   0
   1  -8  -7    2.32    0.18   0
   1  -8  -7    2.32    0.14   0
   1  -8  -7    2.31    0.19   0
  -1   8   7    2.34    0.15   0
  -1   8   7    2.32    0.15   0
   0  -8  -7    0.83    0.21   0
   0  -8  -7    0.67    0.16   0
   0  -8  -7    0.85    0.22   0
   0   8   7    0.98    0.16   0
   0   8   7    0.92    0.14   0
   1   8   7    0.18    0.16   0
  -1  -8  -7    0.02    0.16   0
   1   8   7   -0.13    0.14   0
   2   8   7    1.01    0.17   0
  -2  -8  -7    0.73    0.18   0
   2   8   7    0.69    0.12   0
   3   8   7    1.84    0.20   0
   3   8   7    2.12    0.15   0
  -3  -8  -7    1.86    0.20   0
   7  -9  -7    0.49    0.17   0
   7  -9  -7    0.43    0.12   0
  -7   9   7    0.65    0.15   0
  -7   9   7    0.42    0.15   0
  -7   9   7    0.27    0.20   0
   6  -9  -7    0.72    0.16   0
   6  -9  -7    0.32    0.15   0
  -6   9   7    0.41    0.11   0
  -6   9   7    0.42    0.14   0
  -6   9   7    0.40    0.17   0
   5  -9  -7    0.81    0.16   0
   5  -9  -7    0.52    0.12   0
  -5   9   7    0.65    0.12   0
  -5   9   7    0.56    0.15   0
  -5   9   7    0.66    0.17   0
   4  -9  -7    0.63    0.15   0
   4  -9  -7    0.50    0.12   0
  -4   9   7    0.67    0.14   0
  -4   9   7    0.71    0.14   0
  -4   9   7    0.69    0.14   0
   3  -9  -7    1.52    0.17   0
   3  -9  -7    1.52    0.14   0
  -3   9   7    1.45    0.12   0
  -3   9   7    1.48    0.14   0
  -3   9   7    1.34    0.15   0
   2  -9  -7    0.98    0.19   0
   2  -9  -7    0.95    0.15   0
  -2   9   7    0.95    0.14   0
  -2   9   7    1.21    0.15   0
   1  -9  -7    0.71    0.22   0
   1  -9  -7    1.03    0.14   0
   1  -9  -7    0.89    0.21   0
  -1   9   7    1.19    0.15   0
  -1   9   7    0.92    0.12   0
   0  -9  -7    0.08    0.26   0
   0  -9  -7    0.06    0.24   0
   0   9   7    0.22    0.14   0
   0  -9  -7    0.08    0.14   0
   0   9   7    0.25    0.14   0
   1   9   7    0.54    0.17   0
  -1  -9  -7    0.62    0.17   0
   1   9   7    0.52    0.13   0
   2   9   7    0.19    0.17   0
   6 -10  -7    0.81    0.17   0
   6 -10  -7    0.98    0.16   0
  -6  10   7    0.38    0.15   0
  -6  10   7    0.30    0.16   0
  -6  10   7    0.92    0.18   0
   5 -10  -7    0.37    0.15   0
  -5  10   7    0.36    0.15   0
  -5  10   7    0.10    0.15   0
   5 -10  -7    0.18    0.16   0
  -5  10   7    0.16    0.17   0
  -4  10   7    1.79    0.18   0
   4 -10  -7    1.62    0.16   0
   4 -10  -7    1.92    0.15   0
  -4  10   7    1.40    0.15   0
  -4  10   7    1.46    0.15   0
   3 -10  -7    0.92    0.18   0
   3 -10  -7    0.85    0.15   0
  -3  10   7    0.83    0.15   0
  -3  10   7    0.85    0.17   0
  -3  10   7    0.57    0.15   0
   2 -10  -7    0.21    0.18   0
   2 -10  -7    0.36    0.14   0
  -2  10   7    0.27    0.15   0
  -2  10   7    0.49    0.15   0
   1 -10  -7    0.27    0.22   0
   1 -10  -7   -0.02    0.22   0
  -1  10   7    0.30    0.15   0
   1 -10  -7    0.20    0.17   0
  -1  10   7    0.17    0.15   0
   0  10   7    2.91    0.16   0
   0 -10  -7    2.73    0.18   0
   0  10   7    2.90    0.16   0
   2  12  -8    1.01    0.16   0
  -2 -12   8    1.01    0.16   0
   2  12  -8    0.98    0.15   0
  -2 -12   8    1.05    0.15   0
   1  12  -8    0.19    0.17   0
  -1 -12   8    0.35    0.14   0
  -1 -12   8    0.40    0.15   0
   1  12  -8    0.52    0.14   0
   0  12  -8    0.19    0.15   0
   0 -12   8    0.37    0.15   0
   0 -12   8    0.06    0.11   0
   0  12  -8    0.47    0.14   0
  -1  12  -8    2.72    0.16   0
   1 -12   8    3.10    0.15   0
   1 -12   8    3.12    0.16   0
  -1  12  -8    2.81    0.13   0
  -1  12  -8    2.80    0.13   0
   2 -12   8    6.85    0.17   0
  -2  12  -8    6.89    0.14   0
  -2  12  -8    7.07    0.14   0
   2 -12   8    7.62    0.16   0
  -2  12  -8    6.45    0.17   0
  -3  12  -8    1.27    0.16   0
   3 -12   8    1.10    0.16   0
  -3  12  -8    1.10    0.14   0
  -3  12  -8    1.17    0.15   0
   3 -12   8    1.23    0.12   0
  -4  12  -8    0.23    0.12   0
   4 -12   8    0.39    0.15   0
  -4  12  -8    0.07    0.15   0
   4 -12   8    0.23    0.14   0
  -4  12  -8   -0.29    0.14   0
   3  11  -8    0.61    0.14   0
   3  11  -8    0.27    0.18   0
   3  11  -8    0.39    0.14   0
   2  11  -8    3.53    0.18   0
  -2 -11   8    4.22    0.15   0
  -2 -11   8    4.03    0.18   0
   2  11  -8    3.28    0.15   0
   1  11  -8    0.01    0.15   0
  -1 -11   8    0.34    0.13   0
  -1 -11   8    0.36    0.15   0
   1  11  -8    0.13    0.14   0
   0  11  -8    2.67    0.16   0
   0 -11   8    2.95    0.16   0
   0 -11   8    2.78    0.12   0
   0  11  -8    2.98    0.14   0
   0  11  -8    2.82    0.15   0
   1 -11   8    2.38    0.14   0
   1 -11   8    1.83    0.15   0
  -1  11  -8    1.88    0.11   0
  -1  11  -8    1.98    0.14   0
  -1  11  -8    1.60    0.15   0
  -2  11  -8    0.68    0.14   0
   2 -11   8    1.09    0.14   0
  -2  11  -8    0.66    0.13   0
  -2  11  -8    0.76    0.11   0
   2 -11   8    0.84    0.13   0
  -3  11  -8    0.24    0.14   0
   3 -11   8    0.37    0.11   0
  -3  11  -8    0.31    0.11   0
  -3  11  -8    0.05    0.14   0
   3 -11   8    0.43    0.11   0
  -4  11  -8   -0.06    0.15   0
   4 -11   8    0.19    0.15   0
  -4  11  -8    0.21    0.14   0
   4 -11   8    0.11    0.14   0
  -4  11  -8    0.08    0.12   0
  -5  11  -8    1.99    0.13   0
   5 -11   8    1.78    0.16   0
  -5  11  -8    1.80    0.15   0
   5 -11   8    1.96    0.15   0
  -5  11  -8    2.08    0.15   0
   5  10  -8    0.19    0.17   0
   5  10  -8    0.03    0.18   0
   5  10  -8   -0.06    0.17   0
   5  10  -8    0.09    0.20   0
   4  10  -8    1.65    0.15   0
   4  10  -8    1.77    0.18   0
   4  10  -8    2.01    0.17   0
   4  10  -8    1.69    0.18   0
   3  10  -8    2.11    0.14   0
   3  10  -8    2.04    0.17   0
   3  10  -8    2.26    0.14   0
   2  10  -8    0.64    0.15   0
  -2 -10   8    0.72    0.15   0
   2  10  -8    0.83    0.14   0
   1  10  -8   13.99    0.19   0
  -1 -10   8   15.93    0.16   0
  -1 -10   8   15.53    0.20   0
   1  10  -8   14.32    0.18   0
   0  10  -8    1.76    0.15   0
   0 -10   8    2.15    0.15   0
   0  10  -8    2.17    0.13   0
   0 -10   8    2.09    0.14   0
   0  10  -8    2.02    0.11   0
   1 -10   8    3.90    0.13   0
  -1  10  -8    3.45    0.13   0
   1 -10   8    3.59    0.15   0
  -1  10  -8    3.65    0.14   0
  -1  10  -8    3.31    0.11   0
  -2  10  -8    0.44    0.11   0
   2 -10   8    0.37    0.14   0
  -2  10  -8    0.32    0.13   0
  -2  10  -8    0.42    0.12   0
   2 -10   8    0.59    0.13   0
  -3  10  -8    3.53    0.15   0
  -3  10  -8    3.76    0.15   0
  -3  10  -8    3.35    0.15   0
   3 -10   8    4.25    0.15   0
   3 -10   8    3.54    0.13   0
  -4  10  -8    1.66    0.14   0
   4 -10   8    1.14    0.15   0
  -4  10  -8    1.34    0.14   0
   4 -10   8    1.24    0.12   0
  -4  10  -8    1.21    0.14   0
  -5  10  -8    0.52    0.12   0
   5 -10   8    0.82    0.14   0
  -5  10  -8    0.76    0.14   0
   5 -10   8    0.81    0.11   0
  -5  10  -8    0.57    0.15   0
  -6  10  -8   -0.05    0.14   0
  -6  10  -8   -0.09    0.14   0
   6 -10   8    0.27    0.14   0
  -6  10  -8    0.18    0.15   0
   6 -10   8    0.03    0.12   0
   6   9  -8    0.38    0.18   0
   6   9  -8    0.22    0.15   0
   6   9  -8    0.32    0.17   0
   6   9  -8    0.14    0.21   0
   5   9  -8    0.27    0.14   0
   5   9  -8    0.25    0.18   0
   5   9  -8    0.31    0.17   0
   5   9  -8    0.23    0.14   0
   4   9  -8    1.12    0.15   0
   4   9  -8    1.06    0.17   0
   4   9  -8    1.09    0.17   0
   4   9  -8    1.32    0.14   0
   3   9  -8    1.14    0.13   0
   3   9  -8    0.75    0.16   0
   3   9  -8    0.70    0.13   0
   2   9  -8    0.07    0.14   0
  -2  -9   8   -0.09    0.16   0
   2   9  -8    0.13    0.13   0
   1   9  -8    0.79    0.14   0
  -1  -9   8    0.63    0.13   0
  -1  -9   8    0.73    0.11   0
   1   9  -8    1.63    0.13   0
   0   9  -8    0.18    0.14   0
   0  -9   8    0.12    0.13   0
   0   9  -8    0.05    0.10   0
   0  -9   8    0.12    0.13   0
   0   9  -8   -0.11    0.13   0
  -1   9  -8    1.38    0.15   0
   1  -9   8    1.34    0.13   0
   1  -9   8    1.39    0.13   0
  -1   9  -8    1.00    0.13   0
  -1   9  -8    1.14    0.13   0
  -2   9  -8   -0.34    0.15   0
   2  -9   8    0.21    0.12   0
   2  -9   8    0.08    0.14   0
  -2   9  -8    0.24    0.12   0
  -2   9  -8    0.01    0.12   0
  -3   9  -8    3.67    0.15   0
   3  -9   8    3.61    0.15   0
   3  -9   8    3.95    0.14   0
  -3   9  -8    3.50    0.14   0
  -3   9  -8    3.17    0.14   0
  -4   9  -8    0.44    0.12   0
   4  -9   8    0.44    0.11   0
  -4   9  -8    0.54    0.13   0
  -4   9  -8    0.44    0.13   0
   4  -9   8    0.61    0.10   0
   5  -9   8    0.65    0.11   0
  -5   9  -8    0.55    0.11   0
  -5   9  -8    0.60    0.14   0
  -5   9  -8    0.63    0.14   0
   5  -9   8    0.81    0.13   0
  -6   9  -8    0.61    0.15   0
   6  -9   8    0.35    0.15   0
  -6   9  -8    0.60    0.15   0
   6  -9   8    0.45    0.15   0
  -6   9  -8    0.41    0.15   0
   6   8  -8    1.94    0.18   0
   6   8  -8    1.81    0.16   0
   6   8  -8    1.90    0.18   0
   6   8  -8    2.05    0.18   0
   5   8  -8    0.11    0.13   0
   5   8  -8    0.19    0.15   0
   5   8  -8    0.17    0.16   0
   5   8  -8    0.09    0.16   0
   4   8  -8    3.64    0.17   0
   4   8  -8    4.02    0.15   0
   4   8  -8    3.43    0.16   0
   4   8  -8    3.45    0.15   0
   3   8  -8    0.77    0.13   0
   3   8  -8    0.93    0.13   0
   3   8  -8    0.84    0.16   0
   2   8  -8   -0.17    0.13   0
   2   8  -8   -0.02    0.15   0
  -2  -8   8    0.10    0.14   0
   1   8  -8    1.35    0.11   0
   1   8  -8    1.26    0.15   0
  -1  -8   8    1.41    0.14   0
   1   8  -8    1.31    0.13   0
  -1  -8   8    1.19    0.13   0
   0   8  -8    0.21    0.12   0
   0   8  -8    0.24    0.14   0
   0  -8   8    0.13    0.11   0
   0   8  -8    0.30    0.13   0
   0  -8   8    0.19    0.10   0
  -1   8  -8    1.49    0.15   0
   1  -8   8    1.78    0.14   0
  -1   8  -8    1.70    0.11   0
   1  -8   8    2.01    0.12   0
  -1   8  -8    1.70    0.11   0
  -2   8  -8    0.29    0.11   0
   2  -8   8    0.27    0.12   0
   2  -8   8    0.19    0.11   0
  -2   8  -8    0.02    0.13   0
  -2   8  -8    0.11    0.13   0
   3  -8   8    1.78    0.13   0
  -3   8  -8    1.50    0.14   0
   3  -8   8    1.63    0.14   0
  -3   8  -8    1.84    0.14   0
  -3   8  -8    1.92    0.14   0
  -4   8  -8    6.66    0.15   0
   4  -8   8    6.06    0.15   0
  -4   8  -8    6.33    0.15   0
  -4   8  -8    6.43    0.15   0
   4  -8   8    6.97    0.15   0
   5  -8   8    4.35    0.15   0
  -5   8  -8    3.66    0.15   0
   5  -8   8    3.95    0.15   0
  -5   8  -8    4.04    0.16   0
  -5   8  -8    4.12    0.15   0
  -6   8  -8    0.18    0.14   0
   6  -8   8    0.24    0.14   0
   6  -8   8    0.01    0.14   0
  -6   8  -8    0.32    0.16   0
  -6   8  -8    0.49    0.14   0
  -7   8  -8    0.33    0.15   0
   7  -8   8    0.64    0.15   0
   7  -8   8    0.47    0.15   0
  -7   8  -8    0.66    0.15   0
  -7   8  -8    0.31    0.16   0
   7   7  -8    0.07    0.17   0
   7   7  -8    0.13    0.17   0
   7   7  -8    0.19    0.18   0
   7   7  -8    0.24    0.17   0
   6   7  -8    0.14    0.17   0
   6   7  -8   -0.12    0.16   0
   6   7  -8    0.22    0.17   0
   6   7  -8   -0.09    0.14   0
   5   7  -8    8.12    0.17   0
   5   7  -8    8.53    0.19   0
   5   7  -8    8.19    0.17   0
   5   7  -8    8.72    0.17   0
   4   7  -8   14.12    0.18   0
   4   7  -8   14.19    0.20   0
   4   7  -8   15.37    0.19   0
   4   7  -8   13.44    0.19   0
   3   7  -8    4.47    0.15   0
   3   7  -8    4.22    0.16   0
   3   7  -8    4.48    0.15   0
   2   7  -8   29.09    0.21   0
   2   7  -8   28.36    0.22   0
   2   7  -8   30.51    0.22   0
  -2  -7   8   31.81    0.23   0
   2   7  -8   31.34    0.23   0
   1   7  -8    0.95    0.15   0
   1   7  -8    1.22    0.13   0
  -1  -7   8    1.25    0.15   0
   1   7  -8    1.24    0.14   0
   0   7  -8    0.74    0.15   0
   0  -7   8    0.85    0.13   0
   0   7  -8    0.85    0.13   0
   0  -7   8    0.79    0.14   0
   0   7  -8    0.83    0.13   0
  -1   7  -8    0.20    0.10   0
  -1   7  -8    0.38    0.15   0
   1  -7   8    0.07    0.14   0
  -1   7  -8    0.17    0.12   0
   1  -7   8    0.14    0.12   0
  -2   7  -8    0.95    0.14   0
   2  -7   8    0.90    0.14   0
   2  -7   8    1.07    0.13   0
  -2   7  -8    1.06    0.12   0
  -2   7  -8    0.78    0.13   0
  -3   7  -8    0.40    0.13   0
   3  -7   8    0.19    0.10   0
   3  -7   8    0.34    0.13   0
  -3   7  -8    0.29    0.10   0
  -3   7  -8    0.30    0.10   0
  -4   7  -8   -0.06    0.14   0
   4  -7   8    0.09    0.11   0
   4  -7   8    0.12    0.13   0
  -4   7  -8    0.17    0.13   0
  -4   7  -8    0.05    0.14   0
   5  -7   8    4.31    0.16   0
  -5   7  -8    4.90    0.15   0
   5  -7   8    5.39    0.15   0
  -5   7  -8    4.65    0.15   0
  -5   7  -8    5.27    0.15   0
  -6   7  -8    1.33    0.15   0
   6  -7   8    1.36    0.15   0
  -6   7  -8    1.49    0.14   0
   6  -7   8    1.56    0.14   0
  -6   7  -8    1.57    0.15   0
   7  -7   8    2.62    0.13   0
  -7   7  -8    2.85    0.18   0
   7  -7   8    3.15    0.18   0
  -7   7  -8    2.86    0.16   0
  -7   7  -8    3.07    0.16   0
   8   6  -8    0.27    0.18   0
   8   6  -8    0.33    0.19   0
   8   6  -8    0.49    0.18   0
   8   6  -8    0.39    0.21   0
   7   6  -8    0.05    0.15   0
   7   6  -8    0.00    0.17   0
   7   6  -8    0.24    0.14   0
   7   6  -8    0.07    0.17   0
   6   6  -8    2.09    0.17   0
   6   6  -8    2.29    0.17   0
   6   6  -8    2.18    0.15   0
   6   6  -8    2.23    0.17   0
   5   6  -8    0.02    0.16   0
   5   6  -8    0.19    0.15   0
   5   6  -8    0.23    0.17   0
   5   6  -8    0.36    0.16   0
   4   6  -8    0.11    0.13   0
   4   6  -8    0.12    0.15   0
   4   6  -8   -0.11    0.14   0
   4   6  -8    0.20    0.14   0
   3   6  -8    4.79    0.15   0
   3   6  -8    4.47    0.15   0
   3   6  -8    5.18    0.16   0
   3   6  -8    4.86    0.16   0
   2   6  -8    7.93    0.16   0
   2   6  -8    7.70    0.17   0
  -2  -6   8    8.07    0.17   0
   2   6  -8    7.80    0.16   0
   2   6  -8    8.03    0.16   0
   1   6  -8    2.34    0.13   0
   1   6  -8    2.03    0.15   0
  -1  -6   8    2.65    0.15   0
   1   6  -8    2.12    0.14   0
   1   6  -8    2.04    0.11   0
   0   6  -8    1.27    0.15   0
   0  -6   8    1.55    0.15   0
   0   6  -8    1.44    0.11   0
   0   6  -8    1.21    0.11   0
  -1   6  -8    1.22    0.12   0
   1  -6   8    1.35    0.13   0
  -1   6  -8    1.24    0.14   0
   1  -6   8    1.47    0.14   0
  -1   6  -8    1.13    0.13   0
  -2   6  -8    6.34    0.16   0
  -2   6  -8    5.78    0.16   0
   2  -6   8    6.86    0.15   0
   2  -6   8    5.80    0.13   0
  -2   6  -8    6.37    0.13   0
  -3   6  -8    0.85    0.14   0
   3  -6   8    0.47    0.14   0
  -3   6  -8    0.82    0.13   0
   3  -6   8    0.63    0.14   0
  -3   6  -8    0.61    0.11   0
   4  -6   8   11.34    0.18   0
  -4   6  -8   10.69    0.15   0
  -4   6  -8   11.25    0.17   0
   4  -6   8   12.51    0.18   0
  -4   6  -8   10.88    0.15   0
  -5   6  -8    1.50    0.14   0
   5  -6   8    1.28    0.14   0
   5  -6   8    1.38    0.14   0
  -5   6  -8    1.55    0.14   0
  -5   6  -8    1.52    0.14   0
  -6   6  -8    0.50    0.14   0
   6  -6   8    0.23    0.14   0
  -6   6  -8    0.29    0.16   0
  -6   6  -8    0.29    0.14   0
   6  -6   8    0.40    0.13   0
  -7   6  -8    0.23    0.17   0
   7  -6   8    0.12    0.14   0
  -7   6  -8    0.19    0.12   0
  -7   6  -8    0.06    0.15   0
   8   5  -8    0.40    0.18   0
   8   5  -8    0.36    0.19   0
   8   5  -8    0.13    0.18   0
   8   5  -8    0.10    0.17   0
   8   5  -8    0.38    0.17   0
   7   5  -8    0.37    0.15   0
   7   5  -8    0.44    0.14   0
   7   5  -8    0.34    0.16   0
   7   5  -8    0.23    0.14   0
   7   5  -8    0.64    0.16   0
   6   5  -8    2.63    0.15   0
   6   5  -8    2.37    0.15   0
   6   5  -8    2.76    0.17   0
   6   5  -8    2.48    0.15   0
   5   5  -8    8.40    0.17   0
   5   5  -8    8.92    0.19   0
   5   5  -8    8.47    0.17   0
   5   5  -8    8.67    0.19   0
   5   5  -8    8.40    0.17   0
   4   5  -8   15.89    0.18   0
   4   5  -8   17.09    0.19   0
   4   5  -8   15.91    0.19   0
   4   5  -8   17.03    0.19   0
   4   5  -8   15.65    0.19   0
   3   5  -8    0.57    0.13   0
   3   5  -8    0.45    0.11   0
   3   5  -8    0.35    0.14   0
   3   5  -8    0.47    0.12   0
   2   5  -8    1.12    0.11   0
   2   5  -8    1.07    0.13   0
   2   5  -8    1.02    0.15   0
  -2  -5   8    0.77    0.14   0
   2   5  -8    0.91    0.13   0
   1   5  -8    4.26    0.14   0
   1   5  -8    3.84    0.16   0
  -1  -5   8    4.42    0.15   0
   1   5  -8    4.36    0.14   0
   1   5  -8    4.15    0.14   0
   0   5  -8    3.18    0.14   0
   0   5  -8    3.03    0.15   0
   0  -5   8    3.25    0.15   0
   0   5  -8    3.35    0.14   0
   0   5  -8    3.00    0.14   0
  -1   5  -8   13.03    0.19   0
   1  -5   8   14.01    0.18   0
  -1   5  -8   14.25    0.17   0
  -1   5  -8   14.12    0.18   0
   2  -5   8    7.86    0.16   0
  -2   5  -8    7.03    0.17   0
   2  -5   8    7.32    0.16   0
  -2   5  -8    6.76    0.16   0
  -2   5  -8    6.78    0.16   0
  -3   5  -8   50.87    0.25   0
  -3   5  -8   50.18    0.27   0
   3  -5   8   52.00    0.26   0
  -3   5  -8   52.87    0.26   0
   3  -5   8   56.23    0.27   0
  -4   5  -8    0.37    0.14   0
   4  -5   8   -0.20    0.14   0
  -4   5  -8    0.07    0.13   0
   4  -5   8    0.11    0.11   0
   4  -5   8    0.03    0.13   0
  -4   5  -8    0.22    0.15   0
  -5   5  -8    0.13    0.14   0
   5  -5   8    0.13    0.14   0
   5  -5   8    0.05    0.13   0
  -5   5  -8    0.23    0.13   0
  -5   5  -8    0.12    0.13   0
  -6   5  -8    2.18    0.14   0
   6  -5   8    2.01    0.15   0
  -6   5  -8    1.94    0.16   0
   6  -5   8    2.37    0.15   0
  -6   5  -8    2.21    0.16   0
  -7   5  -8    0.71    0.17   0
  -7   5  -8    0.59    0.19   0
   7  -5   8    0.67    0.15   0
   7  -5   8    0.76    0.15   0
  -7   5  -8    0.78    0.15   0
  -7   5  -8    0.91    0.15   0
   8   4  -8    3.62    0.18   0
   8   4  -8    3.58    0.17   0
   8   4  -8    3.25    0.24   0
   8   4  -8    3.32    0.19   0
   8   4  -8    3.27    0.16   0
   7   4  -8    2.17    0.16   0
   7   4  -8    2.14    0.16   0
   7   4  -8    2.38    0.17   0
   7   4  -8    2.43    0.17   0
   7   4  -8    2.26    0.19   0
   6   4  -8    0.27    0.16   0
   6   4  -8    0.12    0.15   0
   6   4  -8    0.22    0.18   0
   6   4  -8    0.29    0.14   0
   6   4  -8    0.31    0.15   0
   5   4  -8    0.07    0.13   0
   5   4  -8    0.23    0.14   0
   5   4  -8    0.28    0.14   0
   5   4  -8    0.26    0.14   0
   5   4  -8    0.27    0.15   0
   4   4  -8    0.61    0.13   0
   4   4  -8    0.86    0.13   0
   4   4  -8    0.67    0.14   0
   4   4  -8    1.01    0.15   0
   4   4  -8    0.60    0.15   0
   3   4  -8    5.60    0.15   0
   3   4  -8    5.56    0.15   0
   3   4  -8    5.41    0.14   0
   3   4  -8    5.57    0.15   0
   3   4  -8    5.45    0.14   0
   2   4  -8    8.79    0.14   0
   2   4  -8    8.41    0.17   0
  -2  -4   8    8.75    0.17   0
   2   4  -8    8.70    0.17   0
   2   4  -8    8.74    0.14   0
   1   4  -8    9.93    0.16   0
   1   4  -8    9.68    0.18   0
  -1  -4   8   10.61    0.18   0
   1   4  -8   10.09    0.14   0
   1   4  -8   10.37    0.17   0
   0   4  -8   14.92    0.18   0
   0   4  -8   14.85    0.16   0
   0   4  -8   14.15    0.18   0
   0  -4   8   14.63    0.16   0
   0   4  -8   14.49    0.18   0
  -1   4  -8    3.83    0.14   0
  -1   4  -8    3.67    0.16   0
   1  -4   8    3.86    0.13   0
   1  -4   8    3.73    0.12   0
  -1   4  -8    4.13    0.14   0
  -1   4  -8    3.87    0.15   0
  -2   4  -8   13.76    0.17   0
   2  -4   8   15.77    0.19   0
  -2   4  -8   14.76    0.18   0
   2  -4   8   15.28    0.18   0
  -2   4  -8   14.87    0.18   0
  -2   4  -8   14.67    0.16   0
  -3   4  -8   80.11    0.32   0
  -3   4  -8   76.21    0.31   0
  -3   4  -8   76.61    0.31   0
   3  -4   8   78.71    0.32   0
   3  -4   8   80.96    0.31   0
  -3   4  -8   79.61    0.31   0
  -4   4  -8   13.99    0.18   0
  -4   4  -8   13.54    0.19   0
   4  -4   8   13.92    0.18   0
   4  -4   8   14.67    0.18   0
  -4   4  -8   13.83    0.18   0
  -4   4  -8   13.43    0.18   0
  -5   4  -8    5.78    0.18   0
  -5   4  -8    5.64    0.15   0
   5  -4   8    5.86    0.16   0
   5  -4   8    6.26    0.16   0
  -5   4  -8    5.72    0.18   0
  -5   4  -8    5.91    0.15   0
  -6   4  -8    0.02    0.14   0
  -6   4  -8    0.24    0.15   0
   6  -4   8    0.12    0.14   0
  -6   4  -8    0.13    0.15   0
   6  -4   8    0.30    0.13   0
  -6   4  -8    0.25    0.14   0
  -7   4  -8    0.32    0.18   0
  -7   4  -8    0.24    0.17   0
   7  -4   8    0.11    0.15   0
   7  -4   8    0.38    0.15   0
  -7   4  -8    0.34    0.15   0
  -7   4  -8    0.31    0.15   0
   9   3  -8    0.03    0.17   0
   9   3  -8   -0.15    0.15   0
   9   3  -8    0.21    0.17   0
   9   3  -8    0.04    0.17   0
   8   3  -8    0.18    0.15   0
   8   3  -8    0.19    0.16   0
   8   3  -8    0.01    0.14   0
   8   3  -8    0.07    0.28   0
   8   3  -8    0.10    0.14   0
   8   3  -8    0.08    0.28   0
   7   3  -8    0.20    0.13   0
   7   3  -8    0.24    0.14   0
   7   3  -8    0.03    0.13   0
   7   3  -8    0.07    0.19   0
   7   3  -8    0.22    0.16   0
   6   3  -8    0.47    0.14   0
   6   3  -8    0.12    0.14   0
   6   3  -8    0.12    0.14   0
   6   3  -8    0.13    0.17   0
   6   3  -8    0.40    0.13   0
   5   3  -8    6.86    0.16   0
   5   3  -8    6.77    0.17   0
   5   3  -8    7.24    0.15   0
   5   3  -8    6.52    0.19   0
   5   3  -8    6.58    0.17   0
   4   3  -8   40.16    0.25   0
   4   3  -8   38.94    0.24   0
   4   3  -8   41.69    0.23   0
   4   3  -8   38.50    0.28   0
   4   3  -8   39.10    0.25   0
   3   3  -8    7.03    0.14   0
   3   3  -8    6.74    0.13   0
   3   3  -8    6.53    0.16   0
   3   3  -8    6.82    0.14   0
   3   3  -8    6.84    0.16   0
   2   3  -8   17.34    0.17   0
   2   3  -8   17.41    0.16   0
   2   3  -8   16.79    0.19   0
  -2  -3   8   17.17    0.19   0
   2   3  -8   17.58    0.22   0
   1   3  -8    3.91    0.14   0
   1   3  -8    3.71    0.15   0
  -1  -3   8    4.49    0.15   0
   1   3  -8    4.50    0.14   0
   1   3  -8    4.22    0.15   0
   0   3  -8   14.36    0.17   0
   0   3  -8   13.31    0.16   0
   0  -3   8   14.30    0.18   0
   0  -3   8   13.95    0.18   0
   0   3  -8   14.01    0.16   0
   0   3  -8   14.54    0.18   0
  -1   3  -8   62.28    0.28   0
  -1   3  -8   58.92    0.28   0
  -1   3  -8   62.93    0.29   0
   1  -3   8   62.51    0.27   0
   1  -3   8   61.22    0.28   0
  -1   3  -8   62.64    0.27   0
  -2   3  -8   14.98    0.19   0
  -2   3  -8   13.56    0.19   0
   2  -3   8   14.15    0.17   0
   2  -3   8   14.31    0.18   0
  -2   3  -8   14.13    0.18   0
  -2   3  -8   14.09    0.19   0
  -3   3  -8    3.02    0.16   0
  -3   3  -8    3.18    0.16   0
   3  -3   8    2.98    0.16   0
  -3   3  -8    2.81    0.14   0
  -3   3  -8    3.39    0.15   0
   3  -3   8    3.15    0.15   0
  -4   3  -8   28.08    0.22   0
  -4   3  -8   28.64    0.23   0
  -4   3  -8   29.65    0.25   0
   4  -3   8   28.29    0.20   0
   4  -3   8   30.50    0.22   0
  -4   3  -8   29.51    0.20   0
  -5   3  -8   -0.13    0.14   0
  -5   3  -8    0.11    0.15   0
   5  -3   8    0.08    0.14   0
   5  -3   8    0.14    0.13   0
  -5   3  -8    0.10    0.15   0
  -5   3  -8    0.28    0.14   0
  -6   3  -8    1.32    0.15   0
  -6   3  -8    1.28    0.16   0
   6  -3   8    1.43    0.14   0
  -6   3  -8    1.39    0.17   0
   6  -3   8    1.30    0.14   0
  -6   3  -8    1.53    0.14   0
  -7   3  -8    9.41    0.25   0
  -7   3  -8    9.68    0.26   0
   7  -3   8    9.53    0.19   0
   7  -3   8    9.86    0.19   0
  -7   3  -8    9.68    0.18   0
  -7   3  -8    9.61    0.21   0
   9   2  -8   -0.02    0.16   0
   9   2  -8    0.27    0.17   0
   9   2  -8   -0.04    0.17   0
   9   2  -8   -0.04    0.15   0
   8   2  -8    1.81    0.15   0
   8   2  -8    1.32    0.17   0
   8   2  -8    1.49    0.15   0
   7   2  -8    0.61    0.29   0
   7   2  -8    0.59    0.14   0
   7   2  -8    0.90    0.14   0
   7   2  -8    0.53    0.14   0
  -6  -2   8   17.13    0.19   0
   6   2  -8   17.04    0.20   0
   6   2  -8   18.38    0.20   0
   6   2  -8   18.15    0.21   0
   6   2  -8   17.45    0.32   0
  -5  -2   8    0.18    0.15   0
   5   2  -8   -0.18    0.15   0
   5   2  -8    0.11    0.15   0
   5   2  -8    0.25    0.18   0
   5   2  -8    0.19    0.14   0
  -4  -2   8   20.89    0.21   0
   4   2  -8   20.24    0.18   0
   4   2  -8   19.86    0.20   0
   4   2  -8   20.44    0.25   0
   4   2  -8   20.23    0.20   0
  -3  -2   8    0.17    0.11   0
   3   2  -8    0.01    0.13   0
   3   2  -8    0.22    0.14   0
   3   2  -8    0.05    0.14   0
   3   2  -8    0.13    0.15   0
  -2  -2   8    0.06    0.11   0
   2   2  -8    0.35    0.12   0
   2   2  -8    0.14    0.14   0
   2   2  -8    0.34    0.16   0
   1   2  -8    0.98    0.11   0
   1   2  -8    0.81    0.14   0
  -1  -2   8    0.63    0.14   0
  -1  -2   8    0.81    0.14   0
   1   2  -8    0.80    0.14   0
   0   2  -8    8.02    0.16   0
   0   2  -8    8.18    0.16   0
   0   2  -8    7.62    0.17   0
   0  -2   8    7.95    0.17   0
   0  -2   8    8.20    0.16   0
   0   2  -8    8.65    0.17   0
  -1   2  -8   21.32    0.20   0
  -1   2  -8   21.62    0.20   0
  -1   2  -8   19.88    0.19   0
   1  -2   8   20.97    0.19   0
   1  -2   8   20.22    0.17   0
  -1   2  -8   21.63    0.20   0
  -2   2  -8    2.66    0.14   0
  -2   2  -8    2.82    0.16   0
  -2   2  -8    2.64    0.14   0
   2  -2   8    2.54    0.15   0
   2  -2   8    2.84    0.14   0
  -2   2  -8    2.86    0.12   0
  -3   2  -8    0.40    0.15   0
  -3   2  -8    0.41    0.14   0
   3  -2   8    0.45    0.16   0
   3  -2   8    0.44    0.14   0
  -3   2  -8    0.30    0.13   0
  -3   2  -8    0.38    0.13   0
  -4   2  -8    6.92    0.16   0
  -4   2  -8    7.48    0.18   0
  -4   2  -8    7.29    0.18   0
   4  -2   8    7.49    0.17   0
   4  -2   8    7.64    0.17   0
  -4   2  -8    7.38    0.16   0
  -5   2  -8    6.98    0.17   0
  -5   2  -8    7.25    0.21   0
   5  -2   8    7.09    0.16   0
   5  -2   8    7.41    0.16   0
  -5   2  -8    7.03    0.21   0
  -5   2  -8    7.19    0.16   0
  -6   2  -8    0.92    0.15   0
  -6   2  -8    0.88    0.19   0
   6  -2   8    0.84    0.17   0
  -6   2  -8    0.87    0.20   0
   6  -2   8    0.88    0.14   0
  -6   2  -8    0.88    0.14   0
  -7   2  -8    2.34    0.28   0
   7  -2   8    2.28    0.19   0
  -7   2  -8    2.32    0.28   0
   7  -2   8    2.74    0.16   0
  -7   2  -8    2.35    0.18   0
  -9  -1   8    0.11    0.16   0
   9   1  -8    0.33    0.15   0
   9   1  -8    0.12    0.15   0
  -8  -1   8    0.51    0.16   0
   8   1  -8    0.48    0.14   0
   8   1  -8    0.53    0.17   0
  -7  -1   8    3.91    0.15   0
   7   1  -8    3.94    0.18   0
   7   1  -8    3.87    0.13   0
  -6  -1   8    0.46    0.14   0
   6   1  -8    0.61    0.14   0
   6   1  -8    0.67    0.14   0
   6   1  -8    0.85    0.14   0
   6   1  -8    0.64    0.28   0
  -5  -1   8    0.74    0.14   0
   5   1  -8    0.44    0.15   0
   5   1  -8    0.58    0.14   0
   5   1  -8    0.76    0.20   0
   5   1  -8    0.54    0.14   0
  -4  -1   8    8.77    0.14   0
   4   1  -8    8.23    0.16   0
   4   1  -8    8.76    0.16   0
   4   1  -8    8.29    0.16   0
   4   1  -8    8.42    0.23   0
  -3  -1   8   20.85    0.18   0
   3   1  -8   20.09    0.24   0
   3   1  -8   20.82    0.20   0
   3   1  -8   19.56    0.19   0
   3   1  -8   19.76    0.19   0
  -2  -1   8    1.38    0.11   0
   2   1  -8    1.32    0.13   0
   2   1  -8    1.27    0.14   0
  -2  -1   8    1.15    0.14   0
   2   1  -8    1.23    0.14   0
   2   1  -8    1.40    0.15   0
  -1  -1   8    3.61    0.15   0
   1   1  -8    3.60    0.12   0
   1   1  -8    3.27    0.13   0
  -1  -1   8    3.83    0.15   0
  -1  -1   8    3.51    0.16   0
   1   1  -8    3.66    0.16   0
   0   1  -8   11.74    0.17   0
   0   1  -8   11.25    0.16   0
   0  -1   8   12.37    0.18   0
   0  -1   8   11.80    0.18   0
   0   1  -8   12.27    0.18   0
  -1   1  -8    1.12    0.16   0
  -1   1  -8    1.10    0.14   0
   1  -1   8    1.11    0.15   0
   1  -1   8    1.14    0.14   0
  -1   1  -8    1.35    0.14   0
  -1   1  -8    1.26    0.12   0
  -2   1  -8    6.59    0.17   0
  -2   1  -8    7.48    0.18   0
   2  -1   8    7.05    0.17   0
   2  -1   8    7.11    0.16   0
  -2   1  -8    7.14    0.16   0
  -2   1  -8    6.87    0.16   0
  -3   1  -8    0.19    0.16   0
  -3   1  -8    0.34    0.17   0
  -3   1  -8    0.35    0.15   0
   3  -1   8    0.29    0.16   0
   3  -1   8    0.20    0.14   0
  -3   1  -8    0.21    0.11   0
  -4   1  -8   11.78    0.20   0
  -4   1  -8   12.38    0.22   0
   4  -1   8   12.25    0.20   0
  -4   1  -8   11.82    0.20   0
   4  -1   8   13.47    0.18   0
  -4   1  -8   12.26    0.17   0
  -5   1  -8   23.09    0.24   0
   5  -1   8   23.15    0.22   0
  -5   1  -8   24.06    0.30   0
   5  -1   8   25.65    0.22   0
  -5   1  -8   23.18    0.29   0
  -5   1  -8   24.58    0.22   0
  -6   1  -8    0.08    0.17   0
   6  -1   8    0.22    0.15   0
  -6   1  -8    0.12    0.24   0
  -6   1  -8    0.10    0.24   0
   6  -1   8    0.10    0.14   0
   7  -1   8    0.06    0.18   0
   7  -1   8    0.16    0.15   0
  -7   1  -8    0.04    0.17   0
  -9   0   8    1.29    0.14   0
  -9   0   8    0.82    0.15   0
   9   0  -8    1.43    0.15   0
   9   0  -8    1.02    0.15   0
  -8   0   8    2.17    0.14   0
   8   0  -8    2.38    0.18   0
  -8   0   8    2.44    0.15   0
   8   0  -8    2.38    0.15   0
  -7   0   8    0.57    0.13   0
   7   0  -8    0.50    0.14   0
  -7   0   8    0.60    0.14   0
   7   0  -8    0.47    0.12   0
  -6   0   8    0.27    0.13   0
  -6   0   8    0.11    0.11   0
   6   0  -8    0.40    0.14   0
   6   0  -8    0.16    0.13   0
  -5   0   8    3.48    0.15   0
   5   0  -8    3.61    0.16   0
   5   0  -8    3.27    0.15   0
   5   0  -8    3.56    0.24   0
  -4   0   8    1.10    0.14   0
   4   0  -8    1.10    0.12   0
   4   0  -8    1.01    0.11   0
   4   0  -8    1.22    0.13   0
   4   0  -8    1.08    0.20   0
  -3   0   8    1.34    0.14   0
   3   0  -8    1.25    0.11   0
   3   0  -8    1.39    0.14   0
  -3   0   8    1.38    0.16   0
   3   0  -8    1.53    0.14   0
   3   0  -8    1.33    0.16   0
  -2   0   8   47.67    0.26   0
   2   0  -8   48.53    0.26   0
   2   0  -8   46.20    0.26   0
  -2   0   8   46.04    0.29   0
   2   0  -8   47.83    0.27   0
   2   0  -8   47.98    0.30   0
  -1   0   8    7.52    0.15   0
   1   0  -8    6.93    0.15   0
   1   0  -8    7.53    0.16   0
  -1   0   8    7.18    0.17   0
   1   0  -8    7.48    0.17   0
   1   0  -8    7.99    0.18   0
   0   0   8    0.00    0.14   0
   0   0  -8    0.19    0.15   0
   0   0  -8    0.36    0.14   0
   0   0   8    0.19    0.14   0
   0   0   8   -0.04    0.11   0
   0   0  -8    0.10    0.11   0
   1   0   8   24.80    0.22   0
  -1   0  -8   22.05    0.22   0
  -1   0  -8   25.04    0.22   0
   1   0   8   24.45    0.22   0
   1   0   8   24.82    0.19   0
  -1   0  -8   25.06    0.21   0
  -2   0  -8   18.01    0.19   0
  -2   0  -8   15.03    0.20   0
  -2   0  -8   17.38    0.21   0
  -2   0  -8   17.71    0.22   0
   2   0   8   17.37    0.20   0
   2   0   8   18.10    0.20   0
  -3   0  -8    5.37    0.18   0
   3   0   8    5.66    0.18   0
  -3   0  -8    5.90    0.18   0
  -3   0  -8    5.63    0.17   0
   3   0   8    6.02    0.16   0
  -3   0  -8    5.70    0.15   0
   4   0   8    0.91    0.16   0
  -4   0  -8    0.91    0.18   0
  -4   0  -8    0.84    0.18   0
   4   0   8    0.87    0.14   0
  -4   0  -8    0.71    0.16   0
  -4   0  -8    0.72    0.11   0
  -5   0  -8    0.07    0.14   0
   5   0   8    0.06    0.16   0
  -5   0  -8    0.20    0.21   0
   5   0   8    0.11    0.14   0
  -5   0  -8    0.18    0.20   0
   6   0   8    0.83    0.17   0
   6   0   8    0.89    0.14   0
  -6   0  -8    0.94    0.17   0
   7   0   8    1.92    0.19   0
   7   0   8    2.06    0.16   0
  -7   0  -8    1.89    0.18   0
  -9   1   8   -0.08    0.14   0
  -9   1   8   -0.00    0.14   0
   9  -1  -8   -0.14    0.15   0
   9  -1  -8    0.04    0.14   0
  -8   1   8    0.15    0.14   0
  -8   1   8    0.18    0.12   0
   8  -1  -8    0.01    0.14   0
   8  -1  -8   -0.02    0.12   0
  -7   1   8    1.91    0.14   0
   7  -1  -8    1.91    0.15   0
   7  -1  -8    2.15    0.15   0
  -7   1   8    2.25    0.15   0
  -6   1   8    1.03    0.13   0
  -6   1   8    1.08    0.14   0
   6  -1  -8    0.86    0.14   0
   6  -1  -8    1.08    0.14   0
  -5   1   8    0.18    0.13   0
  -5   1   8    0.25    0.14   0
   5  -1  -8   -0.08    0.15   0
   5  -1  -8    0.12    0.14   0
  -4   1   8    0.19    0.11   0
   4  -1  -8    0.19    0.14   0
  -4   1   8    0.12    0.18   0
   4  -1  -8    0.06    0.11   0
  -3   1   8    6.58    0.15   0
   3  -1  -8    6.26    0.16   0
   3  -1  -8    6.93    0.16   0
  -3   1   8    6.32    0.18   0
   3  -1  -8    6.36    0.16   0
   3  -1  -8    6.46    0.19   0
  -2   1   8   13.71    0.18   0
   2  -1  -8   12.85    0.19   0
   2  -1  -8   14.35    0.19   0
  -2   1   8   13.11    0.19   0
   2  -1  -8   13.87    0.19   0
   2  -1  -8   14.09    0.20   0
  -1   1   8   99.58    0.34   0
   1  -1  -8   96.44    0.37   0
   1  -1  -8  105.07    0.37   0
  -1   1   8   96.13    0.37   0
   1  -1  -8  103.09    0.38   0
   1  -1  -8  104.44    0.39   0
   0   1   8    6.54    0.16   0
   0  -1  -8    6.21    0.17   0
   0  -1  -8    6.72    0.19   0
   0  -1  -8    6.38    0.17   0
   0   1   8    6.31    0.14   0
   0  -1  -8    7.20    0.17   0
   1   1   8    7.88    0.16   0
  -1  -1  -8    7.13    0.17   0
  -1  -1  -8    8.74    0.17   0
   1   1   8    7.71    0.16   0
   1   1   8    8.17    0.14   0
  -1  -1  -8    8.07    0.14   0
  -2  -1  -8   25.18    0.24   0
   2   1   8   28.36    0.25   0
  -2  -1  -8   28.17    0.27   0
   2   1   8   29.83    0.21   0
  -2  -1  -8   27.69    0.21   0
  -3  -1  -8    4.85    0.19   0
  -3  -1  -8    5.35    0.17   0
   3   1   8    5.40    0.18   0
  -3  -1  -8    5.58    0.20   0
   3   1   8    5.41    0.14   0
  -4  -1  -8    5.33    0.21   0
   4   1   8    6.01    0.19   0
  -4  -1  -8    5.66    0.23   0
   4   1   8    5.89    0.16   0
  -4  -1  -8    5.71    0.21   0
  -5  -1  -8    1.11    0.17   0
   5   1   8    1.22    0.19   0
   5   1   8    1.23    0.15   0
  -5  -1  -8    1.12    0.28   0
  -5  -1  -8    1.16    0.26   0
   6   1   8    4.19    0.21   0
   6   1   8    4.27    0.16   0
  -6  -1  -8    4.17    0.19   0
   7   1   8    0.75    0.21   0
   7   1   8    0.59    0.16   0
  -7  -1  -8    0.60    0.20   0
  -9   2   8    1.82    0.15   0
  -9   2   8    2.19    0.15   0
   9  -2  -8    1.89    0.15   0
   9  -2  -8    1.73    0.18   0
  -8   2   8    7.61    0.17   0
   8  -2  -8    8.20    0.17   0
   8  -2  -8    7.95    0.18   0
  -8   2   8    8.71    0.17   0
  -7   2   8    6.91    0.16   0
  -7   2   8    8.04    0.17   0
   7  -2  -8    7.19    0.16   0
   7  -2  -8    7.03    0.15   0
  -6   2   8    0.21    0.13   0
   6  -2  -8    0.33    0.14   0
  -6   2   8    0.58    0.13   0
   6  -2  -8    0.08    0.13   0
  -5   2   8    0.12    0.14   0
  -5   2   8    0.10    0.20   0
   5  -2  -8    0.29    0.15   0
  -5   2   8    0.23    0.14   0
   5  -2  -8   -0.08    0.14   0
  -4   2   8   13.79    0.18   0
   4  -2  -8   14.12    0.19   0
  -4   2   8   13.36    0.16   0
  -4   2   8   13.22    0.25   0
   4  -2  -8   13.70    0.19   0
   3  -2  -8   19.10    0.18   0
  -3   2   8   19.22    0.17   0
   3  -2  -8   18.30    0.17   0
   3  -2  -8   20.29    0.20   0
  -3   2   8   18.89    0.23   0
  -2   2   8    2.79    0.14   0
   2  -2  -8    2.49    0.15   0
   2  -2  -8    2.69    0.16   0
  -2   2   8    2.71    0.16   0
   2  -2  -8    2.57    0.15   0
  -1   2   8   26.75    0.22   0
   1  -2  -8   25.09    0.22   0
  -1   2   8   26.80    0.23   0
   1  -2  -8   27.16    0.23   0
   1  -2  -8   27.52    0.23   0
   0   2   8    6.08    0.16   0
   0  -2  -8    5.58    0.18   0
   0  -2  -8    6.24    0.17   0
   0   2   8    5.99    0.16   0
   0  -2  -8    5.97    0.16   0
   1   2   8    0.41    0.15   0
  -1  -2  -8    0.19    0.16   0
  -1  -2  -8    0.43    0.15   0
  -1  -2  -8    0.14    0.14   0
   1   2   8   -0.02    0.15   0
   2   2   8    0.16    0.15   0
  -2  -2  -8    0.04    0.17   0
  -2  -2  -8    0.24    0.15   0
   2   2   8   -0.05    0.11   0
  -3  -2  -8    1.42    0.20   0
  -3  -2  -8    1.31    0.18   0
   3   2   8    1.50    0.16   0
  -3  -2  -8    1.57    0.17   0
   3   2   8    1.37    0.15   0
  -4  -2  -8   14.99    0.25   0
  -4  -2  -8   15.65    0.29   0
   4   2   8   16.43    0.26   0
   4   2   8   16.41    0.20   0
  -4  -2  -8   15.50    0.30   0
   5   2   8    4.61    0.23   0
   5   2   8    4.68    0.16   0
  -5  -2  -8    4.44    0.21   0
   6   2   8    2.47    0.23   0
   6   2   8    2.24    0.16   0
  -6  -2  -8    2.29    0.23   0
   9  -3  -8    0.13    0.15   0
  -9   3   8    0.02    0.14   0
  -9   3   8    0.45    0.15   0
   9  -3  -8    0.02    0.13   0
  -8   3   8    7.20    0.17   0
  -8   3   8    7.43    0.17   0
   8  -3  -8    6.96    0.18   0
   8  -3  -8    7.85    0.17   0
   7  -3  -8    1.30    0.15   0
  -7   3   8    1.66    0.13   0
  -7   3   8    1.49    0.12   0
   7  -3  -8    1.65    0.12   0
  -6   3   8    6.69    0.15   0
  -6   3   8    6.59    0.13   0
   6  -3  -8    6.99    0.16   0
   6  -3  -8    7.18    0.16   0
  -5   3   8    3.88    0.14   0
  -5   3   8    3.94    0.22   0
  -5   3   8    4.07    0.13   0
   5  -3  -8    3.81    0.13   0
   5  -3  -8    4.35    0.15   0
  -4   3   8   13.14    0.18   0
   4  -3  -8   12.89    0.19   0
  -4   3   8   11.90    0.22   0
  -4   3   8   12.35    0.18   0
   4  -3  -8   13.13    0.19   0
  -3   3   8   56.83    0.26   0
   3  -3  -8   58.73    0.29   0
  -3   3   8   55.42    0.33   0
   3  -3  -8   59.59    0.30   0
  -2   3   8    1.38    0.14   0
   2  -3  -8    1.32    0.15   0
   2  -3  -8    1.52    0.15   0
  -2   3   8    1.39    0.15   0
   2  -3  -8    1.68    0.15   0
  -1   3   8    1.08    0.13   0
   1  -3  -8    1.09    0.17   0
  -1   3   8    0.99    0.14   0
   1  -3  -8    0.99    0.15   0
   1  -3  -8    0.96    0.16   0
   0  -3  -8    0.10    0.16   0
   0   3   8    0.18    0.13   0
   0  -3  -8    0.20    0.17   0
   0  -3  -8    0.07    0.16   0
   0   3   8    0.22    0.14   0
   1   3   8   15.84    0.20   0
  -1  -3  -8   14.63    0.23   0
  -1  -3  -8   15.83    0.20   0
  -1  -3  -8   16.79    0.24   0
   1   3   8   16.76    0.19   0
   2   3   8    7.77    0.19   0
  -2  -3  -8    7.22    0.20   0
  -2  -3  -8    8.44    0.20   0
  -2  -3  -8    8.04    0.20   0
   2   3   8    8.40    0.16   0
  -3  -3  -8    5.49    0.22   0
   3   3   8    6.18    0.15   0
  -3  -3  -8    6.44    0.22   0
  -3  -3  -8    5.79    0.21   0
  -4  -3  -8    4.17    0.24   0
  -4  -3  -8    4.09    0.26   0
  -4  -3  -8    4.50    0.24   0
   4   3   8    4.41    0.16   0
  -4  -3  -8    4.73    0.24   0
  -5  -3  -8    0.48    0.24   0
   5   3   8    0.69    0.15   0
  -5  -3  -8    0.52    0.24   0
   6   3   8    1.88    0.16   0
  -6  -3  -8    1.70    0.32   0
  -6  -3  -8    1.67    0.33   0
   9  -4  -8    0.11    0.15   0
  -9   4   8   -0.00    0.14   0
  -9   4   8    0.16    0.14   0
   9  -4  -8    0.29    0.15   0
  -8   4   8    1.43    0.15   0
  -8   4   8    1.67    0.12   0
   8  -4  -8    1.70    0.12   0
   8  -4  -8    1.48    0.15   0
  -7   4   8    2.41    0.14   0
  -7   4   8    2.49    0.14   0
   7  -4  -8    2.84    0.15   0
   7  -4  -8    2.64    0.12   0
  -6   4   8    0.19    0.14   0
  -6   4   8    0.29    0.13   0
  -6   4   8    0.20    0.26   0
   6  -4  -8    0.32    0.14   0
   6  -4  -8    0.40    0.11   0
  -5   4   8    1.30    0.13   0
  -5   4   8    1.13    0.18   0
  -5   4   8    1.09    0.14   0
   5  -4  -8    0.97    0.14   0
   5  -4  -8    1.33    0.12   0
   4  -4  -8    1.61    0.15   0
  -4   4   8    1.46    0.13   0
  -4   4   8    1.46    0.14   0
  -4   4   8    1.27    0.18   0
   4  -4  -8    1.57    0.14   0
  -3   4   8    5.05    0.16   0
  -3   4   8    5.06    0.16   0
  -3   4   8    5.05    0.16   0
   3  -4  -8    5.48    0.17   0
   3  -4  -8    4.98    0.17   0
  -2   4   8    0.33    0.14   0
   2  -4  -8    0.21    0.13   0
   2  -4  -8    0.10    0.15   0
  -2   4   8   -0.04    0.13   0
   2  -4  -8    0.28    0.14   0
  -1   4   8    0.49    0.13   0
   1  -4  -8    0.56    0.14   0
   1  -4  -8    0.58    0.16   0
   1  -4  -8    0.49    0.14   0
  -1   4   8    0.46    0.14   0
   0   4   8    5.41    0.15   0
   0  -4  -8    5.34    0.19   0
   0  -4  -8    5.29    0.15   0
   0  -4  -8    5.72    0.19   0
   0   4   8    5.77    0.16   0
   1   4   8   37.10    0.26   0
  -1  -4  -8   35.14    0.32   0
  -1  -4  -8   40.20    0.34   0
   1   4   8   41.26    0.25   0
  -1  -4  -8   36.36    0.28   0
   2   4   8    4.42    0.17   0
  -2  -4  -8    4.06    0.22   0
  -2  -4  -8    5.00    0.23   0
   2   4   8    4.56    0.13   0
  -2  -4  -8    4.30    0.18   0
   3   4   8    6.79    0.21   0
  -3  -4  -8    6.92    0.27   0
  -3  -4  -8    6.84    0.21   0
   3   4   8    7.06    0.16   0
  -3  -4  -8    7.75    0.28   0
  -4  -4  -8    0.33    0.24   0
  -4  -4  -8    0.35    0.23   0
   4   4   8    0.38    0.14   0
  -4  -4  -8    0.18    0.30   0
  -4  -4  -8    0.28    0.31   0
   5   4   8    2.59    0.16   0
   9  -5  -8    0.56    0.15   0
  -9   5   8    0.38    0.14   0
  -9   5   8    0.39    0.12   0
   9  -5  -8    0.25    0.15   0
   8  -5  -8    0.73    0.15   0
  -8   5   8    0.86    0.14   0
  -8   5   8    0.53    0.14   0
   8  -5  -8    0.78    0.12   0
  -7   5   8    1.88    0.14   0
  -7   5   8    2.26    0.14   0
   7  -5  -8    2.14    0.15   0
   7  -5  -8    2.07    0.15   0
  -6   5   8    1.62    0.13   0
   6  -5  -8    1.71    0.14   0
  -6   5   8    1.69    0.23   0
  -6   5   8    2.06    0.15   0
   6  -5  -8    1.46    0.14   0
   5  -5  -8    0.79    0.14   0
   5  -5  -8    0.73    0.14   0
  -5   5   8    0.71    0.13   0
  -5   5   8    0.64    0.14   0
  -5   5   8    0.63    0.18   0
  -4   5   8    0.58    0.11   0
  -4   5   8    0.34    0.13   0
   4  -5  -8    0.38    0.14   0
  -4   5   8    0.48    0.16   0
   4  -5  -8    0.45    0.14   0
  -3   5   8    6.72    0.16   0
  -3   5   8    6.76    0.16   0
  -3   5   8    6.49    0.19   0
   3  -5  -8    6.28    0.17   0
   3  -5  -8    6.93    0.17   0
  -2   5   8   31.83    0.21   0
   2  -5  -8   31.47    0.25   0
   2  -5  -8   33.75    0.26   0
  -2   5   8   32.85    0.24   0
   2  -5  -8   31.11    0.24   0
  -1   5   8    9.08    0.17   0
   1  -5  -8    8.81    0.20   0
   1  -5  -8    9.43    0.19   0
  -1   5   8    9.01    0.17   0
   1  -5  -8    8.54    0.17   0
   0   5   8    0.68    0.14   0
   0  -5  -8    0.43    0.19   0
   0  -5  -8    0.54    0.18   0
   0   5   8    0.74    0.14   0
   0  -5  -8    0.25    0.14   0
   1   5   8    6.06    0.16   0
  -1  -5  -8    5.94    0.22   0
   1   5   8    6.74    0.16   0
  -1  -5  -8    6.47    0.24   0
  -1  -5  -8    5.76    0.16   0
  -2  -5  -8    3.03    0.26   0
   2   5   8    3.29    0.19   0
  -2  -5  -8    3.18    0.18   0
   2   5   8    3.19    0.15   0
  -2  -5  -8    3.51    0.26   0
   3   5   8    2.85    0.19   0
  -3  -5  -8    2.89    0.20   0
   3   5   8    3.24    0.15   0
  -4  -5  -8    0.43    0.26   0
  -4  -5  -8    0.43    0.25   0
   4   5   8    0.40    0.15   0
   5   5   8    1.35    0.16   0
   8  -6  -8    0.63    0.14   0
  -8   6   8    0.47    0.14   0
  -8   6   8    0.23    0.14   0
   8  -6  -8    0.54    0.12   0
   7  -6  -8    0.24    0.15   0
  -7   6   8    0.20    0.14   0
  -7   6   8    0.41    0.36   0
  -7   6   8    0.42    0.14   0
   7  -6  -8    0.64    0.15   0
   6  -6  -8    0.75    0.14   0
  -6   6   8    0.66    0.11   0
  -6   6   8    0.59    0.11   0
  -6   6   8    0.67    0.20   0
   6  -6  -8    0.49    0.12   0
  -5   6   8    1.07    0.11   0
  -5   6   8    0.78    0.12   0
  -5   6   8    1.19    0.19   0
   5  -6  -8    1.37    0.14   0
   5  -6  -8    1.19    0.14   0
  -4   6   8    0.84    0.14   0
  -4   6   8    0.62    0.13   0
  -4   6   8    0.67    0.16   0
   4  -6  -8    0.49    0.15   0
   4  -6  -8    1.13    0.15   0
  -3   6   8   -0.05    0.13   0
  -3   6   8    0.03    0.14   0
  -3   6   8    0.05    0.16   0
   3  -6  -8    0.18    0.14   0
   3  -6  -8    0.05    0.14   0
  -2   6   8    5.61    0.15   0
   2  -6  -8    5.01    0.16   0
  -2   6   8    5.44    0.17   0
   2  -6  -8    5.56    0.17   0
   2  -6  -8    4.98    0.16   0
   1  -6  -8   13.78    0.18   0
  -1   6   8   15.02    0.19   0
   1  -6  -8   14.53    0.22   0
  -1   6   8   15.14    0.19   0
   1  -6  -8   15.76    0.24   0
   0  -6  -8    2.04    0.15   0
   0   6   8    2.16    0.14   0
   0  -6  -8    2.08    0.20   0
   0   6   8    2.00    0.15   0
   0  -6  -8    2.31    0.20   0
  -1  -6  -8    5.58    0.16   0
  -1  -6  -8    5.15    0.25   0
   1   6   8    5.67    0.16   0
   1   6   8    6.19    0.16   0
  -1  -6  -8    6.03    0.25   0
   2   6   8    7.95    0.20   0
  -2  -6  -8    7.42    0.20   0
   2   6   8    8.51    0.16   0
   3   6   8    0.79    0.19   0
  -3  -6  -8    0.98    0.20   0
   3   6   8    0.86    0.15   0
  -4  -6  -8    0.10    0.28   0
  -4  -6  -8    0.06    0.29   0
   4   6   8   -0.14    0.16   0
   8  -7  -8   -0.09    0.15   0
  -8   7   8   -0.06    0.15   0
  -8   7   8    0.19    0.12   0
   8  -7  -8    0.28    0.16   0
   7  -7  -8    0.58    0.14   0
  -7   7   8    0.62    0.14   0
  -7   7   8    0.51    0.14   0
  -7   7   8    0.26    0.24   0
   7  -7  -8    0.27    0.15   0
   6  -7  -8    0.64    0.14   0
  -6   7   8    0.43    0.11   0
  -6   7   8    0.40    0.14   0
  -6   7   8    0.48    0.19   0
   6  -7  -8    0.43    0.15   0
   5  -7  -8    4.25    0.16   0
  -5   7   8    4.04    0.12   0
  -5   7   8    3.89    0.15   0
  -5   7   8    4.06    0.18   0
   5  -7  -8    4.43    0.17   0
   4  -7  -8    3.39    0.16   0
  -4   7   8    3.48    0.12   0
  -4   7   8    3.41    0.15   0
   4  -7  -8    3.75    0.16   0
  -4   7   8    3.17    0.17   0
   3  -7  -8    0.12    0.11   0
  -3   7   8    0.05    0.14   0
  -3   7   8    0.06    0.14   0
  -3   7   8    0.04    0.14   0
   3  -7  -8    0.30    0.15   0
   2  -7  -8    0.53    0.13   0
  -2   7   8    0.50    0.13   0
  -2   7   8    0.35    0.14   0
   2  -7  -8    0.39    0.15   0
   1  -7  -8    1.81    0.15   0
  -1   7   8    1.65    0.14   0
   1  -7  -8    1.68    0.17   0
  -1   7   8    1.70    0.15   0
   1  -7  -8    1.54    0.20   0
   0  -7  -8    4.37    0.18   0
   0  -7  -8    4.66    0.23   0
   0   7   8    4.66    0.17   0
   0   7   8    5.03    0.16   0
   0  -7  -8    4.62    0.21   0
  -1  -7  -8    3.28    0.29   0
  -1  -7  -8    2.76    0.29   0
  -1  -7  -8    2.89    0.15   0
   1   7   8    3.38    0.17   0
   1   7   8    3.41    0.15   0
   2   7   8    1.12    0.17   0
  -2  -7  -8    1.11    0.19   0
   2   7   8    1.23    0.14   0
   3   7   8    0.15    0.21   0
  -3  -7  -8    0.03    0.21   0
   3   7   8    0.20    0.15   0
   7  -8  -8    0.94    0.16   0
  -7   8   8    0.74    0.12   0
  -7   8   8    0.74    0.15   0
  -7   8   8    0.79    0.24   0
   7  -8  -8    0.86    0.16   0
   6  -8  -8    1.13    0.15   0
  -6   8   8    1.22    0.14   0
  -6   8   8    1.68    0.15   0
  -6   8   8    1.18    0.18   0
   6  -8  -8    1.33    0.16   0
   5  -8  -8    0.14    0.12   0
  -5   8   8    0.13    0.14   0
  -5   8   8    0.25    0.14   0
  -5   8   8    0.43    0.16   0
   5  -8  -8    0.18    0.15   0
   4  -8  -8   -0.07    0.14   0
  -4   8   8    0.03    0.14   0
  -4   8   8    0.10    0.13   0
  -4   8   8    0.16    0.13   0
   4  -8  -8    0.29    0.15   0
   3  -8  -8    1.05    0.14   0
  -3   8   8    1.09    0.14   0
  -3   8   8    1.05    0.14   0
  -3   8   8    1.36    0.15   0
   3  -8  -8    1.04    0.15   0
   2  -8  -8    1.32    0.14   0
  -2   8   8    1.29    0.14   0
   2  -8  -8    1.23    0.17   0
  -2   8   8    1.28    0.15   0
   2  -8  -8    1.02    0.17   0
   1  -8  -8    1.70    0.15   0
  -1   8   8    1.92    0.17   0
   1  -8  -8    1.90    0.20   0
  -1   8   8    2.05    0.15   0
   1  -8  -8    1.84    0.20   0
   0  -8  -8    0.38    0.21   0
   0  -8  -8    0.43    0.13   0
   0  -8  -8    0.24    0.20   0
   0   8   8    0.43    0.14   0
   0   8   8    0.19    0.15   0
   1   8   8    0.36    0.16   0
  -1  -8  -8    0.23    0.17   0
   1   8   8    0.16    0.15   0
   2   8   8    0.16    0.17   0
  -2  -8  -8    0.06    0.19   0
   2   8   8    0.14    0.14   0
   6  -9  -8    0.03    0.12   0
  -6   9   8    0.24    0.14   0
  -6   9   8    0.25    0.15   0
  -6   9   8    0.24    0.18   0
   6  -9  -8    0.11    0.16   0
   5  -9  -8    0.48    0.16   0
  -5   9   8    0.10    0.12   0
  -5   9   8    0.23    0.14   0
  -5   9   8    0.38    0.18   0
   5  -9  -8    0.24    0.16   0
   4  -9  -8    0.19    0.15   0
  -4   9   8    0.49    0.12   0
  -4   9   8    0.59    0.14   0
  -4   9   8    0.35    0.17   0
   4  -9  -8    0.57    0.15   0
   3  -9  -8    1.49    0.15   0
  -3   9   8    1.75    0.15   0
  -3   9   8    1.54    0.18   0
  -3   9   8    1.58    0.15   0
   3  -9  -8    1.33    0.16   0
   2  -9  -8   -0.12    0.18   0
   2  -9  -8    0.19    0.14   0
  -2   9   8    0.08    0.12   0
   2  -9  -8    0.14    0.17   0
  -2   9   8    0.15    0.14   0
   1  -9  -8    0.25    0.20   0
   1  -9  -8    0.15    0.14   0
   1  -9  -8    0.27    0.19   0
  -1   9   8    0.34    0.14   0
  -1   9   8    0.22    0.14   0
   0  -9  -8    0.21    0.27   0
   0  -9  -8    0.24    0.26   0
   0   9   8    0.13    0.17   0
   0  -9  -8    0.15    0.17   0
   0   9   8    0.46    0.12   0
   1   9   8    0.16    0.17   0
   1   9   8    0.34    0.13   0
   4 -10  -8    0.41    0.16   0
   4 -10  -8    0.39    0.13   0
  -4  10   8    0.48    0.15   0
  -4  10   8    0.58    0.15   0
  -4  10   8    0.57    0.16   0
   3 -10  -8    0.19    0.18   0
   3 -10  -8    0.39    0.12   0
  -3  10   8    0.33    0.15   0
  -3  10   8    0.34    0.15   0
   2 -10  -8    0.22    0.20   0
   2 -10  -8    0.24    0.15   0
  -2  10   8    0.17    0.15   0
   2 -10  -8    0.25    0.20   0
  -2  10   8    0.10    0.15   0
  -1 -12   9    0.25    0.14   0
   1  12  -9    0.40    0.18   0
  -1 -12   9    0.38    0.15   0
   1  12  -9    0.19    0.12   0
   1  12  -9    0.19    0.15   0
   0  12  -9    0.30    0.15   0
   0 -12   9    0.21    0.14   0
   0 -12   9    0.08    0.16   0
   0  12  -9    0.07    0.14   0
   0  12  -9    0.08    0.15   0
  -1  12  -9    0.36    0.16   0
   1 -12   9    0.05    0.15   0
  -1  12  -9    0.19    0.12   0
  -1  12  -9    0.13    0.14   0
   1 -12   9    0.33    0.12   0
  -2  12  -9    1.00    0.15   0
   2 -12   9    1.13    0.12   0
   2 -12   9    0.96    0.15   0
  -2  12  -9    0.97    0.14   0
  -2  12  -9    0.85    0.15   0
   3 -12   9    3.45    0.15   0
  -3  12  -9    2.85    0.16   0
   3 -12   9    2.87    0.16   0
  -3  12  -9    3.22    0.15   0
  -3  12  -9    2.76    0.13   0
   3  11  -9    0.27    0.14   0
   3  11  -9    0.26    0.18   0
   3  11  -9    0.37    0.15   0
   2  11  -9    0.27    0.17   0
  -2 -11   9    0.25    0.15   0
   2  11  -9    0.15    0.14   0
   1  11  -9    7.14    0.18   0
  -1 -11   9    8.57    0.18   0
   1  11  -9    8.10    0.17   0
   1  11  -9    8.09    0.17   0
  -1 -11   9    9.19    0.16   0
   0  11  -9    0.90    0.15   0
   0 -11   9    0.98    0.14   0
   0 -11   9    1.17    0.15   0
   0  11  -9    0.88    0.14   0
   0  11  -9    1.38    0.14   0
  -1  11  -9    0.28    0.15   0
   1 -11   9   -0.00    0.15   0
  -1  11  -9   -0.03    0.11   0
   1 -11   9   -0.10    0.11   0
  -1  11  -9    0.05    0.13   0
  -2  11  -9    0.32    0.15   0
   2 -11   9    0.13    0.14   0
   2 -11   9    0.14    0.13   0
  -2  11  -9    0.07    0.13   0
  -2  11  -9    0.04    0.11   0
   3 -11   9    0.14    0.11   0
  -3  11  -9    0.23    0.14   0
   3 -11   9   -0.14    0.15   0
  -3  11  -9    0.23    0.11   0
  -3  11  -9   -0.05    0.14   0
   4 -11   9    2.26    0.15   0
  -4  11  -9    2.29    0.16   0
   4 -11   9    2.28    0.16   0
  -4  11  -9    2.73    0.15   0
  -4  11  -9    2.26    0.15   0
   4  10  -9    0.35    0.15   0
   4  10  -9    0.12    0.17   0
   4  10  -9    0.24    0.17   0
   4  10  -9    0.28    0.14   0
   3  10  -9    1.11    0.14   0
   3  10  -9    1.09    0.15   0
   3  10  -9    1.43    0.14   0
   2  10  -9    2.17    0.18   0
  -2 -10   9    2.45    0.16   0
   2  10  -9    2.26    0.12   0
   2  10  -9    1.96    0.12   0
   1  10  -9    2.16    0.16   0
  -1 -10   9    2.35    0.16   0
   1  10  -9    2.18    0.14   0
   1  10  -9    2.26    0.15   0
  -1 -10   9    2.42    0.15   0
   0  10  -9    0.33    0.14   0
   0 -10   9    0.32    0.14   0
   0  10  -9    0.62    0.11   0
   0 -10   9    0.87    0.13   0
   0  10  -9    0.76    0.13   0
  -1  10  -9    0.22    0.14   0
   1 -10   9    0.34    0.14   0
   1 -10   9    0.12    0.13   0
  -1  10  -9    0.05    0.12   0
  -1  10  -9   -0.05    0.13   0
  -2  10  -9    0.20    0.12   0
   2 -10   9    0.35    0.14   0
   2 -10   9    0.10    0.11   0
  -2  10  -9    0.31    0.13   0
  -2  10  -9    0.23    0.13   0
  -3  10  -9    1.84    0.15   0
   3 -10   9    1.43    0.14   0
   3 -10   9    1.65    0.15   0
  -3  10  -9    1.21    0.14   0
  -3  10  -9    1.43    0.12   0
  -4  10  -9    6.42    0.16   0
   4 -10   9    7.77    0.16   0
   4 -10   9    6.39    0.16   0
  -4  10  -9    6.76    0.16   0
  -4  10  -9    6.82    0.17   0
   5 -10   9    2.47    0.15   0
   5 -10   9    2.14    0.13   0
  -5  10  -9    1.94    0.15   0
  -5  10  -9    1.86    0.15   0
  -5  10  -9    2.11    0.13   0
   5   9  -9    0.15    0.16   0
   5   9  -9    0.05    0.17   0
   5   9  -9    0.19    0.17   0
   5   9  -9   -0.00    0.17   0
   4   9  -9    2.60    0.15   0
   4   9  -9    2.63    0.14   0
   4   9  -9    2.47    0.17   0
   4   9  -9    2.45    0.17   0
   3   9  -9    1.77    0.14   0
   3   9  -9    1.85    0.14   0
   3   9  -9    1.71    0.17   0
   2   9  -9    0.10    0.11   0
   2   9  -9    0.16    0.13   0
   2   9  -9    0.20    0.14   0
  -2  -9   9    0.40    0.14   0
   2   9  -9    0.23    0.13   0
   1   9  -9    1.01    0.13   0
   1   9  -9    0.87    0.14   0
  -1  -9   9    0.80    0.14   0
   1   9  -9    0.81    0.13   0
   0   9  -9    1.26    0.14   0
   0  -9   9    1.32    0.13   0
   0  -9   9    1.59    0.14   0
   0   9  -9    1.48    0.11   0
   0   9  -9    1.33    0.13   0
  -1   9  -9    9.17    0.17   0
   1  -9   9    8.62    0.17   0
  -1   9  -9    8.76    0.13   0
  -1   9  -9    8.83    0.13   0
   1  -9   9    9.96    0.13   0
  -2   9  -9    2.58    0.15   0
   2  -9   9    2.99    0.15   0
  -2   9  -9    2.66    0.14   0
  -2   9  -9    2.77    0.14   0
   2  -9   9    3.31    0.14   0
  -3   9  -9    0.65    0.14   0
   3  -9   9    0.81    0.14   0
   3  -9   9    1.24    0.13   0
  -3   9  -9    0.76    0.14   0
  -3   9  -9    0.86    0.11   0
  -4   9  -9    0.03    0.14   0
   4  -9   9    0.19    0.14   0
   4  -9   9    0.23    0.13   0
  -4   9  -9    0.09    0.13   0
  -4   9  -9   -0.05    0.14   0
  -5   9  -9   -0.12    0.14   0
   5  -9   9    0.15    0.14   0
  -5   9  -9    0.11    0.14   0
   5  -9   9   -0.09    0.14   0
  -5   9  -9    0.12    0.14   0
  -6   9  -9    0.43    0.15   0
   6  -9   9   -0.21    0.15   0
  -6   9  -9    0.39    0.15   0
   6  -9   9    0.02    0.15   0
  -6   9  -9    0.23    0.15   0
   6   8  -9    1.77    0.16   0
   6   8  -9    1.71    0.15   0
   6   8  -9    1.63    0.19   0
   6   8  -9    1.62    0.18   0
   5   8  -9    0.09    0.16   0
   5   8  -9    0.01    0.14   0
   5   8  -9    0.04    0.14   0
   5   8  -9   -0.04    0.13   0
   4   8  -9    1.09    0.13   0
   4   8  -9    0.99    0.15   0
   4   8  -9    1.18    0.14   0
   4   8  -9    1.03    0.14   0
   3   8  -9    1.12    0.13   0
   3   8  -9    0.76    0.15   0
   3   8  -9    1.41    0.13   0
   3   8  -9    1.19    0.13   0
   2   8  -9    9.00    0.16   0
   2   8  -9    8.65    0.17   0
   2   8  -9    8.70    0.14   0
  -2  -8   9    9.55    0.17   0
   2   8  -9    9.22    0.16   0
   1   8  -9    6.17    0.14   0
   1   8  -9    6.36    0.15   0
  -1  -8   9    6.95    0.16   0
   1   8  -9    6.75    0.15   0
   0   8  -9    2.11    0.13   0
   0   8  -9    2.14    0.14   0
   0  -8   9    2.21    0.14   0
   0   8  -9    2.36    0.13   0
   0  -8   9    2.67    0.13   0
  -1   8  -9    0.31    0.12   0
  -1   8  -9   -0.07    0.12   0
   1  -8   9    0.34    0.14   0
  -1   8  -9    0.13    0.10   0
   1  -8   9    0.22    0.12   0
  -2   8  -9    0.25    0.14   0
   2  -8   9   -0.06    0.13   0
  -2   8  -9    0.03    0.12   0
  -2   8  -9   -0.13    0.10   0
   2  -8   9    0.08    0.10   0
  -3   8  -9    0.48    0.14   0
   3  -8   9    0.11    0.13   0
  -3   8  -9    0.10    0.10   0
   3  -8   9    0.25    0.11   0
  -3   8  -9   -0.01    0.13   0
  -4   8  -9    4.80    0.13   0
   4  -8   9    5.28    0.15   0
  -4   8  -9    4.92    0.15   0
  -4   8  -9    4.84    0.15   0
   4  -8   9    5.43    0.15   0
   5  -8   9    6.94    0.17   0
  -5   8  -9    7.04    0.16   0
  -5   8  -9    7.15    0.16   0
  -5   8  -9    6.59    0.17   0
   5  -8   9    8.05    0.17   0
  -6   8  -9    2.33    0.13   0
   6  -8   9    2.90    0.16   0
   6  -8   9    2.33    0.16   0
  -6   8  -9    2.59    0.18   0
  -6   8  -9    2.36    0.16   0
   7   7  -9    0.13    0.18   0
   7   7  -9    0.12    0.19   0
   7   7  -9    0.53    0.17   0
   7   7  -9    0.15    0.18   0
   7   7  -9    0.50    0.17   0
   6   7  -9   -0.09    0.16   0
   6   7  -9    0.05    0.14   0
   6   7  -9   -0.19    0.16   0
   6   7  -9    0.02    0.14   0
   5   7  -9    0.91    0.14   0
   5   7  -9    1.07    0.15   0
   5   7  -9    1.54    0.15   0
   5   7  -9    0.73    0.15   0
   5   7  -9    0.99    0.14   0
   4   7  -9    0.56    0.13   0
   4   7  -9    0.57    0.15   0
   4   7  -9    0.53    0.13   0
   4   7  -9    0.78    0.14   0
   4   7  -9    0.54    0.14   0
   3   7  -9    2.75    0.14   0
   3   7  -9    2.50    0.15   0
   3   7  -9    2.65    0.14   0
   3   7  -9    2.74    0.11   0
   2   7  -9   19.14    0.18   0
   2   7  -9   18.25    0.20   0
  -2  -7   9   20.65    0.20   0
   2   7  -9   19.59    0.17   0
   2   7  -9   20.33    0.20   0
   1   7  -9   13.05    0.17   0
   1   7  -9   12.75    0.16   0
  -1  -7   9   14.12    0.18   0
   1   7  -9   13.39    0.17   0
   1   7  -9   14.01    0.16   0
   0   7  -9    0.42    0.14   0
   0   7  -9    0.97    0.12   0
   0  -7   9    0.92    0.13   0
   0   7  -9    0.75    0.13   0
  -1   7  -9    1.31    0.14   0
  -1   7  -9    1.22    0.13   0
   1  -7   9    1.43    0.11   0
   1  -7   9    1.35    0.12   0
  -1   7  -9    1.04    0.12   0
  -2   7  -9    0.88    0.13   0
   2  -7   9    0.91    0.13   0
  -2   7  -9    0.69    0.14   0
   2  -7   9    0.77    0.11   0
  -2   7  -9    0.94    0.12   0
  -3   7  -9    5.16    0.13   0
   3  -7   9    5.63    0.13   0
   3  -7   9    6.40    0.15   0
  -3   7  -9    5.45    0.13   0
  -3   7  -9    5.69    0.15   0
  -4   7  -9    0.66    0.12   0
   4  -7   9    0.90    0.11   0
   4  -7   9    0.65    0.13   0
  -4   7  -9    0.77    0.14   0
  -4   7  -9    0.91    0.13   0
   5  -7   9    0.21    0.14   0
  -5   7  -9    0.06    0.12   0
   5  -7   9    0.33    0.12   0
  -5   7  -9    0.33    0.13   0
  -5   7  -9    0.16    0.13   0
   6  -7   9    1.04    0.15   0
   6  -7   9    1.02    0.17   0
  -6   7  -9    0.99    0.14   0
  -6   7  -9    0.92    0.15   0
  -6   7  -9    0.66    0.15   0
  -7   7  -9   -0.05    0.15   0
   7  -7   9    0.34    0.16   0
  -7   7  -9    0.16    0.15   0
   7   6  -9    0.02    0.17   0
   7   6  -9    0.09    0.17   0
   7   6  -9    0.11    0.17   0
   7   6  -9    0.21    0.16   0
   7   6  -9    0.14    0.15   0
   6   6  -9    1.63    0.15   0
   6   6  -9    1.55    0.16   0
   6   6  -9    1.67    0.15   0
   6   6  -9    1.53    0.15   0
   6   6  -9    1.49    0.15   0
   5   6  -9   18.89    0.21   0
   5   6  -9   19.30    0.23   0
   5   6  -9   20.46    0.23   0
   5   6  -9   18.67    0.23   0
   5   6  -9   21.20    0.21   0
   4   6  -9    4.06    0.14   0
   4   6  -9    3.97    0.15   0
   4   6  -9    3.68    0.15   0
   4   6  -9    4.24    0.15   0
   4   6  -9    4.30    0.15   0
   3   6  -9    0.15    0.13   0
   3   6  -9    0.33    0.14   0
   3   6  -9   -0.05    0.13   0
   3   6  -9    0.07    0.13   0
   2   6  -9    2.97    0.14   0
   2   6  -9    2.72    0.16   0
  -2  -6   9    3.20    0.15   0
   2   6  -9    2.82    0.14   0
   2   6  -9    2.85    0.14   0
   1   6  -9    0.39    0.12   0
   1   6  -9    0.38    0.12   0
  -1  -6   9    0.30    0.14   0
   1   6  -9    0.52    0.13   0
   1   6  -9    0.40    0.12   0
   0   6  -9    4.87    0.12   0
   0   6  -9    4.71    0.16   0
   0  -6   9    5.04    0.15   0
   0   6  -9    4.67    0.14   0
   0   6  -9    4.97    0.15   0
  -1   6  -9    7.01    0.16   0
   1  -6   9    7.33    0.13   0
  -1   6  -9    6.85    0.15   0
  -1   6  -9    7.36    0.15   0
  -2   6  -9    4.08    0.15   0
  -2   6  -9    4.06    0.15   0
   2  -6   9    4.04    0.13   0
  -2   6  -9    4.57    0.14   0
  -3   6  -9   37.29    0.23   0
  -3   6  -9   37.00    0.23   0
   3  -6   9   36.59    0.21   0
  -3   6  -9   37.24    0.23   0
  -4   6  -9    0.42    0.13   0
  -4   6  -9    1.12    0.15   0
   4  -6   9    0.46    0.12   0
  -4   6  -9    0.39    0.15   0
  -5   6  -9    0.37    0.14   0
   5  -6   9    0.12    0.12   0
  -5   6  -9    0.24    0.15   0
  -5   6  -9    0.36    0.14   0
  -6   6  -9    1.70    0.15   0
   6  -6   9    1.72    0.15   0
  -6   6  -9    1.69    0.17   0
  -6   6  -9    1.89    0.15   0
  -7   6  -9    2.58    0.16   0
  -7   6  -9    2.51    0.18   0
   7  -6   9    2.30    0.16   0
  -7   6  -9    2.65    0.18   0
  -7   6  -9    2.68    0.17   0
   8   5  -9   -0.04    0.18   0
   8   5  -9    0.29    0.16   0
   8   5  -9    0.18    0.21   0
   8   5  -9    0.06    0.15   0
   8   5  -9   -0.01    0.15   0
   7   5  -9    0.87    0.14   0
   7   5  -9    1.06    0.16   0
   7   5  -9    0.98    0.15   0
   7   5  -9    0.82    0.17   0
   7   5  -9    0.91    0.17   0
   6   5  -9    0.10    0.14   0
   6   5  -9    0.32    0.15   0
   6   5  -9    0.19    0.15   0
   6   5  -9    0.07    0.16   0
   6   5  -9   -0.09    0.16   0
   5   5  -9    7.28    0.16   0
   5   5  -9    7.15    0.17   0
   5   5  -9    7.98    0.16   0
   5   5  -9    6.92    0.19   0
   5   5  -9    7.46    0.17   0
   4   5  -9    1.41    0.13   0
   4   5  -9    0.95    0.14   0
   4   5  -9    1.54    0.13   0
   4   5  -9    1.30    0.16   0
   4   5  -9    1.25    0.14   0
   3   5  -9    0.15    0.13   0
   3   5  -9    0.11    0.14   0
   3   5  -9   -0.03    0.13   0
   3   5  -9    0.17    0.12   0
   2   5  -9    4.61    0.14   0
   2   5  -9    4.38    0.12   0
   2   5  -9    4.23    0.16   0
  -2  -5   9    4.25    0.13   0
   2   5  -9    4.40    0.15   0
   1   5  -9    7.21    0.15   0
   1   5  -9    7.34    0.15   0
   1   5  -9    6.93    0.17   0
  -1  -5   9    7.28    0.14   0
   1   5  -9    7.70    0.16   0
   0   5  -9   17.75    0.18   0
   0   5  -9   16.72    0.17   0
   0  -5   9   18.62    0.19   0
   0   5  -9   18.07    0.17   0
   0   5  -9   18.09    0.16   0
  -1   5  -9   46.38    0.24   0
  -1   5  -9   43.81    0.25   0
   1  -5   9   45.83    0.25   0
  -1   5  -9   46.13    0.24   0
  -1   5  -9   45.42    0.25   0
  -2   5  -9   31.61    0.22   0
  -2   5  -9   30.87    0.23   0
   2  -5   9   31.53    0.22   0
  -2   5  -9   30.75    0.22   0
  -2   5  -9   32.40    0.22   0
  -3   5  -9    3.27    0.14   0
  -3   5  -9    3.27    0.16   0
  -3   5  -9    3.32    0.14   0
   3  -5   9    3.57    0.15   0
   3  -5   9    3.37    0.14   0
  -3   5  -9    3.23    0.12   0
  -4   5  -9    4.95    0.15   0
  -4   5  -9    4.52    0.14   0
   4  -5   9    5.06    0.16   0
   4  -5   9    4.71    0.15   0
  -4   5  -9    5.18    0.15   0
  -4   5  -9    4.54    0.15   0
  -5   5  -9    1.09    0.15   0
  -5   5  -9    1.07    0.12   0
   5  -5   9    1.22    0.14   0
   5  -5   9    1.21    0.14   0
  -5   5  -9    1.26    0.15   0
  -5   5  -9    1.13    0.14   0
  -6   5  -9    0.82    0.14   0
  -6   5  -9    1.03    0.13   0
   6  -5   9    0.67    0.15   0
  -6   5  -9    0.88    0.16   0
   6  -5   9    1.07    0.12   0
  -6   5  -9    0.84    0.15   0
  -7   5  -9    1.56    0.16   0
  -7   5  -9    1.49    0.19   0
   7  -5   9    1.73    0.16   0
  -7   5  -9    1.53    0.18   0
   7  -5   9    1.65    0.15   0
  -7   5  -9    1.61    0.17   0
   8   4  -9    0.83    0.16   0
   8   4  -9    0.71    0.15   0
   8   4  -9    0.68    0.22   0
   8   4  -9    0.89    0.17   0
   8   4  -9    0.90    0.15   0
   7   4  -9    2.83    0.16   0
   7   4  -9    2.56    0.16   0
   7   4  -9    2.74    0.20   0
   7   4  -9    2.53    0.15   0
   7   4  -9    2.68    0.15   0
   6   4  -9    2.13    0.15   0
   6   4  -9    2.20    0.17   0
   6   4  -9    1.84    0.15   0
   6   4  -9    1.88    0.17   0
   6   4  -9    1.89    0.17   0
   5   4  -9    0.53    0.14   0
   5   4  -9    0.66    0.14   0
   5   4  -9    0.46    0.13   0
   5   4  -9    0.23    0.14   0
   5   4  -9    0.47    0.15   0
   4   4  -9    1.20    0.14   0
   4   4  -9    1.68    0.14   0
   4   4  -9    1.10    0.15   0
   4   4  -9    1.24    0.14   0
   4   4  -9    1.42    0.15   0
   3   4  -9   10.74    0.15   0
   3   4  -9   10.68    0.15   0
   3   4  -9    9.89    0.18   0
   3   4  -9   10.69    0.19   0
   3   4  -9   10.33    0.16   0
   2   4  -9   18.03    0.18   0
   2   4  -9   17.21    0.17   0
   2   4  -9   18.54    0.16   0
  -2  -4   9   18.90    0.19   0
   2   4  -9   18.22    0.20   0
   1   4  -9    1.49    0.13   0
   1   4  -9    0.60    0.14   0
  -1  -4   9    0.58    0.14   0
   1   4  -9    0.75    0.11   0
   1   4  -9    0.74    0.13   0
   0   4  -9    4.04    0.14   0
   0   4  -9    3.69    0.13   0
   0   4  -9    3.79    0.14   0
   0  -4   9    3.88    0.13   0
   0   4  -9    3.70    0.15   0
  -1   4  -9    1.28    0.14   0
  -1   4  -9    1.32    0.13   0
   1  -4   9    1.77    0.15   0
   1  -4   9    1.42    0.14   0
  -1   4  -9    1.50    0.12   0
  -1   4  -9    1.23    0.14   0
  -2   4  -9    3.46    0.15   0
  -2   4  -9    3.31    0.14   0
   2  -4   9    3.56    0.16   0
   2  -4   9    3.85    0.15   0
  -2   4  -9    3.23    0.15   0
  -2   4  -9    3.53    0.13   0
  -3   4  -9    9.88    0.16   0
  -3   4  -9    9.39    0.15   0
   3  -4   9    9.76    0.17   0
  -3   4  -9    9.70    0.16   0
   3  -4   9    9.90    0.16   0
  -3   4  -9   10.32    0.15   0
  -4   4  -9   15.58    0.18   0
  -4   4  -9   16.33    0.18   0
  -4   4  -9   15.54    0.19   0
   4  -4   9   15.88    0.18   0
   4  -4   9   16.86    0.19   0
  -4   4  -9   16.35    0.19   0
  -5   4  -9    0.02    0.14   0
  -5   4  -9    0.28    0.13   0
   5  -4   9    0.29    0.14   0
  -5   4  -9    0.34    0.15   0
   5  -4   9    0.12    0.14   0
  -5   4  -9    0.20    0.13   0
  -6   4  -9    0.26    0.16   0
   6  -4   9    0.24    0.14   0
  -6   4  -9   -0.11    0.16   0
   6  -4   9    0.11    0.14   0
  -6   4  -9    0.16    0.14   0
  -6   4  -9    0.16    0.14   0
  -7   4  -9    0.73    0.19   0
  -7   4  -9    0.46    0.20   0
   7  -4   9    0.58    0.16   0
   7  -4   9    0.50    0.16   0
  -7   4  -9    0.71    0.15   0
  -7   4  -9    0.37    0.16   0
   9   3  -9    0.09    0.17   0
   9   3  -9   -0.03    0.16   0
   9   3  -9    0.05    0.18   0
   9   3  -9    0.19    0.16   0
   8   3  -9    0.19    0.15   0
   8   3  -9    0.01    0.16   0
   8   3  -9   -0.01    0.31   0
   8   3  -9    0.20    0.16   0
   8   3  -9    0.13    0.15   0
   7   3  -9    0.49    0.14   0
   7   3  -9    0.48    0.15   0
   7   3  -9    0.52    0.14   0
   7   3  -9    0.45    0.21   0
   7   3  -9    0.63    0.14   0
   6   3  -9    8.64    0.17   0
   6   3  -9    8.32    0.17   0
   6   3  -9    8.09    0.17   0
   6   3  -9    7.88    0.24   0
   6   3  -9    8.16    0.16   0
   5   3  -9    0.72    0.14   0
   5   3  -9    0.70    0.14   0
   5   3  -9    0.77    0.14   0
   5   3  -9    0.61    0.14   0
   5   3  -9    0.68    0.17   0
   4   3  -9    0.28    0.14   0
   4   3  -9    0.01    0.15   0
   4   3  -9   -0.01    0.14   0
   4   3  -9    0.06    0.17   0
   4   3  -9    0.29    0.14   0
   3   3  -9   26.79    0.22   0
   3   3  -9   25.09    0.21   0
   3   3  -9   25.96    0.22   0
   3   3  -9   27.99    0.21   0
   3   3  -9   26.09    0.23   0
   2   3  -9    4.60    0.12   0
   2   3  -9    4.16    0.16   0
   2   3  -9    4.76    0.14   0
   2   3  -9    4.68    0.15   0
   1   3  -9    3.32    0.14   0
   1   3  -9    2.97    0.15   0
  -1  -3   9    3.34    0.15   0
  -1  -3   9    3.06    0.14   0
   1   3  -9    3.32    0.14   0
   1   3  -9    3.27    0.14   0
   0   3  -9   38.58    0.23   0
   0   3  -9   38.09    0.24   0
   0  -3   9   40.47    0.24   0
   0  -3   9   38.13    0.22   0
   0   3  -9   39.57    0.24   0
   0   3  -9   39.76    0.23   0
  -1   3  -9   35.67    0.23   0
  -1   3  -9   33.60    0.23   0
   1  -3   9   35.62    0.22   0
  -1   3  -9   35.90    0.23   0
   1  -3   9   35.26    0.21   0
  -1   3  -9   35.90    0.21   0
  -2   3  -9   66.61    0.29   0
  -2   3  -9   62.57    0.29   0
   2  -3   9   67.25    0.30   0
   2  -3   9   67.35    0.29   0
  -2   3  -9   66.10    0.29   0
  -2   3  -9   65.72    0.29   0
  -3   3  -9    5.53    0.15   0
  -3   3  -9    4.98    0.16   0
   3  -3   9    5.64    0.16   0
  -3   3  -9    5.36    0.17   0
   3  -3   9    5.38    0.13   0
  -3   3  -9    5.60    0.15   0
  -4   3  -9    1.26    0.14   0
  -4   3  -9    1.17    0.14   0
  -4   3  -9    1.53    0.15   0
   4  -3   9    1.46    0.14   0
   4  -3   9    1.35    0.14   0
  -4   3  -9    1.32    0.14   0
  -5   3  -9    0.71    0.15   0
  -5   3  -9    0.73    0.15   0
   5  -3   9    0.51    0.17   0
   5  -3   9    0.73    0.14   0
  -5   3  -9    0.83    0.15   0
  -5   3  -9    1.04    0.14   0
  -6   3  -9    0.95    0.15   0
  -6   3  -9    0.88    0.18   0
   6  -3   9    0.99    0.15   0
  -6   3  -9    0.97    0.16   0
   6  -3   9    0.88    0.14   0
  -6   3  -9    0.72    0.14   0
  -7   3  -9    0.88    0.21   0
   7  -3   9    0.67    0.16   0
  -7   3  -9    0.85    0.21   0
   7  -3   9    0.76    0.16   0
  -7   3  -9    1.06    0.16   0
  -7   3  -9    0.75    0.16   0
   9   2  -9    0.04    0.18   0
   9   2  -9    0.08    0.17   0
   9   2  -9   -0.13    0.16   0
   9   2  -9    0.11    0.15   0
   8   2  -9    0.19    0.14   0
   8   2  -9    0.18    0.14   0
   8   2  -9    0.02    0.14   0
   7   2  -9    3.16    0.15   0
   7   2  -9    3.26    0.16   0
   7   2  -9    2.90    0.32   0
   7   2  -9    2.91    0.15   0
  -6  -2   9    0.89    0.13   0
   6   2  -9    0.81    0.12   0
   6   2  -9    1.01    0.14   0
   6   2  -9    0.99    0.20   0
   6   2  -9    0.84    0.14   0
  -5  -2   9   13.39    0.18   0
   5   2  -9   12.82    0.18   0
   5   2  -9   12.95    0.19   0
   5   2  -9   12.75    0.24   0
   5   2  -9   12.50    0.19   0
  -4  -2   9   -0.08    0.14   0
   4   2  -9    0.21    0.11   0
   4   2  -9    0.12    0.11   0
   4   2  -9    0.12    0.14   0
   4   2  -9   -0.02    0.16   0
  -3  -2   9    2.63    0.15   0
   3   2  -9    2.82    0.14   0
   3   2  -9    2.55    0.15   0
   3   2  -9    2.68    0.16   0
   3   2  -9    2.61    0.15   0
   2   2  -9   -0.00    0.12   0
   2   2  -9    0.09    0.14   0
   2   2  -9    0.17    0.14   0
  -2  -2   9    0.05    0.14   0
   2   2  -9    0.15    0.13   0
   1   2  -9    0.08    0.11   0
   1   2  -9    0.05    0.10   0
   1   2  -9    0.22    0.14   0
  -1  -2   9    0.15    0.13   0
  -1  -2   9    0.05    0.14   0
   1   2  -9   -0.12    0.14   0
   0   2  -9   25.36    0.21   0
   0   2  -9   26.63    0.21   0
   0   2  -9   24.46    0.21   0
   0  -2   9   26.97    0.21   0
   0  -2   9   25.56    0.21   0
   0   2  -9   26.68    0.22   0
  -1   2  -9   14.36    0.18   0
  -1   2  -9   14.82    0.20   0
  -1   2  -9   12.72    0.17   0
   1  -2   9   14.58    0.18   0
   1  -2   9   14.26    0.18   0
  -1   2  -9   14.30    0.18   0
  -2   2  -9    4.70    0.17   0
  -2   2  -9    5.11    0.15   0
  -2   2  -9    5.13    0.15   0
   2  -2   9    5.14    0.16   0
   2  -2   9    5.55    0.15   0
  -2   2  -9    5.31    0.15   0
  -3   2  -9    0.24    0.14   0
  -3   2  -9    0.11    0.14   0
   3  -2   9    0.07    0.16   0
   3  -2   9    0.21    0.13   0
  -3   2  -9    0.08    0.15   0
  -3   2  -9    0.20    0.11   0
  -4   2  -9    5.19    0.18   0
  -4   2  -9    5.96    0.18   0
  -4   2  -9    5.53    0.18   0
   4  -2   9    5.75    0.16   0
   4  -2   9    6.10    0.16   0
  -4   2  -9    5.99    0.16   0
  -5   2  -9    1.21    0.14   0
  -5   2  -9    1.37    0.18   0
   5  -2   9    1.10    0.14   0
   5  -2   9    1.34    0.15   0
  -5   2  -9    1.18    0.16   0
  -5   2  -9    1.36    0.14   0
  -6   2  -9    0.70    0.17   0
   6  -2   9    0.45    0.15   0
  -6   2  -9    0.62    0.20   0
  -6   2  -9    0.48    0.20   0
   6  -2   9    0.66    0.15   0
  -6   2  -9    0.73    0.14   0
  -7   2  -9    0.49    0.28   0
   7  -2   9    0.67    0.16   0
  -7   2  -9    0.46    0.30   0
   7  -2   9    0.60    0.16   0
  -7   2  -9    0.54    0.15   0
  -9  -1   9    1.42    0.17   0
   9   1  -9    1.47    0.16   0
   9   1  -9    1.55    0.18   0
   9   1  -9    1.69    0.15   0
  -8  -1   9    0.50    0.14   0
   8   1  -9    0.55    0.14   0
   8   1  -9    0.56    0.17   0
   8   1  -9    0.80    0.12   0
  -7  -1   9    1.09    0.13   0
   7   1  -9    1.38    0.14   0
   7   1  -9    1.14    0.15   0
   7   1  -9    1.28    0.14   0
  -6  -1   9    0.04    0.13   0
   6   1  -9    0.14    0.14   0
   6   1  -9    0.08    0.14   0
   6   1  -9    0.14    0.13   0
   6   1  -9    0.19    0.24   0
  -5  -1   9    8.71    0.17   0
   5   1  -9    8.58    0.17   0
   5   1  -9    9.35    0.18   0
   5   1  -9    8.60    0.17   0
   5   1  -9    8.82    0.23   0
  -4  -1   9    1.35    0.14   0
   4   1  -9    1.33    0.14   0
   4   1  -9    1.18    0.11   0
   4   1  -9    0.98    0.14   0
   4   1  -9    1.11    0.17   0
  -3  -1   9   -0.08    0.13   0
   3   1  -9   -0.04    0.13   0
   3   1  -9   -0.06    0.11   0
  -3  -1   9    0.03    0.13   0
   3   1  -9    0.08    0.11   0
   3   1  -9    0.06    0.14   0
  -2  -1   9   17.65    0.19   0
   2   1  -9   17.71    0.18   0
   2   1  -9   17.29    0.19   0
  -2  -1   9   17.12    0.20   0
   2   1  -9   17.25    0.19   0
   2   1  -9   17.43    0.20   0
  -1  -1   9   26.41    0.20   0
   1   1  -9   26.98    0.21   0
   1   1  -9   25.36    0.22   0
  -1  -1   9   25.71    0.22   0
   1   1  -9   26.73    0.23   0
   0   1  -9    0.36    0.15   0
   0   1  -9    0.70    0.13   0
   0  -1   9    0.71    0.11   0
   0  -1   9    0.65    0.13   0
   0   1  -9    0.71    0.14   0
  -1   1  -9   12.57    0.19   0
  -1   1  -9   14.25    0.18   0
   1  -1   9   14.22    0.19   0
   1  -1   9   14.14    0.18   0
  -1   1  -9   14.24    0.18   0
  -1   1  -9   13.97    0.18   0
  -2   1  -9    3.45    0.15   0
  -2   1  -9    4.05    0.14   0
   2  -1   9    4.20    0.16   0
   2  -1   9    6.36    0.15   0
  -2   1  -9    4.24    0.14   0
  -2   1  -9    4.05    0.14   0
  -3   1  -9    0.03    0.15   0
  -3   1  -9    0.05    0.17   0
  -3   1  -9   -0.11    0.15   0
   3  -1   9    0.14    0.14   0
   3  -1   9   -0.09    0.14   0
  -3   1  -9    0.19    0.13   0
  -4   1  -9    1.92    0.15   0
  -4   1  -9    2.06    0.19   0
   4  -1   9    2.02    0.15   0
  -4   1  -9    2.18    0.16   0
   4  -1   9    2.06    0.15   0
  -4   1  -9    2.03    0.15   0
  -5   1  -9    1.24    0.15   0
   5  -1   9    1.59    0.16   0
  -5   1  -9    1.41    0.18   0
   5  -1   9    1.55    0.15   0
  -5   1  -9    1.42    0.18   0
  -5   1  -9    1.46    0.14   0
  -6   1  -9    0.55    0.18   0
   6  -1   9    0.34    0.17   0
  -6   1  -9    0.28    0.22   0
  -6   1  -9    0.39    0.24   0
   6  -1   9    0.44    0.15   0
   7  -1   9    0.44    0.18   0
   7  -1   9    0.53    0.13   0
  -9   0   9    2.01    0.17   0
   9   0  -9    2.13    0.18   0
   9   0  -9    2.30    0.16   0
  -8   0   9    1.13    0.14   0
   8   0  -9    1.00    0.15   0
   8   0  -9    1.36    0.15   0
  -7   0   9    0.42    0.13   0
   7   0  -9    0.25    0.14   0
   7   0  -9    0.69    0.14   0
  -6   0   9    0.22    0.13   0
   6   0  -9    0.08    0.14   0
   6   0  -9    0.19    0.14   0
  -5   0   9    1.47    0.14   0
   5   0  -9    1.20    0.13   0
   5   0  -9    1.34    0.15   0
   5   0  -9    1.31    0.11   0
   5   0  -9    1.38    0.20   0
  -4   0   9    4.02    0.15   0
   4   0  -9    4.03    0.13   0
   4   0  -9    4.14    0.13   0
   4   0  -9    3.83    0.15   0
   4   0  -9    3.94    0.19   0
  -3   0   9    1.28    0.14   0
   3   0  -9    1.09    0.14   0
   3   0  -9    1.41    0.12   0
   3   0  -9    1.27    0.14   0
  -3   0   9    1.38    0.16   0
   3   0  -9    1.15    0.14   0
  -2   0   9    1.22    0.11   0
   2   0  -9    1.42    0.15   0
   2   0  -9    0.99    0.14   0
  -2   0   9    1.37    0.14   0
   2   0  -9    1.34    0.14   0
   2   0  -9    1.23    0.15   0
  -1   0   9    3.92    0.15   0
   1   0  -9    3.83    0.15   0
   1   0  -9    3.98    0.14   0
  -1   0   9    3.79    0.15   0
   1   0  -9    4.04    0.15   0
   1   0  -9    4.16    0.15   0
   0   0   9    2.13    0.12   0
   0   0  -9    2.13    0.15   0
   0   0  -9    2.08    0.14   0
   0   0   9    2.15    0.14   0
   0   0   9    2.12    0.14   0
   0   0  -9    2.02    0.15   0
  -1   0  -9    0.26    0.15   0
  -1   0  -9    0.31    0.13   0
   1   0   9    0.45    0.14   0
   1   0   9    0.30    0.11   0
  -1   0  -9    0.36    0.14   0
  -2   0  -9   21.19    0.21   0
  -2   0  -9   19.03    0.21   0
  -2   0  -9   21.31    0.23   0
   2   0   9   21.21    0.21   0
   2   0   9   22.45    0.20   0
  -2   0  -9   20.73    0.18   0
  -3   0  -9    0.71    0.17   0
   3   0   9    0.67    0.16   0
  -3   0  -9    0.77    0.15   0
  -3   0  -9    0.68    0.15   0
   3   0   9    1.38    0.14   0
  -3   0  -9    0.49    0.13   0
  -4   0  -9    7.63    0.16   0
  -4   0  -9    6.93    0.18   0
   4   0   9    7.81    0.17   0
  -4   0  -9    7.58    0.21   0
  -4   0  -9    7.17    0.21   0
   4   0   9    7.96    0.17   0
  -5   0  -9    0.42    0.16   0
   5   0   9    0.62    0.16   0
  -5   0  -9    0.37    0.21   0
   5   0   9    0.27    0.14   0
  -5   0  -9    0.35    0.19   0
  -6   0  -9    4.07    0.19   0
   6   0   9    4.06    0.19   0
   6   0   9    4.31    0.16   0
  -9   1   9    0.20    0.14   0
  -9   1   9    0.10    0.15   0
   9  -1  -9    0.28    0.15   0
   9  -1  -9    0.34    0.13   0
  -8   1   9    1.05    0.14   0
  -8   1   9    0.88    0.15   0
   8  -1  -9    1.27    0.15   0
   8  -1  -9    1.00    0.15   0
  -7   1   9    1.16    0.14   0
   7  -1  -9    1.32    0.14   0
  -7   1   9    1.25    0.12   0
   7  -1  -9    1.11    0.12   0
  -6   1   9    4.93    0.14   0
   6  -1  -9    5.20    0.16   0
   6  -1  -9    5.74    0.16   0
  -5   1   9    0.82    0.13   0
   5  -1  -9    0.90    0.14   0
   5  -1  -9    0.48    0.13   0
  -4   1   9    2.32    0.14   0
   4  -1  -9    1.97    0.14   0
   4  -1  -9    2.06    0.15   0
  -4   1   9    1.83    0.17   0
   4  -1  -9    1.78    0.15   0
  -3   1   9    0.02    0.13   0
   3  -1  -9    0.05    0.14   0
   3  -1  -9    0.11    0.14   0
  -3   1   9    0.03    0.16   0
   3  -1  -9    0.04    0.14   0
   3  -1  -9    0.08    0.16   0
  -2   1   9    0.64    0.13   0
   2  -1  -9    0.54    0.15   0
   2  -1  -9    0.51    0.11   0
  -2   1   9    0.62    0.14   0
   2  -1  -9    0.61    0.11   0
   2  -1  -9    0.53    0.15   0
  -1   1   9    5.42    0.15   0
   1  -1  -9    5.73    0.17   0
   1  -1  -9    5.87    0.16   0
  -1   1   9    5.66    0.16   0
   1  -1  -9    5.63    0.16   0
   1  -1  -9    6.23    0.17   0
   0   1   9   14.28    0.18   0
   0  -1  -9   13.17    0.19   0
   0  -1  -9   15.47    0.21   0
   0   1   9   14.67    0.18   0
   0  -1  -9   14.75    0.19   0
   0  -1  -9   15.14    0.19   0
   1   1   9    0.92    0.13   0
  -1  -1  -9    1.04    0.17   0
  -1  -1  -9    0.89    0.14   0
   1   1   9    1.02    0.14   0
  -1  -1  -9    1.00    0.13   0
  -2  -1  -9    1.52    0.15   0
   2   1   9    1.64    0.14   0
  -2  -1  -9    1.58    0.16   0
   2   1   9    1.73    0.14   0
  -2  -1  -9    1.57    0.11   0
  -3  -1  -9    0.40    0.15   0
  -3  -1  -9    0.38    0.16   0
   3   1   9    0.41    0.15   0
  -3  -1  -9    0.47    0.16   0
   3   1   9    0.54    0.14   0
  -4  -1  -9    0.48    0.16   0
   4   1   9    0.42    0.16   0
  -4  -1  -9    0.45    0.18   0
   4   1   9    0.62    0.12   0
  -4  -1  -9    0.24    0.17   0
  -5  -1  -9    1.25    0.18   0
   5   1   9    1.67    0.18   0
   5   1   9    1.56    0.13   0
  -5  -1  -9    1.38    0.27   0
  -5  -1  -9    1.45    0.25   0
   6   1   9    1.39    0.21   0
   6   1   9    1.08    0.16   0
  -6  -1  -9    1.13    0.21   0
  -9   2   9    0.06    0.14   0
  -9   2   9    0.14    0.12   0
   9  -2  -9    0.31    0.15   0
   9  -2  -9   -0.09    0.16   0
  -8   2   9    0.55    0.14   0
  -8   2   9    0.36    0.14   0
   8  -2  -9    0.26    0.15   0
   8  -2  -9    0.55    0.15   0
  -7   2   9    4.36    0.15   0
  -7   2   9    4.58    0.15   0
   7  -2  -9    4.47    0.16   0
   7  -2  -9    4.21    0.15   0
  -6   2   9    1.50    0.13   0
   6  -2  -9    1.54    0.15   0
  -6   2   9    1.58    0.14   0
   6  -2  -9    1.22    0.14   0
  -5   2   9    4.21    0.14   0
  -5   2   9    4.08    0.21   0
   5  -2  -9    4.49    0.15   0
  -5   2   9    4.25    0.12   0
   5  -2  -9    4.00    0.15   0
  -4   2   9    5.67    0.15   0
   4  -2  -9    6.09    0.16   0
  -4   2   9    5.31    0.18   0
   4  -2  -9    5.79    0.14   0
  -3   2   9    8.26    0.16   0
   3  -2  -9    8.18    0.17   0
   3  -2  -9    8.18    0.15   0
  -3   2   9    7.74    0.18   0
   3  -2  -9    8.08    0.18   0
  -2   2   9   16.53    0.19   0
   2  -2  -9   15.83    0.20   0
   2  -2  -9   16.60    0.20   0
  -2   2   9   15.51    0.19   0
   2  -2  -9   16.67    0.20   0
  -1   2   9    3.45    0.15   0
  -1   2   9    3.40    0.15   0
   1  -2  -9    3.28    0.15   0
   1  -2  -9    3.39    0.16   0
   1  -2  -9    3.59    0.15   0
   0   2   9    6.54    0.15   0
   0  -2  -9    6.34    0.18   0
   0  -2  -9    6.94    0.18   0
   0   2   9    7.41    0.16   0
   0  -2  -9    6.95    0.16   0
   1   2   9   -0.10    0.13   0
  -1  -2  -9    0.03    0.16   0
  -1  -2  -9    0.11    0.13   0
  -1  -2  -9    0.01    0.16   0
   1   2   9    0.13    0.14   0
   2   2   9    7.42    0.19   0
  -2  -2  -9    6.90    0.19   0
  -2  -2  -9    7.84    0.17   0
  -2  -2  -9    7.50    0.19   0
   2   2   9    7.60    0.14   0
  -3  -2  -9    1.12    0.19   0
  -3  -2  -9    1.18    0.18   0
  -3  -2  -9    1.18    0.17   0
   3   2   9    1.21    0.14   0
  -4  -2  -9   15.98    0.26   0
  -4  -2  -9   17.28    0.28   0
   4   2   9   17.90    0.25   0
   4   2   9   17.78    0.18   0
  -4  -2  -9   16.52    0.29   0
  -5  -2  -9    0.08    0.19   0
   5   2   9    0.09    0.19   0
   5   2   9   -0.04    0.15   0
   6   2   9   -0.01    0.20   0
   6   2   9    0.28    0.13   0
  -6  -2  -9    0.03    0.22   0
  -9   3   9    0.49    0.14   0
  -9   3   9    0.35    0.15   0
   9  -3  -9    0.40    0.16   0
   9  -3  -9    0.57    0.16   0
  -8   3   9    1.84    0.15   0
  -8   3   9    1.83    0.15   0
   8  -3  -9    1.98    0.16   0
   8  -3  -9    1.90    0.15   0
  -7   3   9    1.06    0.13   0
  -7   3   9    0.95    0.11   0
   7  -3  -9    0.92    0.15   0
   7  -3  -9    1.25    0.14   0
  -6   3   9   -0.00    0.11   0
  -6   3   9    0.20    0.13   0
   6  -3  -9   -0.18    0.14   0
   6  -3  -9    0.12    0.14   0
  -5   3   9    0.28    0.11   0
  -5   3   9    0.28    0.18   0
  -5   3   9    0.32    0.13   0
   5  -3  -9    0.09    0.14   0
   5  -3  -9    0.41    0.14   0
  -4   3   9    4.38    0.12   0
  -4   3   9    4.32    0.18   0
   4  -3  -9    4.58    0.15   0
   4  -3  -9    4.67    0.16   0
  -3   3   9   11.44    0.16   0
   3  -3  -9   11.00    0.19   0
   3  -3  -9   11.74    0.19   0
  -3   3   9   11.23    0.21   0
   3  -3  -9   11.73    0.19   0
  -2   3   9   19.94    0.20   0
   2  -3  -9   19.40    0.20   0
   2  -3  -9   20.59    0.21   0
  -2   3   9   20.15    0.20   0
   2  -3  -9   21.15    0.21   0
  -1   3   9    5.31    0.15   0
   1  -3  -9    5.34    0.16   0
   1  -3  -9    5.56    0.16   0
  -1   3   9    5.66    0.16   0
   1  -3  -9    5.85    0.18   0
   0   3   9    1.76    0.13   0
   0  -3  -9    1.72    0.17   0
   0  -3  -9    1.59    0.14   0
   0  -3  -9    1.76    0.17   0
   0   3   9    1.49    0.15   0
   1   3   9    2.31    0.14   0
  -1  -3  -9    1.93    0.18   0
  -1  -3  -9    1.98    0.17   0
  -1  -3  -9    2.18    0.17   0
   1   3   9    2.02    0.12   0
   2   3   9    3.54    0.17   0
  -2  -3  -9    3.46    0.19   0
  -2  -3  -9    3.85    0.21   0
   2   3   9    3.95    0.13   0
  -2  -3  -9    3.85    0.18   0
  -3  -3  -9    0.76    0.21   0
  -3  -3  -9    0.94    0.20   0
   3   3   9    0.82    0.14   0
  -3  -3  -9    0.80    0.18   0
  -4  -3  -9    0.62    0.21   0
  -4  -3  -9    0.58    0.21   0
  -4  -3  -9    0.71    0.21   0
  -4  -3  -9    0.59    0.20   0
   4   3   9    0.75    0.14   0
  -5  -3  -9    0.16    0.23   0
   5   3   9    0.12    0.12   0
  -5  -3  -9    0.14    0.23   0
   9  -4  -9    0.18    0.12   0
  -9   4   9    0.22    0.14   0
  -9   4   9    0.14    0.12   0
   9  -4  -9    0.29    0.12   0
  -8   4   9    0.74    0.14   0
  -8   4   9    1.07    0.14   0
   8  -4  -9    0.86    0.12   0
   8  -4  -9    0.82    0.12   0
  -7   4   9    0.07    0.13   0
  -7   4   9    0.16    0.14   0
   7  -4  -9    0.02    0.14   0
   7  -4  -9    0.06    0.11   0
  -6   4   9    3.32    0.15   0
  -6   4   9    3.17    0.25   0
  -6   4   9    3.19    0.15   0
   6  -4  -9    3.36    0.15   0
   6  -4  -9    3.01    0.13   0
  -5   4   9    3.06    0.14   0
  -5   4   9    3.11    0.20   0
  -5   4   9    3.04    0.12   0
   5  -4  -9    2.90    0.15   0
   5  -4  -9    3.17    0.13   0
  -4   4   9    0.12    0.12   0
  -4   4   9    0.13    0.13   0
  -4   4   9    0.12    0.16   0
   4  -4  -9    0.38    0.13   0
   4  -4  -9    0.15    0.14   0
  -3   4   9    1.94    0.12   0
   3  -4  -9    1.93    0.14   0
   3  -4  -9    2.26    0.15   0
  -3   4   9    2.04    0.15   0
   3  -4  -9    2.43    0.15   0
  -2   4   9    6.35    0.16   0
   2  -4  -9    6.39    0.16   0
   2  -4  -9    6.83    0.17   0
  -2   4   9    6.53    0.16   0
   2  -4  -9    6.87    0.17   0
  -1   4   9    0.57    0.13   0
   1  -4  -9    0.40    0.16   0
   1  -4  -9    0.45    0.14   0
  -1   4   9    0.54    0.14   0
   1  -4  -9    0.41    0.14   0
   0   4   9    9.67    0.19   0
   0  -4  -9    9.09    0.20   0
   0  -4  -9    9.94    0.19   0
   0  -4  -9   10.60    0.21   0
   0   4   9    9.96    0.18   0
   1   4   9    0.88    0.15   0
  -1  -4  -9    0.73    0.17   0
  -1  -4  -9    0.88    0.17   0
   1   4   9    0.94    0.15   0
  -1  -4  -9    0.92    0.15   0
   2   4   9    0.17    0.16   0
  -2  -4  -9    0.12    0.20   0
   2   4   9    0.34    0.14   0
  -2  -4  -9    0.28    0.18   0
  -2  -4  -9    0.05    0.16   0
  -3  -4  -9    0.27    0.18   0
  -3  -4  -9    0.52    0.22   0
   3   4   9    0.46    0.14   0
  -3  -4  -9    0.29    0.22   0
  -4  -4  -9    0.39    0.29   0
  -4  -4  -9    0.41    0.24   0
   4   4   9    0.54    0.14   0
  -4  -4  -9    0.44    0.28   0
  -4  -4  -9    0.49    0.23   0
   5   4   9    0.80    0.16   0
  -9   5   9    0.67    0.15   0
   8  -5  -9    0.56    0.14   0
  -8   5   9    0.36    0.14   0
  -8   5   9    0.43    0.14   0
   8  -5  -9    0.27    0.12   0
  -7   5   9   -0.04    0.14   0
  -7   5   9    0.17    0.11   0
   7  -5  -9    0.10    0.14   0
   7  -5  -9   -0.01    0.14   0
  -6   5   9    1.16    0.11   0
  -6   5   9    0.80    0.22   0
  -6   5   9    1.17    0.15   0
   6  -5  -9    0.71    0.15   0
   6  -5  -9    1.12    0.14   0
  -5   5   9    0.37    0.13   0
  -5   5   9    0.05    0.13   0
  -5   5   9    0.03    0.16   0
   5  -5  -9    0.26    0.14   0
   5  -5  -9    0.11    0.14   0
  -4   5   9    0.46    0.13   0
  -4   5   9    0.72    0.13   0
  -4   5   9    0.61    0.16   0
   4  -5  -9    0.72    0.12   0
   4  -5  -9    0.47    0.14   0
  -3   5   9    0.41    0.11   0
  -3   5   9    0.42    0.14   0
   3  -5  -9    0.71    0.14   0
   3  -5  -9    0.34    0.15   0
  -2   5   9   13.18    0.18   0
   2  -5  -9   13.22    0.19   0
  -2   5   9   13.26    0.19   0
   2  -5  -9   12.65    0.18   0
   2  -5  -9   14.73    0.22   0
  -1   5   9    4.61    0.15   0
   1  -5  -9    4.22    0.16   0
   1  -5  -9    4.54    0.19   0
   1  -5  -9    4.41    0.16   0
  -1   5   9    4.53    0.13   0
   0   5   9    1.62    0.14   0
   0  -5  -9    1.48    0.18   0
   0  -5  -9    1.70    0.21   0
   0   5   9    1.95    0.15   0
   0  -5  -9    1.59    0.14   0
   1   5   9    0.68    0.13   0
  -1  -5  -9    0.62    0.18   0
   1   5   9    0.50    0.14   0
  -1  -5  -9    0.63    0.19   0
  -1  -5  -9    0.75    0.16   0
  -2  -5  -9    4.24    0.18   0
   2   5   9    4.79    0.20   0
  -2  -5  -9    4.23    0.25   0
   2   5   9    5.06    0.13   0
  -2  -5  -9    5.05    0.25   0
  -3  -5  -9    6.15    0.42   0
   3   5   9    5.94    0.23   0
  -3  -5  -9    5.92    0.22   0
   3   5   9    6.45    0.14   0
  -3  -5  -9    6.42    0.41   0
  -4  -5  -9    0.03    0.25   0
  -4  -5  -9    0.12    0.26   0
   4   5   9   -0.04    0.15   0
   8  -6  -9    0.63    0.15   0
  -8   6   9    0.59    0.14   0
  -8   6   9    0.64    0.15   0
   8  -6  -9    0.38    0.12   0
   7  -6  -9    0.44    0.15   0
  -7   6   9    0.25    0.11   0
  -7   6   9    0.23    0.28   0
  -7   6   9    0.24    0.14   0
   7  -6  -9    0.11    0.13   0
  -6   6   9    2.79    0.14   0
  -6   6   9    3.05    0.15   0
  -6   6   9    2.99    0.21   0
   6  -6  -9    3.14    0.14   0
   6  -6  -9    3.18    0.15   0
  -5   6   9    7.97    0.14   0
  -5   6   9    8.03    0.17   0
  -5   6   9    8.18    0.21   0
   5  -6  -9    8.70    0.18   0
   5  -6  -9    8.40    0.17   0
  -4   6   9    4.66    0.16   0
  -4   6   9    4.86    0.13   0
  -4   6   9    5.03    0.18   0
   4  -6  -9    4.66    0.17   0
   4  -6  -9    5.07    0.16   0
  -3   6   9    1.36    0.15   0
  -3   6   9    1.22    0.15   0
   3  -6  -9    1.27    0.18   0
   3  -6  -9    0.94    0.12   0
  -2   6   9    0.27    0.13   0
   2  -6  -9    0.05    0.14   0
  -2   6   9   -0.06    0.14   0
   2  -6  -9    0.26    0.15   0
   2  -6  -9    0.01    0.13   0
  -1   6   9    4.74    0.15   0
   1  -6  -9    4.67    0.19   0
  -1   6   9    4.87    0.16   0
   1  -6  -9    5.19    0.20   0
   1  -6  -9    4.58    0.16   0
   0  -6  -9    0.16    0.15   0
   0   6   9   -0.01    0.15   0
   0  -6  -9    0.15    0.16   0
   0   6   9    0.05    0.11   0
   0  -6  -9    0.09    0.18   0
  -1  -6  -9    1.08    0.17   0
   1   6   9    1.15    0.14   0
  -1  -6  -9    1.09    0.22   0
   1   6   9    1.29    0.16   0
  -1  -6  -9    1.12    0.23   0
  -2  -6  -9    3.34    0.36   0
   2   6   9    3.39    0.19   0
  -2  -6  -9    3.38    0.18   0
   2   6   9    3.61    0.13   0
  -2  -6  -9    3.48    0.36   0
   3   6   9    0.86    0.19   0
  -3  -6  -9    0.81    0.21   0
   3   6   9    1.13    0.15   0
   7  -7  -9    1.60    0.16   0
  -7   7   9    1.28    0.13   0
  -7   7   9    1.45    0.26   0
  -7   7   9    1.66    0.16   0
   7  -7  -9    1.23    0.16   0
   6  -7  -9    1.21    0.12   0
  -6   7   9    1.41    0.14   0
  -6   7   9    1.32    0.15   0
  -6   7   9    1.27    0.20   0
   6  -7  -9    1.06    0.16   0
   5  -7  -9    2.25    0.13   0
  -5   7   9    2.71    0.12   0
  -5   7   9    2.46    0.15   0
  -5   7   9    2.26    0.18   0
   5  -7  -9    2.71    0.16   0
   4  -7  -9    3.16    0.16   0
  -4   7   9    3.13    0.15   0
  -4   7   9    3.08    0.13   0
  -4   7   9    2.86    0.15   0
   4  -7  -9    3.32    0.17   0
   3  -7  -9    0.59    0.14   0
  -3   7   9    0.70    0.14   0
  -3   7   9    0.68    0.15   0
   3  -7  -9    0.68    0.14   0
   2  -7  -9   -0.11    0.13   0
  -2   7   9    0.04    0.13   0
   2  -7  -9    0.15    0.16   0
  -2   7   9    0.19    0.14   0
   2  -7  -9   -0.09    0.17   0
   1  -7  -9    3.16    0.15   0
  -1   7   9    3.30    0.15   0
   1  -7  -9    3.02    0.18   0
  -1   7   9    3.24    0.15   0
   1  -7  -9    3.36    0.21   0
   0  -7  -9    0.49    0.14   0
   0   7   9    0.64    0.16   0
   0  -7  -9    0.60    0.21   0
   0   7   9    0.42    0.15   0
   0  -7  -9    0.55    0.19   0
  -1  -7  -9    1.02    0.27   0
  -1  -7  -9    1.27    0.17   0
   1   7   9    1.14    0.15   0
   1   7   9    1.11    0.15   0
  -1  -7  -9    1.06    0.27   0
   2   7   9    0.31    0.17   0
  -2  -7  -9    0.35    0.18   0
   2   7   9    0.37    0.15   0
   7  -8  -9   -0.04    0.15   0
  -7   8   9    0.57    0.14   0
  -7   8   9    0.64    0.15   0
  -7   8   9    0.29    0.22   0
   7  -8  -9    0.45    0.17   0
   6  -8  -9    0.36    0.15   0
  -6   8   9    0.28    0.14   0
  -6   8   9    0.32    0.15   0
  -6   8   9    0.50    0.18   0
   6  -8  -9    0.19    0.16   0
   5  -8  -9    0.06    0.15   0
  -5   8   9    0.01    0.14   0
  -5   8   9   -0.07    0.17   0
  -5   8   9    0.05    0.15   0
   5  -8  -9    0.09    0.16   0
   4  -8  -9    0.26    0.15   0
  -4   8   9    0.19    0.14   0
  -4   8   9    0.29    0.17   0
  -4   8   9    0.35    0.17   0
   4  -8  -9    0.01    0.16   0
   3  -8  -9    0.96    0.14   0
  -3   8   9    1.02    0.14   0
  -3   8   9    0.97    0.15   0
   3  -8  -9    1.06    0.17   0
   2  -8  -9    0.07    0.14   0
  -2   8   9    0.14    0.14   0
   2  -8  -9    0.17    0.17   0
  -2   8   9    0.15    0.14   0
   2  -8  -9    0.06    0.18   0
   1  -8  -9    0.51    0.15   0
  -1   8   9    0.76    0.17   0
   1  -8  -9    0.71    0.17   0
  -1   8   9    0.75    0.15   0
   1  -8  -9    0.55    0.19   0
   0  -8  -9    0.85    0.22   0
   0  -8  -9    0.88    0.17   0
   0  -8  -9    0.91    0.22   0
   0   8   9    0.76    0.14   0
   0   8   9    1.08    0.15   0
   1   8   9    0.42    0.17   0
  -1  -8  -9    0.04    0.17   0
   1   8   9   -0.03    0.15   0
   5  -9  -9    0.27    0.13   0
  -5   9   9    0.16    0.12   0
  -5   9   9    0.11    0.15   0
  -5   9   9    0.15    0.17   0
   5  -9  -9    0.12    0.16   0
   4  -9  -9    0.75    0.15   0
  -4   9   9    0.82    0.12   0
  -4   9   9    0.75    0.15   0
  -4   9   9    0.92    0.18   0
   4  -9  -9    0.97    0.16   0
   3  -9  -9    0.05    0.12   0
  -3   9   9    0.05    0.12   0
   3  -9  -9    0.13    0.17   0
  -3   9   9    0.01    0.16   0
   3  -9  -9    0.01    0.16   0
   2  -9  -9    0.73    0.18   0
   2  -9  -9    0.64    0.15   0
  -2   9   9    0.56    0.15   0
   2  -9  -9    0.71    0.20   0
  -2   9   9    0.70    0.16   0
   1  -9  -9    0.03    0.22   0
   1  -9  -9    0.19    0.17   0
  -1   9   9    0.12    0.15   0
   1  -9  -9    0.16    0.22   0
  -1   9   9    0.24    0.15   0
   0  12 -10    1.40    0.16   0
   0 -12  10    1.57    0.16   0
   0  12 -10    1.35    0.15   0
   0  12 -10    1.40    0.12   0
   0 -12  10    1.57    0.15   0
  -1  12 -10    0.46    0.16   0
   1 -12  10    0.29    0.16   0
  -1  12 -10    0.56    0.12   0
  -1  12 -10    0.42    0.14   0
   1 -12  10    0.64    0.15   0
   3  11 -10   -0.06    0.14   0
   3  11 -10    0.26    0.16   0
   3  11 -10    0.06    0.15   0
   3  11 -10    0.11    0.14   0
   2  11 -10    1.20    0.14   0
   2  11 -10    1.30    0.16   0
  -2 -11  10    1.54    0.16   0
   2  11 -10    1.52    0.15   0
   2  11 -10    1.65    0.15   0
   1  11 -10    7.36    0.18   0
  -1 -11  10    8.41    0.19   0
   1  11 -10    7.51    0.15   0
   1  11 -10    7.56    0.17   0
   0 -11  10    7.16    0.16   0
   0  11 -10    5.71    0.17   0
   0 -11  10    6.35    0.18   0
   0  11 -10    5.79    0.14   0
   0  11 -10    5.80    0.16   0
  -1  11 -10    1.69    0.16   0
   1 -11  10    1.77    0.15   0
  -1  11 -10    1.62    0.14   0
   1 -11  10    2.15    0.14   0
  -1  11 -10    1.61    0.14   0
  -2  11 -10    0.80    0.15   0
   2 -11  10    0.53    0.12   0
  -2  11 -10    0.68    0.14   0
  -2  11 -10    0.46    0.11   0
   2 -11  10    0.81    0.12   0
  -3  11 -10    0.40    0.15   0
   3 -11  10    0.32    0.15   0
  -3  11 -10    0.07    0.11   0
  -3  11 -10    0.23    0.14   0
   3 -11  10    0.16    0.11   0
   4  10 -10    0.13    0.14   0
   4  10 -10    0.05    0.18   0
   4  10 -10    0.12    0.14   0
   4  10 -10    0.34    0.17   0
   4  10 -10    0.33    0.15   0
   3  10 -10    1.62    0.14   0
   3  10 -10    1.80    0.15   0
   3  10 -10    1.73    0.14   0
   3  10 -10    1.71    0.15   0
   2  10 -10    1.19    0.14   0
   2  10 -10    1.38    0.15   0
  -2 -10  10    1.47    0.15   0
   2  10 -10    1.29    0.15   0
   2  10 -10    1.37    0.14   0
   1  10 -10    0.90    0.15   0
  -1 -10  10    0.84    0.14   0
   1  10 -10    0.66    0.14   0
   1  10 -10    0.55    0.14   0
   0 -10  10    0.17    0.11   0
   0  10 -10    0.01    0.14   0
   0 -10  10   -0.07    0.13   0
   0  10 -10    0.27    0.13   0
   0  10 -10    0.17    0.11   0
  -1  10 -10    3.20    0.13   0
   1 -10  10    3.75    0.14   0
   1 -10  10    3.52    0.13   0
  -1  10 -10    3.35    0.14   0
  -1  10 -10    2.81    0.14   0
  -2  10 -10    0.07    0.15   0
   2 -10  10    0.25    0.11   0
   2 -10  10    0.07    0.14   0
  -2  10 -10    0.35    0.13   0
  -2  10 -10    0.01    0.13   0
  -3  10 -10    0.20    0.14   0
   3 -10  10    0.09    0.14   0
  -3  10 -10    0.26    0.14   0
  -3  10 -10    0.21    0.14   0
   3 -10  10    0.21    0.11   0
  -4  10 -10    0.61    0.12   0
   4 -10  10    0.62    0.15   0
  -4  10 -10    0.79    0.14   0
  -4  10 -10    0.87    0.15   0
   4 -10  10    0.84    0.15   0
   5   9 -10    0.28    0.17   0
   5   9 -10    0.44    0.15   0
   5   9 -10    0.39    0.15   0
   5   9 -10    0.39    0.17   0
   5   9 -10    0.39    0.15   0
   4   9 -10    0.90    0.15   0
   4   9 -10    0.82    0.14   0
   4   9 -10    0.62    0.15   0
   4   9 -10    0.82    0.14   0
   4   9 -10    0.72    0.17   0
   3   9 -10    1.67    0.14   0
   3   9 -10    1.49    0.14   0
   3   9 -10    1.63    0.15   0
   3   9 -10    2.03    0.15   0
   2   9 -10    1.04    0.13   0
   2   9 -10    1.24    0.14   0
   2   9 -10    1.28    0.15   0
  -2  -9  10    1.37    0.14   0
   2   9 -10    0.98    0.14   0
   1   9 -10    0.69    0.13   0
   1   9 -10    0.56    0.13   0
   1   9 -10    0.55    0.14   0
  -1  -9  10    0.61    0.14   0
   1   9 -10    0.72    0.13   0
   0   9 -10    0.13    0.12   0
   0   9 -10    0.25    0.14   0
   0  -9  10    0.10    0.14   0
   0   9 -10    0.10    0.13   0
  -1   9 -10    4.20    0.16   0
   1  -9  10    4.87    0.15   0
  -1   9 -10    4.47    0.14   0
   1  -9  10    4.91    0.12   0
  -1   9 -10    4.25    0.12   0
  -2   9 -10    3.63    0.13   0
   2  -9  10    3.63    0.14   0
   2  -9  10    3.29    0.13   0
  -2   9 -10    3.26    0.12   0
  -2   9 -10    3.38    0.14   0
  -3   9 -10    0.92    0.14   0
   3  -9  10    0.94    0.14   0
   3  -9  10    0.54    0.14   0
  -3   9 -10    0.82    0.14   0
  -3   9 -10    0.81    0.11   0
  -4   9 -10    0.60    0.14   0
   4  -9  10    0.58    0.14   0
   4  -9  10    0.53    0.14   0
  -4   9 -10    0.36    0.14   0
  -4   9 -10    0.41    0.14   0
  -5   9 -10    6.93    0.17   0
   5  -9  10    7.21    0.17   0
   5  -9  10    7.45    0.17   0
  -5   9 -10    6.93    0.16   0
  -5   9 -10    6.58    0.17   0
   6   8 -10    0.09    0.15   0
   6   8 -10    0.05    0.15   0
   6   8 -10    0.05    0.18   0
   6   8 -10    0.32    0.17   0
   6   8 -10    0.22    0.15   0
   5   8 -10    1.65    0.15   0
   5   8 -10    1.70    0.18   0
   5   8 -10    1.82    0.15   0
   5   8 -10    1.88    0.17   0
   5   8 -10    1.60    0.17   0
   4   8 -10   -0.11    0.14   0
   4   8 -10    0.12    0.14   0
   4   8 -10   -0.11    0.14   0
   4   8 -10    0.05    0.14   0
   4   8 -10   -0.07    0.16   0
   3   8 -10   -0.09    0.13   0
   3   8 -10    0.09    0.14   0
   3   8 -10   -0.04    0.11   0
   3   8 -10    0.16    0.13   0
   2   8 -10    1.30    0.14   0
   2   8 -10    1.21    0.14   0
   2   8 -10    0.90    0.13   0
  -2  -8  10    1.26    0.14   0
   2   8 -10    1.10    0.11   0
   1   8 -10    0.02    0.12   0
   1   8 -10   -0.10    0.14   0
   1   8 -10   -0.17    0.13   0
  -1  -8  10    0.18    0.13   0
   1   8 -10    0.10    0.11   0
   0   8 -10    3.13    0.15   0
   0   8 -10    3.46    0.13   0
   0  -8  10    3.67    0.15   0
   0   8 -10    3.75    0.14   0
  -1   8 -10    1.99    0.13   0
  -1   8 -10    1.86    0.15   0
   1  -8  10    2.06    0.14   0
  -1   8 -10    2.28    0.13   0
   2  -8  10    0.47    0.13   0
  -2   8 -10    0.52    0.11   0
   2  -8  10    0.38    0.11   0
  -2   8 -10    0.53    0.13   0
  -2   8 -10    0.51    0.13   0
  -3   8 -10    0.34    0.14   0
   3  -8  10    0.44    0.14   0
  -3   8 -10    0.20    0.11   0
   3  -8  10    0.21    0.14   0
  -3   8 -10    0.24    0.13   0
  -4   8 -10    0.41    0.14   0
   4  -8  10    0.44    0.14   0
   4  -8  10    0.22    0.14   0
  -4   8 -10    0.47    0.13   0
  -4   8 -10    0.39    0.14   0
  -5   8 -10    5.61    0.14   0
   5  -8  10    5.36    0.17   0
   5  -8  10    6.52    0.17   0
  -5   8 -10    5.82    0.16   0
  -5   8 -10    5.77    0.16   0
  -6   8 -10    6.22    0.17   0
   6  -8  10    6.15    0.17   0
  -6   8 -10    6.22    0.17   0
  -6   8 -10    6.29    0.18   0
   7   7 -10    0.49    0.18   0
   7   7 -10    0.95    0.15   0
   7   7 -10    0.71    0.15   0
   7   7 -10    0.64    0.18   0
   7   7 -10    0.70    0.16   0
   6   7 -10    3.16    0.16   0
   6   7 -10    3.29    0.16   0
   6   7 -10    3.36    0.16   0
   6   7 -10    3.38    0.16   0
   6   7 -10    3.10    0.16   0
   5   7 -10    0.40    0.14   0
   5   7 -10    0.14    0.15   0
   5   7 -10    0.29    0.14   0
   5   7 -10    0.26    0.14   0
   5   7 -10    0.37    0.14   0
   4   7 -10    0.24    0.13   0
   4   7 -10    0.26    0.14   0
   4   7 -10    0.31    0.14   0
   4   7 -10    0.35    0.14   0
   4   7 -10    0.17    0.14   0
   3   7 -10    1.64    0.14   0
   3   7 -10    1.49    0.14   0
   3   7 -10    1.57    0.13   0
   3   7 -10    1.59    0.11   0
   2   7 -10    0.71    0.13   0
   2   7 -10    0.77    0.14   0
  -2  -7  10    0.65    0.14   0
   2   7 -10    1.02    0.13   0
   2   7 -10    0.65    0.11   0
   1   7 -10    1.01    0.10   0
   1   7 -10    0.83    0.14   0
  -1  -7  10    1.00    0.14   0
   1   7 -10    0.79    0.11   0
   1   7 -10    0.76    0.13   0
   0   7 -10    0.46    0.10   0
   0   7 -10    0.34    0.14   0
   0  -7  10    0.03    0.11   0
   0   7 -10    0.50    0.12   0
   0   7 -10    0.15    0.13   0
  -1   7 -10   -0.11    0.14   0
  -1   7 -10    0.19    0.10   0
   1  -7  10    0.06    0.13   0
  -1   7 -10    0.07    0.12   0
  -2   7 -10    3.29    0.12   0
  -2   7 -10    2.91    0.12   0
   2  -7  10    3.07    0.14   0
  -2   7 -10    3.24    0.12   0
  -3   7 -10    5.52    0.15   0
   3  -7  10    5.45    0.13   0
  -3   7 -10    5.70    0.13   0
  -3   7 -10    5.49    0.15   0
  -4   7 -10    1.33    0.14   0
   4  -7  10    1.35    0.15   0
  -4   7 -10    1.56    0.14   0
  -4   7 -10    1.39    0.13   0
  -5   7 -10    0.65    0.15   0
   5  -7  10    0.70    0.15   0
  -5   7 -10    0.37    0.13   0
  -5   7 -10    0.21    0.14   0
  -6   7 -10    0.23    0.16   0
  -6   7 -10    0.08    0.15   0
   6  -7  10    0.10    0.12   0
  -6   7 -10    0.16    0.15   0
  -6   7 -10    0.26    0.15   0
   7   6 -10    0.90    0.15   0
   7   6 -10    0.97    0.17   0
   7   6 -10    0.59    0.19   0
   7   6 -10    0.79    0.15   0
   7   6 -10    0.85    0.18   0
   6   6 -10    2.37    0.15   0
   6   6 -10    2.79    0.16   0
   6   6 -10    2.59    0.17   0
   6   6 -10    2.62    0.15   0
   6   6 -10    2.74    0.15   0
   5   6 -10    1.27    0.15   0
   5   6 -10    1.11    0.14   0
   5   6 -10    1.30    0.15   0
   5   6 -10    1.22    0.14   0
   5   6 -10    1.07    0.15   0
   4   6 -10   13.13    0.17   0
   4   6 -10   12.80    0.17   0
   4   6 -10   12.78    0.18   0
   4   6 -10   13.28    0.19   0
   4   6 -10   11.71    0.18   0
   3   6 -10    1.49    0.13   0
   3   6 -10    1.58    0.13   0
   3   6 -10    1.30    0.14   0
   3   6 -10    1.60    0.13   0
   2   6 -10    0.62    0.10   0
   2   6 -10    0.44    0.14   0
  -2  -6  10    0.57    0.13   0
   2   6 -10    0.53    0.13   0
   2   6 -10    0.26    0.10   0
   1   6 -10    2.96    0.13   0
   1   6 -10    2.63    0.15   0
  -1  -6  10    3.14    0.15   0
   1   6 -10    2.99    0.14   0
   1   6 -10    2.96    0.13   0
   0   6 -10    6.10    0.14   0
   0   6 -10    5.65    0.16   0
   0  -6  10    5.84    0.13   0
   0   6 -10    5.29    0.14   0
   0   6 -10    5.95    0.15   0
  -1   6 -10    7.45    0.15   0
  -1   6 -10    7.28    0.16   0
   1  -6  10    7.63    0.15   0
  -1   6 -10    7.60    0.13   0
  -1   6 -10    7.61    0.13   0
  -2   6 -10    2.70    0.11   0
  -2   6 -10    2.82    0.15   0
  -2   6 -10    2.53    0.14   0
   2  -6  10    2.81    0.15   0
  -2   6 -10    2.44    0.14   0
  -3   6 -10    0.43    0.12   0
  -3   6 -10    0.51    0.10   0
  -3   6 -10    0.69    0.14   0
   3  -6  10    0.41    0.11   0
  -3   6 -10    0.70    0.13   0
  -4   6 -10    0.80    0.13   0
  -4   6 -10    0.79    0.15   0
   4  -6  10    0.85    0.14   0
  -4   6 -10    0.96    0.14   0
  -4   6 -10    0.94    0.13   0
  -5   6 -10    1.24    0.16   0
  -5   6 -10    1.09    0.15   0
   5  -6  10    1.13    0.15   0
  -5   6 -10    1.05    0.14   0
  -5   6 -10    1.43    0.12   0
  -6   6 -10    4.80    0.14   0
  -6   6 -10    5.13    0.16   0
   6  -6  10    5.28    0.17   0
  -6   6 -10    5.23    0.18   0
  -6   6 -10    4.80    0.16   0
   8   5 -10    1.26    0.18   0
   8   5 -10    1.06    0.19   0
   8   5 -10    1.17    0.16   0
   8   5 -10    1.12    0.21   0
   8   5 -10    1.10    0.16   0
   7   5 -10    0.28    0.15   0
   7   5 -10    0.25    0.15   0
   7   5 -10    0.35    0.17   0
   7   5 -10    0.16    0.17   0
   7   5 -10    0.17    0.15   0
   6   5 -10    1.41    0.15   0
   6   5 -10    1.48    0.15   0
   6   5 -10    1.74    0.14   0
   6   5 -10    1.43    0.17   0
   6   5 -10    1.26    0.15   0
   5   5 -10    0.80    0.13   0
   5   5 -10    0.86    0.12   0
   5   5 -10    1.01    0.14   0
   5   5 -10    0.73    0.16   0
   5   5 -10    0.53    0.13   0
   4   5 -10    1.96    0.11   0
   4   5 -10    1.84    0.14   0
   4   5 -10    2.40    0.14   0
   4   5 -10    1.85    0.16   0
   4   5 -10    1.98    0.14   0
   3   5 -10    0.98    0.10   0
   3   5 -10    1.20    0.14   0
   3   5 -10    0.97    0.13   0
   3   5 -10    0.82    0.13   0
   3   5 -10    0.64    0.14   0
   2   5 -10    2.88    0.14   0
   2   5 -10    2.77    0.15   0
   2   5 -10    3.18    0.14   0
  -2  -5  10    3.27    0.14   0
   2   5 -10    3.30    0.15   0
   1   5 -10    0.65    0.12   0
   1   5 -10    0.71    0.13   0
   1   5 -10    0.57    0.14   0
  -1  -5  10    0.98    0.14   0
   1   5 -10    0.71    0.12   0
   0   5 -10    3.33    0.14   0
   0   5 -10    3.10    0.13   0
   0  -5  10    3.15    0.14   0
   0   5 -10    3.64    0.15   0
   0   5 -10    3.33    0.14   0
  -1   5 -10    0.03    0.14   0
  -1   5 -10    0.29    0.14   0
   1  -5  10    0.11    0.11   0
  -1   5 -10    0.40    0.11   0
  -1   5 -10    0.37    0.13   0
  -2   5 -10   28.20    0.21   0
  -2   5 -10   26.25    0.22   0
   2  -5  10   27.82    0.21   0
  -2   5 -10   26.84    0.19   0
  -2   5 -10   27.91    0.21   0
  -3   5 -10    0.30    0.12   0
  -3   5 -10    0.55    0.14   0
  -3   5 -10    0.28    0.13   0
   3  -5  10    1.93    0.15   0
   3  -5  10    0.24    0.13   0
  -3   5 -10    0.42    0.13   0
  -4   5 -10    2.16    0.13   0
  -4   5 -10    1.93    0.15   0
   4  -5  10    2.06    0.15   0
   4  -5  10    2.05    0.14   0
  -4   5 -10    2.33    0.15   0
  -4   5 -10    2.03    0.15   0
  -5   5 -10    0.33    0.14   0
  -5   5 -10    0.24    0.13   0
  -5   5 -10    0.41    0.15   0
   5  -5  10    0.07    0.13   0
   5  -5  10    0.13    0.14   0
  -5   5 -10    0.32    0.14   0
  -6   5 -10    2.64    0.16   0
  -6   5 -10    2.78    0.18   0
   6  -5  10    2.58    0.15   0
   6  -5  10    2.46    0.16   0
  -6   5 -10    2.68    0.18   0
  -6   5 -10    2.85    0.16   0
   8   4 -10    0.32    0.16   0
   8   4 -10    0.14    0.15   0
   8   4 -10    0.01    0.22   0
   8   4 -10   -0.05    0.14   0
   8   4 -10   -0.22    0.16   0
   7   4 -10    1.21    0.17   0
   7   4 -10    0.97    0.16   0
   7   4 -10    1.11    0.15   0
   7   4 -10    1.04    0.19   0
   7   4 -10    1.06    0.15   0
   6   4 -10    1.20    0.14   0
   6   4 -10    0.92    0.14   0
   6   4 -10    0.75    0.14   0
   6   4 -10    0.83    0.16   0
   6   4 -10    0.97    0.14   0
   5   4 -10    1.61    0.13   0
   5   4 -10    1.50    0.14   0
   5   4 -10    1.78    0.14   0
   5   4 -10    1.63    0.16   0
   5   4 -10    1.57    0.14   0
   4   4 -10    1.15    0.13   0
   4   4 -10    1.39    0.14   0
   4   4 -10    1.04    0.13   0
   4   4 -10    1.27    0.14   0
   4   4 -10    1.17    0.14   0
   3   4 -10    4.18    0.15   0
   3   4 -10    3.79    0.15   0
   3   4 -10    4.58    0.14   0
   3   4 -10    4.06    0.15   0
   3   4 -10    3.98    0.15   0
   2   4 -10    0.47    0.13   0
   2   4 -10    0.33    0.13   0
   2   4 -10    0.40    0.15   0
  -2  -4  10    0.59    0.13   0
   2   4 -10    0.64    0.15   0
   1   4 -10    4.63    0.12   0
   1   4 -10    4.57    0.16   0
  -1  -4  10    4.77    0.15   0
   1   4 -10    4.98    0.16   0
   1   4 -10    4.93    0.14   0
   0   4 -10   -0.15    0.13   0
   0   4 -10    0.15    0.14   0
   0  -4  10    0.01    0.11   0
   0   4 -10    0.11    0.14   0
   0   4 -10    0.12    0.11   0
  -1   4 -10  113.60    0.36   0
  -1   4 -10  113.77    0.36   0
  -1   4 -10  108.24    0.35   0
   1  -4  10  116.96    0.37   0
   1  -4  10  114.49    0.35   0
  -1   4 -10  112.91    0.34   0
  -2   4 -10    0.37    0.13   0
  -2   4 -10    0.59    0.15   0
   2  -4  10    0.47    0.14   0
   2  -4  10    0.41    0.11   0
  -2   4 -10    0.36    0.14   0
  -2   4 -10    0.60    0.13   0
  -3   4 -10    1.39    0.14   0
  -3   4 -10    1.21    0.15   0
   3  -4  10    1.03    0.14   0
  -3   4 -10    1.14    0.16   0
   3  -4  10    1.01    0.14   0
  -3   4 -10    1.31    0.12   0
  -4   4 -10    3.45    0.15   0
  -4   4 -10    3.75    0.14   0
  -4   4 -10    4.13    0.16   0
   4  -4  10    3.91    0.15   0
   4  -4  10    4.16    0.15   0
  -4   4 -10    4.28    0.13   0
  -5   4 -10    0.70    0.15   0
  -5   4 -10    0.63    0.15   0
   5  -4  10    0.43    0.12   0
   5  -4  10    0.72    0.14   0
  -5   4 -10    0.48    0.15   0
  -5   4 -10    0.24    0.14   0
  -6   4 -10    0.95    0.15   0
  -6   4 -10    0.63    0.17   0
   6  -4  10    0.68    0.15   0
   6  -4  10    0.90    0.15   0
  -6   4 -10    0.68    0.17   0
  -6   4 -10    0.76    0.12   0
   8   3 -10    0.40    0.15   0
   8   3 -10    0.30    0.15   0
   8   3 -10    0.30    0.14   0
   8   3 -10    0.21    0.15   0
   8   3 -10    0.23    0.39   0
   7   3 -10   -0.12    0.14   0
   7   3 -10   -0.02    0.14   0
   7   3 -10    0.07    0.21   0
   7   3 -10    0.04    0.14   0
   7   3 -10    0.00    0.14   0
   6   3 -10    4.01    0.15   0
   6   3 -10    3.70    0.15   0
   6   3 -10    3.48    0.15   0
   6   3 -10    3.42    0.21   0
   6   3 -10    3.42    0.15   0
   5   3 -10   18.73    0.18   0
   5   3 -10   18.74    0.20   0
   5   3 -10   20.06    0.21   0
   5   3 -10   19.02    0.27   0
   5   3 -10   18.01    0.20   0
   4   3 -10    3.27    0.12   0
   4   3 -10    3.17    0.15   0
   4   3 -10    3.63    0.15   0
   4   3 -10    3.32    0.18   0
   4   3 -10    3.26    0.15   0
   3   3 -10    0.95    0.13   0
   3   3 -10    0.94    0.14   0
   3   3 -10    1.08    0.13   0
   3   3 -10    1.05    0.13   0
   3   3 -10    0.62    0.14   0
   2   3 -10    3.45    0.14   0
   2   3 -10    3.28    0.13   0
   2   3 -10    3.35    0.14   0
   2   3 -10    3.65    0.15   0
   1   3 -10    5.72    0.15   0
   1   3 -10    5.59    0.16   0
  -1  -3  10    6.01    0.16   0
   1   3 -10    6.29    0.16   0
  -1  -3  10    5.85    0.15   0
   1   3 -10    5.96    0.15   0
   0   3 -10   10.18    0.17   0
   0   3 -10    9.81    0.17   0
   0   3 -10    9.09    0.16   0
   0  -3  10    9.85    0.15   0
   0  -3  10    9.63    0.17   0
   0   3 -10   10.35    0.18   0
  -1   3 -10   56.93    0.28   0
  -1   3 -10   52.14    0.25   0
   1  -3  10   58.27    0.28   0
  -1   3 -10   56.08    0.26   0
   1  -3  10   56.76    0.27   0
  -1   3 -10   56.26    0.28   0
  -2   3 -10   32.13    0.22   0
  -2   3 -10   30.17    0.23   0
   2  -3  10   32.89    0.23   0
   2  -3  10   32.43    0.21   0
  -2   3 -10   32.14    0.22   0
  -2   3 -10   32.29    0.23   0
  -3   3 -10    8.10    0.17   0
  -3   3 -10    8.46    0.16   0
   3  -3  10    8.58    0.17   0
   3  -3  10    8.58    0.16   0
  -3   3 -10    8.12    0.16   0
  -3   3 -10    8.72    0.14   0
  -4   3 -10    0.86    0.14   0
  -4   3 -10    1.21    0.15   0
  -4   3 -10    0.97    0.13   0
   4  -3  10    1.10    0.14   0
   4  -3  10    1.25    0.12   0
  -4   3 -10    1.13    0.14   0
  -5   3 -10    0.43    0.15   0
  -5   3 -10    0.53    0.16   0
   5  -3  10    0.42    0.15   0
   5  -3  10    0.64    0.14   0
  -5   3 -10    0.55    0.16   0
  -5   3 -10    0.26    0.14   0
  -6   3 -10    2.14    0.16   0
  -6   3 -10    2.87    0.20   0
   6  -3  10    2.82    0.16   0
  -6   3 -10    2.61    0.18   0
   6  -3  10    2.77    0.16   0
  -6   3 -10    2.64    0.13   0
   9   2 -10    0.03    0.15   0
   9   2 -10    0.00    0.15   0
   9   2 -10   -0.02    0.18   0
   9   2 -10   -0.04    0.15   0
   8   2 -10    0.02    0.15   0
   8   2 -10   -0.15    0.17   0
   8   2 -10   -0.10    0.15   0
   7   2 -10    0.98    0.12   0
   7   2 -10    0.72    0.15   0
   7   2 -10    0.65    0.14   0
   7   2 -10    0.77    0.27   0
  -6  -2  10    3.82    0.14   0
   6   2 -10    3.80    0.16   0
   6   2 -10    4.09    0.16   0
   6   2 -10    3.78    0.22   0
   6   2 -10    3.68    0.15   0
  -5  -2  10    1.77    0.12   0
   5   2 -10    1.68    0.15   0
   5   2 -10    1.70    0.15   0
   5   2 -10    1.68    0.20   0
   5   2 -10    1.65    0.14   0
  -4  -2  10    1.50    0.14   0
   4   2 -10    1.35    0.14   0
   4   2 -10    1.53    0.14   0
   4   2 -10    1.57    0.17   0
   4   2 -10    1.55    0.14   0
  -3  -2  10    2.82    0.14   0
   3   2 -10    2.58    0.14   0
   3   2 -10    2.67    0.12   0
   3   2 -10    2.59    0.12   0
   3   2 -10    2.71    0.15   0
   2   2 -10   16.54    0.18   0
   2   2 -10   15.95    0.17   0
  -2  -2  10   15.50    0.19   0
   2   2 -10   15.83    0.19   0
   2   2 -10   17.25    0.22   0
   1   2 -10   11.04    0.17   0
   1   2 -10   10.34    0.16   0
   1   2 -10   11.43    0.17   0
  -1  -2  10   11.22    0.16   0
  -1  -2  10   11.10    0.17   0
   1   2 -10   11.60    0.18   0
   0   2 -10    0.14    0.14   0
   0   2 -10    0.15    0.14   0
   0   2 -10    0.03    0.15   0
   0  -2  10    0.07    0.15   0
   0  -2  10    0.03    0.14   0
   0   2 -10   -0.19    0.15   0
  -1   2 -10   -0.04    0.13   0
  -1   2 -10    0.42    0.15   0
  -1   2 -10    0.16    0.13   0
   1  -2  10    0.32    0.15   0
   1  -2  10    0.19    0.14   0
  -1   2 -10    0.30    0.14   0
  -2   2 -10    4.44    0.16   0
  -2   2 -10    5.28    0.15   0
  -2   2 -10    5.20    0.15   0
   2  -2  10    5.04    0.15   0
   2  -2  10    4.81    0.12   0
  -2   2 -10    4.93    0.12   0
  -3   2 -10    2.08    0.15   0
  -3   2 -10    2.14    0.15   0
   3  -2  10    2.15    0.14   0
   3  -2  10    2.28    0.14   0
  -3   2 -10    2.11    0.13   0
  -3   2 -10    2.18    0.12   0
  -4   2 -10    0.44    0.17   0
  -4   2 -10    0.44    0.16   0
   4  -2  10    0.23    0.14   0
  -4   2 -10    0.36    0.15   0
   4  -2  10    0.30    0.14   0
  -4   2 -10    0.42    0.14   0
  -5   2 -10   12.82    0.21   0
  -5   2 -10   13.94    0.24   0
   5  -2  10   14.45    0.20   0
   5  -2  10   14.81    0.20   0
  -5   2 -10   13.20    0.22   0
  -5   2 -10   13.66    0.19   0
  -6   2 -10    5.07    0.19   0
   6  -2  10    4.74    0.17   0
  -6   2 -10    4.88    0.21   0
  -6   2 -10    4.85    0.21   0
   6  -2  10    5.08    0.17   0
  -6   2 -10    4.99    0.16   0
  -9  -1  10    0.80    0.17   0
   9   1 -10    0.84    0.15   0
   9   1 -10    0.86    0.18   0
   9   1 -10    0.84    0.13   0
  -8  -1  10    1.93    0.14   0
   8   1 -10    1.80    0.16   0
   8   1 -10    2.10    0.16   0
   8   1 -10    2.07    0.16   0
  -7  -1  10    0.35    0.13   0
   7   1 -10    0.32    0.14   0
   7   1 -10    0.28    0.14   0
   7   1 -10    0.50    0.14   0
  -6  -1  10    3.07    0.14   0
   6   1 -10    3.30    0.15   0
   6   1 -10    3.07    0.15   0
   6   1 -10    3.18    0.13   0
   6   1 -10    3.23    0.25   0
  -5  -1  10    4.22    0.15   0
   5   1 -10    4.58    0.15   0
   5   1 -10    4.64    0.15   0
   5   1 -10    4.55    0.15   0
   5   1 -10    4.57    0.21   0
  -4  -1  10    1.55    0.13   0
   4   1 -10    1.49    0.14   0
   4   1 -10    1.59    0.14   0
   4   1 -10    1.38    0.13   0
   4   1 -10    1.51    0.17   0
  -3  -1  10    5.30    0.13   0
   3   1 -10    4.90    0.13   0
   3   1 -10    5.08    0.13   0
  -3  -1  10    4.94    0.17   0
   3   1 -10    4.89    0.13   0
   3   1 -10    5.05    0.16   0
  -2  -1  10    8.27    0.15   0
   2   1 -10    7.96    0.14   0
   2   1 -10    7.93    0.18   0
  -2  -1  10    7.90    0.17   0
   2   1 -10    8.09    0.17   0
   2   1 -10    8.74    0.20   0
  -1  -1  10   16.45    0.19   0
   1   1 -10   14.94    0.20   0
   1   1 -10   16.37    0.19   0
  -1  -1  10   15.55    0.19   0
   1   1 -10   16.70    0.20   0
   0   1 -10    0.08    0.12   0
   0   1 -10   -0.09    0.13   0
   0  -1  10    0.14    0.14   0
   0  -1  10    0.07    0.13   0
   0   1 -10    0.15    0.14   0
  -1   1 -10    1.48    0.15   0
  -1   1 -10    1.62    0.13   0
  -1   1 -10    1.67    0.13   0
   1  -1  10    1.72    0.14   0
   1  -1  10    1.70    0.12   0
  -1   1 -10    1.73    0.14   0
  -2   1 -10   11.14    0.18   0
  -2   1 -10   12.00    0.18   0
   2  -1  10   12.21    0.18   0
   2  -1  10   12.11    0.15   0
  -2   1 -10   12.55    0.17   0
  -2   1 -10   12.37    0.19   0
  -3   1 -10   23.42    0.23   0
  -3   1 -10   21.73    0.21   0
  -3   1 -10   24.32    0.24   0
   3  -1  10   23.85    0.22   0
   3  -1  10   23.85    0.21   0
  -3   1 -10   24.40    0.20   0
  -4   1 -10    1.32    0.14   0
   4  -1  10    0.99    0.15   0
  -4   1 -10    1.21    0.18   0
  -4   1 -10    1.29    0.16   0
   4  -1  10    1.29    0.14   0
  -4   1 -10    1.05    0.12   0
  -5   1 -10    2.22    0.15   0
   5  -1  10    2.62    0.15   0
  -5   1 -10    2.35    0.19   0
   5  -1  10    2.87    0.16   0
  -5   1 -10    2.28    0.13   0
  -5   1 -10    2.39    0.19   0
  -6   1 -10    0.13    0.18   0
   6  -1  10    0.17    0.15   0
  -6   1 -10    0.18    0.23   0
  -6   1 -10    0.25    0.22   0
   6  -1  10    0.21    0.12   0
  -9   0  10    0.20    0.14   0
   9   0 -10    0.30    0.15   0
   9   0 -10   -0.13    0.18   0
   9   0 -10    0.18    0.15   0
  -8   0  10    0.23    0.13   0
   8   0 -10    0.36    0.15   0
   8   0 -10    0.20    0.14   0
   8   0 -10    0.31    0.15   0
  -7   0  10    0.13    0.13   0
   7   0 -10    0.19    0.14   0
   7   0 -10    0.07    0.14   0
   7   0 -10    0.39    0.14   0
  -6   0  10    0.91    0.13   0
   6   0 -10    0.82    0.14   0
   6   0 -10    0.86    0.14   0
   6   0 -10    1.01    0.14   0
  -5   0  10    1.24    0.13   0
   5   0 -10    0.94    0.11   0
   5   0 -10    0.88    0.11   0
   5   0 -10    0.83    0.13   0
   5   0 -10    0.98    0.20   0
  -4   0  10    4.30    0.12   0
   4   0 -10    4.31    0.15   0
   4   0 -10    4.60    0.15   0
  -4   0  10    4.05    0.17   0
   4   0 -10    4.21    0.15   0
   4   0 -10    4.26    0.19   0
  -3   0  10    0.31    0.11   0
   3   0 -10    0.49    0.14   0
   3   0 -10    0.46    0.13   0
  -3   0  10    0.29    0.13   0
   3   0 -10    0.44    0.11   0
   3   0 -10    0.34    0.16   0
  -2   0  10   12.36    0.18   0
   2   0 -10   11.64    0.16   0
   2   0 -10   12.32    0.18   0
  -2   0  10   11.91    0.18   0
   2   0 -10   12.22    0.18   0
   2   0 -10   12.26    0.19   0
  -1   0  10    0.52    0.14   0
   1   0 -10    0.40    0.15   0
   1   0 -10    0.62    0.11   0
  -1   0  10    0.34    0.13   0
   1   0 -10    0.40    0.14   0
   1   0 -10    0.38    0.14   0
   0   0  10    8.15    0.14   0
   0   0 -10    7.19    0.16   0
   0   0 -10    8.24    0.16   0
   0   0  10    8.16    0.16   0
   0   0 -10    8.51    0.17   0
  -1   0 -10    5.67    0.16   0
  -1   0 -10    6.03    0.15   0
   1   0  10    6.11    0.15   0
   1   0  10    5.96    0.13   0
  -1   0 -10    6.56    0.15   0
  -2   0 -10    4.07    0.15   0
  -2   0 -10    4.78    0.15   0
   2   0  10    4.78    0.17   0
   2   0  10    4.82    0.15   0
  -2   0 -10    4.59    0.14   0
  -2   0 -10    4.88    0.15   0
  -3   0 -10    6.98    0.17   0
   3   0  10    7.93    0.19   0
  -3   0 -10    7.96    0.19   0
  -3   0 -10    7.60    0.19   0
   3   0  10    7.74    0.16   0
  -3   0 -10    8.03    0.16   0
  -4   0 -10    0.29    0.14   0
  -4   0 -10    0.09    0.15   0
   4   0  10    0.18    0.16   0
  -4   0 -10    0.19    0.18   0
   4   0  10    0.19    0.14   0
  -4   0 -10    0.25    0.17   0
  -5   0 -10    0.33    0.20   0
  -5   0 -10    0.19    0.15   0
   5   0  10    0.53    0.15   0
  -5   0 -10    0.34    0.22   0
   5   0  10    0.45    0.12   0
  -6   0 -10    0.62    0.19   0
   6   0  10    0.76    0.19   0
   6   0  10    0.94    0.13   0
  -9   1  10    0.50    0.17   0
   9  -1 -10    0.25    0.16   0
   9  -1 -10    0.18    0.13   0
  -8   1  10    0.55    0.14   0
   8  -1 -10    0.55    0.15   0
   8  -1 -10    0.54    0.15   0
  -7   1  10    1.19    0.13   0
   7  -1 -10    1.25    0.14   0
   7  -1 -10    1.13    0.14   0
  -6   1  10    2.05    0.12   0
   6  -1 -10    1.96    0.14   0
   6  -1 -10    2.15    0.15   0
   6  -1 -10    2.17    0.14   0
  -5   1  10    0.22    0.13   0
   5  -1 -10    0.23    0.11   0
   5  -1 -10    0.24    0.14   0
   5  -1 -10    0.23    0.13   0
  -4   1  10    0.99    0.13   0
   4  -1 -10    0.98    0.13   0
   4  -1 -10    0.77    0.13   0
  -4   1  10    0.78    0.18   0
   4  -1 -10    0.73    0.13   0
  -3   1  10    6.13    0.15   0
   3  -1 -10    6.61    0.16   0
   3  -1 -10    7.07    0.16   0
  -3   1  10    6.40    0.17   0
   3  -1 -10    6.40    0.17   0
   3  -1 -10    6.70    0.20   0
  -2   1  10    0.30    0.14   0
   2  -1 -10    0.08    0.14   0
   2  -1 -10    0.02    0.14   0
  -2   1  10    0.10    0.13   0
   2  -1 -10    0.17    0.12   0
   2  -1 -10    0.23    0.14   0
  -1   1  10    5.56    0.13   0
   1  -1 -10    5.35    0.16   0
   1  -1 -10    6.26    0.16   0
  -1   1  10    5.72    0.16   0
   1  -1 -10    5.62    0.16   0
   1  -1 -10    6.02    0.16   0
   0  -1 -10   11.32    0.17   0
   0   1  10   10.60    0.16   0
   0  -1 -10   10.01    0.17   0
   0  -1 -10   11.97    0.17   0
   0   1  10   11.10    0.17   0
   0  -1 -10   11.69    0.18   0
   1   1  10    1.26    0.13   0
  -1  -1 -10    1.16    0.14   0
  -1  -1 -10    1.37    0.16   0
   1   1  10    1.46    0.14   0
  -1  -1 -10    1.15    0.13   0
  -2  -1 -10    1.10    0.11   0
  -2  -1 -10    1.02    0.13   0
  -2  -1 -10    1.10    0.16   0
   2   1  10    1.18    0.16   0
  -2  -1 -10    1.04    0.15   0
   2   1  10    1.00    0.14   0
  -3  -1 -10    0.15    0.16   0
   3   1  10    0.10    0.15   0
  -3  -1 -10    0.04    0.16   0
   3   1  10    0.08    0.11   0
  -3  -1 -10    0.14    0.15   0
  -4  -1 -10   12.54    0.23   0
   4   1  10   14.12    0.23   0
  -4  -1 -10   13.36    0.25   0
   4   1  10   13.45    0.19   0
  -4  -1 -10   13.10    0.24   0
  -5  -1 -10    1.23    0.18   0
  -5  -1 -10    1.21    0.23   0
   5   1  10    1.49    0.18   0
   5   1  10    1.16    0.13   0
  -5  -1 -10    1.28    0.25   0
  -9   2  10    2.51    0.16   0
  -9   2  10    2.77    0.16   0
   9  -2 -10    2.14    0.17   0
   9  -2 -10    2.53    0.17   0
  -8   2  10    0.10    0.14   0
   8  -2 -10    0.08    0.15   0
   8  -2 -10   -0.03    0.12   0
  -8   2  10    0.33    0.14   0
  -7   2  10    0.21    0.13   0
  -7   2  10    0.17    0.11   0
   7  -2 -10   -0.24    0.14   0
   7  -2 -10    0.29    0.11   0
  -6   2  10    1.44    0.14   0
   6  -2 -10    1.17    0.12   0
   6  -2 -10    1.37    0.12   0
  -5   2  10    1.08    0.13   0
   5  -2 -10    1.06    0.14   0
  -5   2  10    1.12    0.20   0
   5  -2 -10    1.00    0.14   0
   5  -2 -10    1.03    0.12   0
  -4   2  10    2.12    0.14   0
   4  -2 -10    2.16    0.12   0
   4  -2 -10    2.28    0.12   0
  -4   2  10    2.04    0.17   0
   4  -2 -10    2.12    0.12   0
  -3   2  10   53.89    0.27   0
   3  -2 -10   52.67    0.29   0
   3  -2 -10   50.75    0.27   0
   3  -2 -10   53.73    0.26   0
  -3   2  10   51.44    0.31   0
  -2   2  10    7.81    0.16   0
   2  -2 -10    7.22    0.16   0
   2  -2 -10    7.59    0.17   0
  -2   2  10    7.04    0.16   0
   2  -2 -10    7.65    0.17   0
  -1   2  10    1.15    0.14   0
   1  -2 -10    1.12    0.14   0
  -1   2  10    0.96    0.14   0
   1  -2 -10    1.10    0.14   0
   1  -2 -10    1.19    0.14   0
   0   2  10    7.69    0.16   0
   0  -2 -10    7.32    0.18   0
   0  -2 -10    8.13    0.17   0
   0   2  10    7.66    0.16   0
   0  -2 -10    8.27    0.16   0
   1   2  10    1.80    0.14   0
  -1  -2 -10    1.73    0.16   0
  -1  -2 -10    1.79    0.16   0
   1   2  10    1.84    0.14   0
  -1  -2 -10    1.95    0.16   0
  -2  -2 -10    0.71    0.17   0
  -2  -2 -10    0.80    0.16   0
   2   2  10    0.99    0.11   0
  -2  -2 -10    0.90    0.16   0
  -3  -2 -10    0.99    0.17   0
  -3  -2 -10    0.94    0.16   0
   3   2  10    1.24    0.11   0
  -3  -2 -10    0.90    0.18   0
  -4  -2 -10    1.17    0.18   0
  -4  -2 -10    1.21    0.20   0
   4   2  10    0.81    0.15   0
  -4  -2 -10    1.24    0.20   0
  -5  -2 -10    4.60    0.23   0
  -5  -2 -10    4.65    0.35   0
  -5  -2 -10    4.35    0.36   0
   5   2  10    4.44    0.17   0
  -9   3  10    1.16    0.15   0
  -9   3  10    1.30    0.13   0
   9  -3 -10    0.92    0.16   0
   9  -3 -10    1.15    0.13   0
  -8   3  10    0.24    0.14   0
   8  -3 -10    0.09    0.14   0
  -8   3  10    0.16    0.14   0
   8  -3 -10    0.04    0.14   0
  -7   3  10    0.92    0.14   0
  -7   3  10    1.33    0.12   0
   7  -3 -10    1.15    0.12   0
   7  -3 -10    1.25    0.12   0
  -6   3  10    2.74    0.12   0
  -6   3  10    2.60    0.25   0
  -6   3  10    2.73    0.15   0
   6  -3 -10    2.96    0.15   0
   6  -3 -10    2.99    0.15   0
  -5   3  10   10.04    0.16   0
  -5   3  10    9.69    0.23   0
   5  -3 -10   10.62    0.15   0
   5  -3 -10   10.65    0.16   0
  -4   3  10    0.79    0.13   0
   4  -3 -10    0.78    0.11   0
  -4   3  10    0.77    0.16   0
   4  -3 -10    0.63    0.14   0
   4  -3 -10    0.84    0.14   0
  -3   3  10    0.06    0.13   0
   3  -3 -10    0.16    0.14   0
   3  -3 -10    0.24    0.14   0
  -3   3  10    0.10    0.14   0
   3  -3 -10    0.29    0.14   0
  -2   3  10    4.80    0.15   0
   2  -3 -10    4.39    0.18   0
   2  -3 -10    5.00    0.16   0
  -2   3  10    4.76    0.16   0
   2  -3 -10    4.87    0.17   0
  -1   3  10    0.05    0.13   0
   1  -3 -10    0.13    0.14   0
   1  -3 -10    0.13    0.14   0
  -1   3  10    0.10    0.14   0
   1  -3 -10    0.09    0.16   0
   0   3  10   -0.03    0.14   0
   0  -3 -10    0.14    0.15   0
   0  -3 -10    0.20    0.14   0
   0   3  10    0.01    0.14   0
   0  -3 -10    0.00    0.15   0
   1   3  10    2.60    0.16   0
  -1  -3 -10    2.61    0.17   0
  -1  -3 -10    2.70    0.17   0
   1   3  10    2.75    0.15   0
  -1  -3 -10    2.80    0.18   0
   2   3  10    4.56    0.18   0
  -2  -3 -10    4.51    0.19   0
   2   3  10    4.92    0.15   0
  -2  -3 -10    4.87    0.19   0
  -2  -3 -10    4.65    0.18   0
  -3  -3 -10    0.59    0.19   0
  -3  -3 -10    0.60    0.17   0
   3   3  10    0.58    0.14   0
  -3  -3 -10    0.63    0.19   0
  -3  -3 -10    0.61    0.18   0
  -4  -3 -10    0.67    0.22   0
  -4  -3 -10    0.84    0.21   0
  -4  -3 -10    0.77    0.22   0
   4   3  10    1.07    0.15   0
  -4  -3 -10    0.97    0.21   0
  -8   4  10    1.10    0.14   0
  -8   4  10    1.48    0.15   0
   8  -4 -10    0.98    0.15   0
   8  -4 -10    1.15    0.15   0
  -7   4  10    0.28    0.14   0
  -7   4  10    0.47    0.14   0
   7  -4 -10    0.32    0.15   0
   7  -4 -10    0.55    0.15   0
  -6   4  10    3.80    0.15   0
  -6   4  10    3.97    0.24   0
  -6   4  10    4.11    0.13   0
   6  -4 -10    4.24    0.16   0
   6  -4 -10    4.38    0.16   0
  -5   4  10    4.82    0.13   0
  -5   4  10    4.75    0.20   0
   5  -4 -10    4.91    0.15   0
   5  -4 -10    5.08    0.17   0
  -4   4  10    0.51    0.11   0
   4  -4 -10    0.76    0.14   0
   4  -4 -10    0.40    0.14   0
   4  -4 -10    0.55    0.14   0
  -4   4  10    0.35    0.15   0
  -3   4  10    0.39    0.11   0
   3  -4 -10    0.30    0.13   0
   3  -4 -10    0.37    0.14   0
  -3   4  10    0.27    0.13   0
   3  -4 -10    0.36    0.14   0
  -2   4  10   12.97    0.16   0
   2  -4 -10   12.11    0.19   0
   2  -4 -10   12.96    0.19   0
  -2   4  10   13.08    0.20   0
   2  -4 -10   13.42    0.20   0
  -1   4  10   11.03    0.17   0
   1  -4 -10   10.83    0.18   0
   1  -4 -10   11.17    0.18   0
  -1   4  10   11.72    0.18   0
   1  -4 -10   11.69    0.19   0
   0   4  10    1.54    0.14   0
   0  -4 -10    1.55    0.17   0
   0   4  10    1.71    0.15   0
   0  -4 -10    1.79    0.14   0
   0  -4 -10    1.77    0.17   0
   1   4  10    8.43    0.17   0
  -1  -4 -10    8.01    0.22   0
   1   4  10    8.62    0.15   0
  -1  -4 -10    9.12    0.22   0
  -1  -4 -10    8.36    0.17   0
   2   4  10    1.55    0.16   0
  -2  -4 -10    1.41    0.20   0
   2   4  10    1.61    0.12   0
  -2  -4 -10    1.67    0.22   0
  -2  -4 -10    1.45    0.17   0
  -3  -4 -10    1.00    0.19   0
  -3  -4 -10    0.84    0.22   0
  -3  -4 -10    0.84    0.23   0
   3   4  10    0.80    0.14   0
  -4  -4 -10    2.10    0.31   0
  -4  -4 -10    1.87    0.24   0
  -4  -4 -10    2.08    0.25   0
   4   4  10    2.19    0.16   0
  -4  -4 -10    2.07    0.28   0
  -8   5  10    0.86    0.15   0
  -8   5  10    0.69    0.15   0
   8  -5 -10    1.15    0.16   0
   8  -5 -10    0.79    0.15   0
  -7   5  10    0.66    0.14   0
  -7   5  10    0.64    0.15   0
   7  -5 -10    0.63    0.15   0
   7  -5 -10    0.65    0.15   0
  -6   5  10    0.10    0.13   0
  -6   5  10   -0.10    0.20   0
  -6   5  10   -0.07    0.15   0
   6  -5 -10   -0.22    0.12   0
   6  -5 -10   -0.16    0.15   0
  -5   5  10    0.31    0.11   0
  -5   5  10    0.18    0.14   0
  -5   5  10    0.31    0.19   0
   5  -5 -10    0.73    0.14   0
   5  -5 -10    0.33    0.12   0
  -4   5  10    2.27    0.14   0
  -4   5  10    1.83    0.17   0
   4  -5 -10    1.67    0.12   0
   4  -5 -10    1.75    0.15   0
  -3   5  10    0.18    0.14   0
   3  -5 -10    0.11    0.14   0
  -3   5  10   -0.03    0.14   0
   3  -5 -10    0.42    0.14   0
   3  -5 -10    0.17    0.14   0
  -2   5  10    0.67    0.13   0
   2  -5 -10    0.65    0.16   0
  -2   5  10    0.63    0.14   0
   2  -5 -10    0.74    0.13   0
   2  -5 -10    0.83    0.15   0
  -1   5  10   13.36    0.19   0
   1  -5 -10   12.65    0.22   0
  -1   5  10   14.37    0.19   0
   1  -5 -10   14.34    0.24   0
   1  -5 -10   12.84    0.19   0
   0   5  10    3.71    0.14   0
   0  -5 -10    3.76    0.18   0
   0   5  10    3.98    0.16   0
   0  -5 -10    4.12    0.21   0
   0  -5 -10    3.95    0.15   0
   1   5  10    0.73    0.16   0
  -1  -5 -10    0.67    0.19   0
   1   5  10    0.78    0.15   0
  -1  -5 -10    0.77    0.20   0
  -1  -5 -10    0.66    0.15   0
  -2  -5 -10   -0.18    0.17   0
   2   5  10    0.06    0.16   0
  -2  -5 -10    0.00    0.21   0
   2   5  10    0.19    0.14   0
  -2  -5 -10    0.10    0.22   0
  -3  -5 -10    2.43    0.34   0
  -3  -5 -10    2.50    0.21   0
   3   5  10    2.59    0.16   0
  -3  -5 -10    2.52    0.33   0
  -8   6  10   -0.06    0.15   0
  -8   6  10    0.03    0.15   0
   7  -6 -10   -0.01    0.15   0
  -7   6  10    0.07    0.14   0
  -7   6  10    0.06    0.25   0
  -7   6  10    0.15    0.15   0
   7  -6 -10   -0.12    0.16   0
  -6   6  10   -0.11    0.11   0
  -6   6  10    0.05    0.19   0
  -6   6  10    0.16    0.14   0
   6  -6 -10    0.10    0.15   0
   6  -6 -10   -0.08    0.14   0
  -5   6  10    3.26    0.15   0
  -5   6  10    3.20    0.16   0
  -5   6  10    3.12    0.21   0
   5  -6 -10    3.20    0.17   0
   5  -6 -10    3.09    0.13   0
  -4   6  10    4.84    0.13   0
  -4   6  10    4.53    0.19   0
   4  -6 -10    4.81    0.17   0
   4  -6 -10    4.76    0.17   0
  -3   6  10    4.98    0.18   0
  -3   6  10    5.11    0.13   0
   3  -6 -10    4.71    0.16   0
   3  -6 -10    5.33    0.17   0
   3  -6 -10    4.76    0.16   0
  -2   6  10    0.69    0.14   0
   2  -6 -10    0.53    0.17   0
  -2   6  10    0.76    0.15   0
   2  -6 -10    0.88    0.17   0
   2  -6 -10    0.48    0.14   0
  -1   6  10    0.62    0.15   0
   1  -6 -10    0.56    0.17   0
  -1   6  10    0.78    0.14   0
   1  -6 -10    0.72    0.18   0
   1  -6 -10    0.48    0.14   0
   0  -6 -10    7.52    0.19   0
   0   6  10    7.42    0.19   0
   0  -6 -10    7.14    0.23   0
   0   6  10    8.12    0.15   0
   0  -6 -10    7.87    0.21   0
  -1  -6 -10    2.60    0.19   0
   1   6  10    2.89    0.17   0
  -1  -6 -10    2.60    0.23   0
   1   6  10    2.73    0.13   0
  -1  -6 -10    3.01    0.23   0
  -2  -6 -10    0.32    0.30   0
   2   6  10    0.46    0.17   0
  -2  -6 -10    0.43    0.17   0
   2   6  10    0.48    0.15   0
  -2  -6 -10    0.30    0.30   0
   7  -7 -10    0.39    0.15   0
  -7   7  10    0.51    0.13   0
  -7   7  10    0.52    0.14   0
  -7   7  10    0.30    0.24   0
   7  -7 -10    0.69    0.16   0
   6  -7 -10    2.81    0.14   0
  -6   7  10    2.28    0.15   0
  -6   7  10    3.01    0.16   0
  -6   7  10    2.36    0.22   0
   6  -7 -10    2.70    0.17   0
   5  -7 -10   -0.06    0.12   0
  -5   7  10    0.07    0.14   0
  -5   7  10   -0.13    0.15   0
  -5   7  10   -0.03    0.17   0
   5  -7 -10    0.02    0.16   0
   4  -7 -10    1.32    0.15   0
  -4   7  10    1.15    0.14   0
  -4   7  10    1.28    0.15   0
   4  -7 -10    1.28    0.16   0
   3  -7 -10    1.28    0.15   0
  -3   7  10    1.29    0.15   0
   3  -7 -10    0.94    0.15   0
  -3   7  10    1.42    0.15   0
   3  -7 -10    1.37    0.18   0
   2  -7 -10    0.14    0.14   0
  -2   7  10    0.22    0.14   0
   2  -7 -10    0.14    0.17   0
  -2   7  10    0.36    0.15   0
   2  -7 -10    0.03    0.17   0
   1  -7 -10    1.64    0.15   0
  -1   7  10    1.98    0.15   0
   1  -7 -10    1.62    0.18   0
  -1   7  10    1.90    0.16   0
   1  -7 -10    1.74    0.20   0
   0  -7 -10    3.00    0.16   0
   0   7  10    3.15    0.18   0
   0  -7 -10    2.80    0.23   0
   0   7  10    3.28    0.16   0
   0  -7 -10    3.25    0.22   0
  -1  -7 -10    0.67    0.28   0
   1   7  10    0.59    0.17   0
  -1  -7 -10    0.70    0.18   0
   1   7  10    1.14    0.16   0
  -1  -7 -10    0.73    0.26   0
   6  -8 -10    0.46    0.16   0
  -6   8  10    0.57    0.14   0
  -6   8  10    0.41    0.15   0
  -6   8  10    0.39    0.20   0
   6  -8 -10    0.39    0.17   0
   5  -8 -10    0.22    0.16   0
  -5   8  10    0.22    0.14   0
  -5   8  10    0.23    0.15   0
  -5   8  10    0.28    0.18   0
   5  -8 -10    0.22    0.15   0
   4  -8 -10    0.04    0.15   0
  -4   8  10    0.17    0.12   0
  -4   8  10    0.17    0.15   0
   4  -8 -10    0.24    0.18   0
   3  -8 -10    0.49    0.15   0
  -3   8  10    0.25    0.12   0
   3  -8 -10    0.45    0.16   0
  -3   8  10    0.33    0.15   0
   3  -8 -10    0.25    0.18   0
   2  -8 -10    2.32    0.16   0
  -2   8  10    2.36    0.15   0
   2  -8 -10    2.40    0.18   0
  -2   8  10    2.76    0.16   0
   2  -8 -10    2.55    0.19   0
   1  -8 -10    0.31    0.15   0
  -1   8  10    0.37    0.15   0
   1  -8 -10    0.32    0.20   0
  -1   8  10    0.15    0.15   0
   1  -8 -10    0.33    0.20   0
   0  -8 -10   -0.04    0.24   0
   0   8  10    0.18    0.17   0
   0  -8 -10    0.22    0.24   0
   0   8  10    0.30    0.13   0
   2  11 -11    0.64    0.15   0
   2  11 -11    0.48    0.18   0
  -2 -11  11    0.81    0.16   0
   2  11 -11    0.48    0.12   0
   2  11 -11    0.47    0.15   0
   1  11 -11    0.35    0.15   0
   1  11 -11    0.48    0.16   0
  -1 -11  11    0.38    0.16   0
   1  11 -11    0.31    0.15   0
   1  11 -11    0.34    0.15   0
   0  11 -11    1.23    0.16   0
   0 -11  11    1.65    0.16   0
   0  11 -11    1.45    0.15   0
   0  11 -11    1.31    0.15   0
  -1  11 -11    1.34    0.15   0
   1 -11  11    1.61    0.16   0
  -1  11 -11    1.64    0.15   0
  -1  11 -11    1.58    0.14   0
  -2  11 -11   -0.05    0.16   0
   2 -11  11    0.25    0.15   0
  -2  11 -11    0.08    0.14   0
  -2  11 -11   -0.03    0.14   0
   2 -11  11    0.14    0.11   0
   4  10 -11    0.04    0.15   0
   3  10 -11    2.32    0.15   0
   3  10 -11    2.14    0.15   0
   3  10 -11    2.10    0.18   0
   3  10 -11    2.36    0.15   0
   2  10 -11    0.61    0.14   0
   2  10 -11    0.45    0.12   0
   2  10 -11    0.46    0.15   0
  -2 -10  11    0.73    0.15   0
   2  10 -11    0.34    0.14   0
   1  10 -11   -0.15    0.14   0
   1  10 -11   -0.07    0.15   0
  -1 -10  11    0.17    0.14   0
   1  10 -11   -0.05    0.11   0
   1  10 -11    0.11    0.13   0
   0  10 -11    0.73    0.15   0
   0 -10  11    0.83    0.15   0
   0  10 -11    0.68    0.11   0
   0  10 -11    0.80    0.13   0
  -1  10 -11    1.65    0.15   0
   1 -10  11    1.88    0.15   0
  -1  10 -11    1.89    0.14   0
  -1  10 -11    1.80    0.14   0
  -2  10 -11    5.49    0.13   0
   2 -10  11    6.59    0.14   0
   2 -10  11    5.82    0.17   0
  -2  10 -11    5.80    0.15   0
  -2  10 -11    5.59    0.15   0
  -3  10 -11    1.27    0.15   0
   3 -10  11    1.26    0.15   0
  -3  10 -11    1.17    0.15   0
  -3  10 -11    1.23    0.12   0
   3 -10  11    1.20    0.15   0
  -4  10 -11    0.64    0.15   0
   4 -10  11    0.33    0.12   0
  -4  10 -11    0.47    0.11   0
  -4  10 -11    0.77    0.15   0
   4 -10  11    0.72    0.15   0
   5   9 -11    2.35    0.16   0
   5   9 -11    1.78    0.15   0
   5   9 -11    1.70    0.16   0
   5   9 -11    2.37    0.16   0
   5   9 -11    1.85    0.16   0
   4   9 -11    0.19    0.14   0
   4   9 -11    0.30    0.15   0
   4   9 -11   -0.05    0.14   0
   4   9 -11    0.32    0.16   0
   4   9 -11    0.08    0.17   0
   3   9 -11    0.57    0.14   0
   3   9 -11    0.60    0.15   0
   3   9 -11    0.64    0.14   0
   3   9 -11    0.40    0.14   0
   2   9 -11    0.26    0.14   0
   2   9 -11    0.40    0.14   0
   2   9 -11    0.21    0.14   0
  -2  -9  11    0.32    0.15   0
   2   9 -11    0.27    0.14   0
   1   9 -11    1.91    0.11   0
   1   9 -11    1.90    0.13   0
   1   9 -11    1.88    0.15   0
  -1  -9  11    2.12    0.15   0
   1   9 -11    2.21    0.14   0
   0   9 -11    0.26    0.13   0
   0   9 -11   -0.05    0.13   0
   0   9 -11    0.04    0.15   0
   0  -9  11    0.02    0.14   0
   0   9 -11    0.00    0.14   0
  -1   9 -11    0.65    0.15   0
   1  -9  11    0.74    0.14   0
  -1   9 -11    0.42    0.11   0
  -1   9 -11    0.75    0.13   0
  -2   9 -11    5.67    0.16   0
   2  -9  11    6.14    0.16   0
  -2   9 -11    5.61    0.13   0
  -2   9 -11    5.85    0.15   0
  -3   9 -11    0.48    0.14   0
   3  -9  11    0.69    0.14   0
  -3   9 -11    0.79    0.14   0
  -3   9 -11    0.74    0.15   0
  -4   9 -11    0.41    0.14   0
   4  -9  11   -0.06    0.12   0
  -4   9 -11    0.14    0.14   0
  -4   9 -11    0.04    0.15   0
   6   8 -11    0.07    0.18   0
   5   8 -11   -0.01    0.14   0
   5   8 -11   -0.10    0.15   0
   5   8 -11    0.03    0.15   0
   5   8 -11    0.11    0.14   0
   5   8 -11   -0.03    0.15   0
   4   8 -11   -0.01    0.13   0
   4   8 -11    0.03    0.14   0
   4   8 -11    0.07    0.11   0
   4   8 -11    0.19    0.14   0
   4   8 -11    0.03    0.14   0
   3   8 -11   -0.12    0.13   0
   3   8 -11    0.04    0.13   0
   3   8 -11   -0.03    0.13   0
   3   8 -11    0.18    0.15   0
   2   8 -11    0.67    0.13   0
   2   8 -11    0.67    0.12   0
   2   8 -11    0.83    0.11   0
  -2  -8  11    0.77    0.14   0
   2   8 -11    0.67    0.13   0
   1   8 -11    7.61    0.13   0
   1   8 -11    7.18    0.17   0
   1   8 -11    8.03    0.16   0
  -1  -8  11    8.45    0.17   0
   1   8 -11    7.95    0.14   0
   0   8 -11    0.65    0.12   0
   0   8 -11    0.77    0.15   0
   0   8 -11    0.46    0.10   0
   0  -8  11    0.79    0.14   0
   0   8 -11    0.81    0.13   0
  -1   8 -11    0.26    0.12   0
  -1   8 -11    0.13    0.10   0
  -1   8 -11    0.09    0.14   0
   1  -8  11   -0.06    0.13   0
  -1   8 -11    0.03    0.10   0
  -2   8 -11    0.36    0.10   0
  -2   8 -11    0.04    0.13   0
  -2   8 -11    0.40    0.12   0
   2  -8  11    0.26    0.13   0
  -2   8 -11    0.29    0.13   0
  -3   8 -11    2.51    0.15   0
   3  -8  11    2.26    0.12   0
  -3   8 -11    2.34    0.15   0
  -3   8 -11    2.30    0.14   0
  -4   8 -11    1.78    0.15   0
   4  -8  11    1.66    0.15   0
  -4   8 -11    1.83    0.15   0
  -4   8 -11    1.92    0.14   0
  -5   8 -11    0.94    0.15   0
  -5   8 -11    1.04    0.13   0
   5  -8  11    1.05    0.15   0
  -5   8 -11    0.91    0.15   0
  -5   8 -11    0.67    0.16   0
   6   7 -11    0.89    0.16   0
   6   7 -11    0.96    0.18   0
   6   7 -11    1.02    0.17   0
   6   7 -11    0.98    0.15   0
   6   7 -11    0.72    0.15   0
   5   7 -11    2.25    0.15   0
   5   7 -11    2.22    0.16   0
   5   7 -11    2.35    0.15   0
   5   7 -11    2.16    0.15   0
   5   7 -11    2.46    0.15   0
   4   7 -11    6.09    0.15   0
   4   7 -11    5.94    0.16   0
   4   7 -11    5.31    0.17   0
   4   7 -11    6.42    0.16   0
   4   7 -11    6.99    0.13   0
   3   7 -11    4.60    0.13   0
   3   7 -11    4.52    0.15   0
   3   7 -11    4.88    0.15   0
   3   7 -11    5.14    0.15   0
   2   7 -11   -0.02    0.10   0
   2   7 -11    0.16    0.14   0
  -2  -7  11   -0.14    0.11   0
   2   7 -11    0.06    0.13   0
   2   7 -11    0.13    0.13   0
   1   7 -11    1.40    0.13   0
   1   7 -11    1.12    0.12   0
  -1  -7  11    1.50    0.14   0
   1   7 -11    1.61    0.13   0
   1   7 -11    1.53    0.14   0
   0   7 -11    2.93    0.11   0
   0   7 -11    3.08    0.12   0
   0  -7  11    3.41    0.15   0
   0   7 -11    2.97    0.13   0
   0   7 -11    3.23    0.12   0
  -1   7 -11    0.12    0.13   0
  -1   7 -11    0.10    0.14   0
  -1   7 -11    0.06    0.13   0
   1  -7  11    0.39    0.13   0
  -1   7 -11    0.15    0.13   0
  -2   7 -11    8.70    0.14   0
  -2   7 -11    7.43    0.14   0
  -2   7 -11    8.54    0.16   0
   2  -7  11    8.24    0.14   0
  -2   7 -11    8.40    0.13   0
  -3   7 -11    1.94    0.13   0
  -3   7 -11    2.00    0.12   0
   3  -7  11    2.00    0.14   0
  -3   7 -11    2.21    0.14   0
  -3   7 -11    2.12    0.14   0
  -4   7 -11    5.11    0.15   0
  -4   7 -11    4.24    0.16   0
   4  -7  11    4.55    0.13   0
  -4   7 -11    4.70    0.16   0
  -4   7 -11    4.94    0.16   0
  -5   7 -11    0.08    0.16   0
  -5   7 -11    0.14    0.15   0
   5  -7  11   -0.01    0.15   0
  -5   7 -11    0.11    0.14   0
  -5   7 -11    0.08    0.15   0
   7   6 -11    1.32    0.17   0
   7   6 -11    1.03    0.16   0
   7   6 -11    1.37    0.18   0
   7   6 -11    1.48    0.18   0
   7   6 -11    1.36    0.16   0
   6   6 -11    1.10    0.15   0
   6   6 -11    0.99    0.15   0
   6   6 -11    1.03    0.16   0
   6   6 -11    1.01    0.17   0
   6   6 -11    1.00    0.17   0
   5   6 -11    0.49    0.15   0
   5   6 -11    0.78    0.12   0
   5   6 -11    0.76    0.13   0
   5   6 -11    0.99    0.15   0
   5   6 -11    0.69    0.16   0
   4   6 -11    5.02    0.15   0
   4   6 -11    4.78    0.15   0
   4   6 -11    4.60    0.16   0
   4   6 -11    4.77    0.16   0
   4   6 -11    4.17    0.16   0
   3   6 -11    2.68    0.14   0
   3   6 -11    2.61    0.12   0
   3   6 -11    2.69    0.15   0
   3   6 -11    2.66    0.14   0
   2   6 -11    1.88    0.13   0
   2   6 -11    1.72    0.14   0
  -2  -6  11    2.09    0.14   0
   2   6 -11    2.06    0.13   0
   2   6 -11    1.64    0.11   0
   1   6 -11    2.12    0.11   0
   1   6 -11    2.17    0.12   0
  -1  -6  11    2.45    0.14   0
   1   6 -11    2.47    0.14   0
   1   6 -11    2.25    0.13   0
   0   6 -11    1.06    0.13   0
   0   6 -11    1.10    0.14   0
   0  -6  11    1.31    0.14   0
   0   6 -11    0.95    0.14   0
   0   6 -11    1.09    0.11   0
  -1   6 -11   29.97    0.21   0
  -1   6 -11   27.24    0.21   0
   1  -6  11   30.20    0.21   0
  -1   6 -11   29.32    0.21   0
  -1   6 -11   29.33    0.21   0
  -2   6 -11    0.89    0.13   0
  -2   6 -11    1.06    0.14   0
  -2   6 -11    0.80    0.14   0
   2  -6  11    1.27    0.14   0
  -2   6 -11    0.89    0.13   0
  -3   6 -11    0.68    0.13   0
  -3   6 -11    0.45    0.11   0
  -3   6 -11    0.84    0.14   0
   3  -6  11    0.53    0.14   0
  -3   6 -11    0.60    0.11   0
  -4   6 -11    0.15    0.15   0
  -4   6 -11    0.01    0.15   0
   4  -6  11    0.21    0.14   0
  -4   6 -11   -0.13    0.14   0
  -4   6 -11   -0.06    0.13   0
  -5   6 -11    0.80    0.15   0
  -5   6 -11    1.18    0.14   0
   5  -6  11    1.20    0.15   0
  -5   6 -11    0.82    0.14   0
  -5   6 -11    0.65    0.15   0
  -6   6 -11    0.19    0.15   0
   6  -6  11    0.26    0.15   0
  -6   6 -11    0.13    0.15   0
   7   5 -11    4.35    0.17   0
   7   5 -11    4.20    0.19   0
   7   5 -11    5.06    0.19   0
   7   5 -11    4.33    0.22   0
   7   5 -11    4.12    0.17   0
   6   5 -11    1.65    0.15   0
   6   5 -11    1.89    0.15   0
   6   5 -11    1.94    0.15   0
   6   5 -11    1.89    0.17   0
   6   5 -11    1.48    0.15   0
   5   5 -11    1.04    0.14   0
   5   5 -11    1.21    0.15   0
   5   5 -11    1.07    0.16   0
   5   5 -11    1.13    0.14   0
   5   5 -11    0.88    0.14   0
   4   5 -11    0.64    0.13   0
   4   5 -11    0.57    0.14   0
   4   5 -11    0.71    0.15   0
   4   5 -11    0.61    0.14   0
   4   5 -11    0.85    0.14   0
   3   5 -11    2.22    0.13   0
   3   5 -11    2.24    0.14   0
   3   5 -11    2.58    0.14   0
   3   5 -11    2.25    0.14   0
   3   5 -11    2.31    0.12   0
   2   5 -11    5.09    0.12   0
   2   5 -11    5.26    0.15   0
   2   5 -11    4.89    0.12   0
  -2  -5  11    5.56    0.15   0
   2   5 -11    5.61    0.15   0
   1   5 -11    2.02    0.12   0
   1   5 -11    2.01    0.12   0
   1   5 -11    2.03    0.13   0
  -1  -5  11    2.12    0.14   0
   1   5 -11    1.95    0.12   0
   0   5 -11    3.50    0.14   0
   0   5 -11    3.26    0.12   0
   0  -5  11    3.61    0.14   0
   0   5 -11    3.73    0.14   0
   0   5 -11    3.40    0.12   0
  -1   5 -11   16.71    0.18   0
  -1   5 -11   15.45    0.19   0
   1  -5  11   17.09    0.19   0
  -1   5 -11   16.80    0.18   0
  -1   5 -11   15.85    0.16   0
  -2   5 -11    0.21    0.10   0
  -2   5 -11    0.08    0.14   0
   2  -5  11    0.06    0.12   0
  -2   5 -11    0.35    0.10   0
   2  -5  11    0.34    0.10   0
  -2   5 -11    0.20    0.13   0
  -3   5 -11    0.49    0.15   0
  -3   5 -11    0.37    0.15   0
  -3   5 -11    0.58    0.13   0
   3  -5  11    0.31    0.14   0
   3  -5  11    0.34    0.13   0
  -3   5 -11    0.31    0.13   0
  -4   5 -11    5.95    0.16   0
  -4   5 -11    5.72    0.14   0
  -4   5 -11    6.54    0.17   0
   4  -5  11    5.89    0.14   0
   4  -5  11    6.47    0.17   0
  -4   5 -11    5.72    0.17   0
  -5   5 -11    1.31    0.12   0
  -5   5 -11    1.21    0.16   0
   5  -5  11    1.29    0.15   0
   5  -5  11    1.33    0.15   0
  -5   5 -11    1.38    0.14   0
  -5   5 -11    1.10    0.15   0
  -6   5 -11    0.31    0.16   0
  -6   5 -11    0.16    0.17   0
   6  -5  11    0.20    0.15   0
   6  -5  11    0.13    0.15   0
  -6   5 -11    0.18    0.15   0
  -6   5 -11    0.18    0.15   0
   8   4 -11    0.29    0.16   0
   8   4 -11    0.14    0.18   0
   8   4 -11    0.21    0.24   0
   8   4 -11    0.26    0.16   0
   8   4 -11    0.17    0.15   0
   7   4 -11    1.75    0.15   0
   7   4 -11    1.45    0.15   0
   7   4 -11    1.21    0.15   0
   7   4 -11    1.32    0.22   0
   7   4 -11    1.10    0.15   0
   6   4 -11    1.19    0.12   0
   6   4 -11    1.46    0.14   0
   6   4 -11    1.43    0.15   0
   6   4 -11    1.47    0.17   0
   6   4 -11    1.06    0.12   0
   5   4 -11    0.38    0.14   0
   5   4 -11    0.57    0.14   0
   5   4 -11    0.45    0.14   0
   5   4 -11    0.31    0.17   0
   5   4 -11    0.57    0.14   0
   4   4 -11    1.08    0.14   0
   4   4 -11    0.93    0.12   0
   4   4 -11    0.81    0.14   0
   4   4 -11    0.92    0.13   0
   4   4 -11    1.03    0.14   0
   3   4 -11    1.91    0.13   0
   3   4 -11    1.89    0.14   0
   3   4 -11    1.89    0.13   0
   3   4 -11    1.75    0.14   0
   3   4 -11    1.90    0.16   0
   2   4 -11   11.27    0.15   0
   2   4 -11   11.74    0.16   0
   2   4 -11   10.27    0.16   0
  -2  -4  11   11.13    0.15   0
   2   4 -11   11.10    0.17   0
   1   4 -11    3.29    0.14   0
   1   4 -11    3.18    0.14   0
  -1  -4  11    3.02    0.14   0
   1   4 -11    2.89    0.11   0
   1   4 -11    3.07    0.13   0
   0   4 -11    9.75    0.16   0
   0   4 -11    8.76    0.17   0
   0   4 -11    9.36    0.16   0
   0  -4  11   10.19    0.17   0
   0  -4  11    9.73    0.16   0
   0   4 -11    9.78    0.17   0
  -1   4 -11    1.58    0.12   0
  -1   4 -11    1.56    0.14   0
  -1   4 -11    1.53    0.15   0
   1  -4  11    1.48    0.14   0
   1  -4  11    1.59    0.14   0
  -1   4 -11    1.62    0.14   0
  -2   4 -11   31.07    0.22   0
  -2   4 -11   29.02    0.22   0
   2  -4  11   31.42    0.22   0
   2  -4  11   29.95    0.20   0
  -2   4 -11   30.68    0.22   0
  -2   4 -11   30.89    0.22   0
  -3   4 -11    0.80    0.14   0
  -3   4 -11    0.87    0.13   0
   3  -4  11    0.75    0.12   0
  -3   4 -11    0.89    0.15   0
   3  -4  11    0.79    0.13   0
  -3   4 -11    0.66    0.11   0
  -4   4 -11   -0.04    0.13   0
  -4   4 -11    0.11    0.13   0
  -4   4 -11    0.08    0.15   0
   4  -4  11    0.10    0.13   0
   4  -4  11    0.05    0.11   0
  -4   4 -11    0.02    0.14   0
  -5   4 -11    2.39    0.15   0
  -5   4 -11    2.60    0.15   0
   5  -4  11    2.54    0.15   0
   5  -4  11    2.32    0.13   0
  -5   4 -11    2.41    0.17   0
  -5   4 -11    2.21    0.12   0
  -6   4 -11    1.59    0.17   0
  -6   4 -11    1.52    0.20   0
   6  -4  11    1.63    0.17   0
   6  -4  11    1.44    0.16   0
  -6   4 -11    1.62    0.18   0
  -6   4 -11    1.65    0.16   0
   8   3 -11   -0.00    0.15   0
   8   3 -11    0.04    0.16   0
   8   3 -11    0.30    0.17   0
   8   3 -11   -0.03    0.15   0
   7   3 -11    0.36    0.15   0
   7   3 -11    0.15    0.15   0
   7   3 -11    0.26    0.22   0
   7   3 -11    0.36    0.14   0
   7   3 -11    0.31    0.14   0
   6   3 -11    0.32    0.14   0
   6   3 -11    0.37    0.13   0
   6   3 -11    0.42    0.14   0
   6   3 -11    0.19    0.18   0
   6   3 -11    0.21    0.14   0
   5   3 -11   15.60    0.19   0
   5   3 -11   15.93    0.19   0
   5   3 -11   18.24    0.20   0
   5   3 -11   16.32    0.25   0
   5   3 -11   15.24    0.19   0
   4   3 -11   13.59    0.18   0
   4   3 -11   12.89    0.18   0
   4   3 -11   14.72    0.16   0
   4   3 -11   14.25    0.20   0
   4   3 -11   13.24    0.18   0
   3   3 -11    3.42    0.14   0
   3   3 -11    3.24    0.14   0
   3   3 -11    3.11    0.15   0
   3   3 -11    3.32    0.14   0
   3   3 -11    3.33    0.15   0
   2   3 -11    0.19    0.12   0
   2   3 -11   -0.09    0.13   0
   2   3 -11    0.27    0.14   0
   2   3 -11    0.29    0.13   0
   1   3 -11    1.63    0.13   0
   1   3 -11    1.57    0.15   0
  -1  -3  11    1.92    0.14   0
  -1  -3  11    1.41    0.14   0
   1   3 -11    1.60    0.13   0
   1   3 -11    1.71    0.15   0
   0   3 -11   22.20    0.20   0
   0   3 -11   20.16    0.21   0
   0  -3  11   22.14    0.21   0
   0  -3  11   21.16    0.18   0
   0   3 -11   22.20    0.21   0
   0   3 -11   21.49    0.18   0
  -1   3 -11    9.55    0.16   0
  -1   3 -11    8.74    0.17   0
   1  -3  11   10.01    0.17   0
  -1   3 -11    9.59    0.14   0
   1  -3  11    9.65    0.14   0
  -1   3 -11    9.97    0.15   0
  -2   3 -11    6.24    0.17   0
  -2   3 -11    5.75    0.16   0
  -2   3 -11    6.60    0.15   0
   2  -3  11    6.18    0.16   0
   2  -3  11    6.18    0.13   0
  -2   3 -11    6.47    0.16   0
  -3   3 -11    0.18    0.14   0
  -3   3 -11    0.01    0.13   0
   3  -3  11   -0.18    0.11   0
   3  -3  11    0.18    0.13   0
  -3   3 -11    0.11    0.15   0
  -3   3 -11    0.08    0.13   0
  -4   3 -11    0.43    0.14   0
  -4   3 -11    0.35    0.16   0
  -4   3 -11    0.25    0.13   0
   4  -3  11    0.59    0.14   0
   4  -3  11    0.69    0.14   0
  -4   3 -11    0.54    0.14   0
  -5   3 -11    1.46    0.15   0
  -5   3 -11    1.50    0.19   0
   5  -3  11    1.68    0.15   0
   5  -3  11    1.66    0.13   0
  -5   3 -11    1.47    0.13   0
  -5   3 -11    1.58    0.17   0
  -6   3 -11    2.00    0.16   0
  -6   3 -11    1.83    0.20   0
   6  -3  11    2.07    0.16   0
   6  -3  11    1.96    0.14   0
  -6   3 -11    1.82    0.20   0
  -6   3 -11    1.72    0.15   0
   8   2 -11    0.78    0.16   0
   8   2 -11    0.77    0.15   0
   8   2 -11    0.44    0.15   0
   7   2 -11    0.14    0.15   0
   7   2 -11    0.40    0.15   0
   7   2 -11    0.24    0.12   0
   7   2 -11    0.22    0.26   0
  -6  -2  11    0.10    0.13   0
   6   2 -11    0.46    0.14   0
   6   2 -11    0.09    0.14   0
   6   2 -11    0.41    0.14   0
   6   2 -11    0.11    0.20   0
  -5  -2  11    0.11    0.14   0
   5   2 -11    0.14    0.14   0
   5   2 -11    0.09    0.14   0
   5   2 -11    0.12    0.17   0
   5   2 -11    0.05    0.11   0
  -4  -2  11    0.55    0.13   0
   4   2 -11    0.64    0.13   0
   4   2 -11    0.71    0.14   0
   4   2 -11    0.52    0.13   0
   4   2 -11    0.57    0.17   0
   3   2 -11    0.12    0.13   0
   3   2 -11    0.18    0.13   0
   3   2 -11   -0.06    0.13   0
   3   2 -11    0.09    0.16   0
   2   2 -11   39.58    0.22   0
   2   2 -11   37.15    0.22   0
  -2  -2  11   38.40    0.25   0
   2   2 -11   38.64    0.24   0
   2   2 -11   40.49    0.27   0
   1   2 -11   18.06    0.19   0
   1   2 -11   16.65    0.20   0
  -1  -2  11   17.69    0.17   0
  -1  -2  11   17.73    0.19   0
   1   2 -11   18.40    0.19   0
   1   2 -11   18.52    0.21   0
   0   2 -11   25.69    0.22   0
   0   2 -11   26.66    0.19   0
   0  -2  11   28.00    0.22   0
   0  -2  11   27.24    0.21   0
   0   2 -11   28.64    0.22   0
   0   2 -11   28.37    0.21   0
  -1   2 -11   -0.05    0.13   0
  -1   2 -11    0.25    0.14   0
  -1   2 -11    0.15    0.13   0
   1  -2  11    0.23    0.14   0
   1  -2  11    0.09    0.13   0
  -1   2 -11    0.03    0.13   0
  -2   2 -11    0.10    0.14   0
  -2   2 -11    0.02    0.13   0
  -2   2 -11   -0.11    0.13   0
   2  -2  11    0.26    0.13   0
   2  -2  11    0.26    0.11   0
  -2   2 -11   -0.01    0.13   0
  -3   2 -11    1.22    0.15   0
  -3   2 -11    1.40    0.15   0
   3  -2  11    1.42    0.14   0
   3  -2  11    1.35    0.13   0
  -3   2 -11    1.49    0.15   0
  -3   2 -11    1.63    0.13   0
  -4   2 -11    2.09    0.16   0
  -4   2 -11    2.26    0.14   0
   4  -2  11    2.16    0.15   0
  -4   2 -11    2.01    0.16   0
   4  -2  11    2.30    0.15   0
  -4   2 -11    2.02    0.12   0
  -5   2 -11    0.36    0.15   0
  -5   2 -11    0.13    0.16   0
   5  -2  11    0.49    0.14   0
   5  -2  11    0.26    0.15   0
  -5   2 -11    0.22    0.12   0
  -5   2 -11    0.22    0.18   0
   6  -2  11    0.56    0.16   0
   6  -2  11    0.29    0.16   0
  -8  -1  11    1.11    0.15   0
   8   1 -11    1.19    0.13   0
   8   1 -11    1.15    0.16   0
   8   1 -11    0.95    0.13   0
  -7  -1  11    0.54    0.14   0
   7   1 -11    0.48    0.12   0
   7   1 -11    0.62    0.15   0
   7   1 -11    0.66    0.12   0
  -6  -1  11    0.41    0.13   0
   6   1 -11    0.31    0.11   0
   6   1 -11    0.60    0.14   0
   6   1 -11    0.44    0.13   0
   6   1 -11    0.39    0.20   0
  -5  -1  11    0.63    0.11   0
   5   1 -11    0.60    0.13   0
   5   1 -11    0.81    0.14   0
   5   1 -11    0.86    0.13   0
   5   1 -11    0.68    0.19   0
  -4  -1  11    5.11    0.15   0
   4   1 -11    4.84    0.14   0
   4   1 -11    5.12    0.15   0
   4   1 -11    4.68    0.15   0
   4   1 -11    5.13    0.18   0
  -3  -1  11    1.70    0.13   0
   3   1 -11    1.69    0.12   0
   3   1 -11    1.56    0.13   0
  -3  -1  11    1.49    0.16   0
   3   1 -11    1.67    0.14   0
   3   1 -11    1.91    0.14   0
  -2  -1  11    0.33    0.14   0
   2   1 -11    0.40    0.14   0
   2   1 -11    0.24    0.13   0
  -2  -1  11    0.51    0.13   0
   2   1 -11    0.39    0.15   0
   2   1 -11    0.41    0.14   0
  -1  -1  11    3.89    0.13   0
   1   1 -11    3.56    0.16   0
   1   1 -11    3.97    0.13   0
  -1  -1  11    4.01    0.15   0
   1   1 -11    4.05    0.16   0
   1   1 -11    4.15    0.16   0
   0   1 -11    0.55    0.14   0
   0   1 -11    0.84    0.13   0
   0  -1  11    0.65    0.14   0
   0   1 -11    0.88    0.13   0
   0  -1  11    0.72    0.13   0
   0   1 -11    0.76    0.14   0
  -1   1 -11    3.31    0.14   0
  -1   1 -11    2.77    0.15   0
  -1   1 -11    3.28    0.14   0
   1  -1  11    3.08    0.15   0
   1  -1  11    2.99    0.14   0
  -1   1 -11    2.93    0.14   0
  -2   1 -11    5.77    0.17   0
  -2   1 -11    6.45    0.15   0
   2  -1  11    6.72    0.16   0
   2  -1  11    6.25    0.16   0
  -2   1 -11    6.20    0.14   0
  -2   1 -11    6.85    0.15   0
  -3   1 -11    0.31    0.15   0
  -3   1 -11    0.27    0.14   0
  -3   1 -11    0.34    0.13   0
   3  -1  11    0.42    0.14   0
   3  -1  11    0.45    0.14   0
  -3   1 -11    0.17    0.11   0
  -4   1 -11    3.18    0.18   0
   4  -1  11    3.28    0.18   0
  -4   1 -11    3.18    0.18   0
  -4   1 -11    3.06    0.17   0
   4  -1  11    3.44    0.16   0
  -4   1 -11    3.25    0.15   0
  -5   1 -11   -0.09    0.15   0
  -5   1 -11    0.13    0.18   0
  -5   1 -11    0.30    0.15   0
   5  -1  11   -0.02    0.17   0
  -5   1 -11    0.03    0.19   0
   5  -1  11    0.03    0.15   0
  -8   0  11    0.39    0.14   0
   8   0 -11    0.48    0.15   0
   8   0 -11    0.51    0.15   0
   8   0 -11    0.32    0.12   0
  -7   0  11    0.90    0.13   0
   7   0 -11    0.93    0.12   0
   7   0 -11    0.90    0.15   0
   7   0 -11    1.31    0.14   0
  -6   0  11    1.96    0.12   0
   6   0 -11    1.96    0.14   0
   6   0 -11    2.10    0.15   0
   6   0 -11    2.21    0.14   0
  -5   0  11    0.24    0.13   0
   5   0 -11    0.23    0.13   0
   5   0 -11    0.30    0.14   0
   5   0 -11    0.28    0.13   0
   5   0 -11    0.31    0.18   0
  -4   0  11    1.81    0.11   0
   4   0 -11    1.58    0.14   0
   4   0 -11    1.90    0.11   0
  -4   0  11    1.67    0.16   0
   4   0 -11    1.76    0.11   0
   4   0 -11    1.99    0.17   0
  -3   0  11    8.41    0.16   0
   3   0 -11    7.84    0.14   0
   3   0 -11    8.59    0.16   0
  -3   0  11    8.27    0.17   0
   3   0 -11    7.54    0.16   0
   3   0 -11    8.78    0.19   0
  -2   0  11    0.20    0.13   0
   2   0 -11    0.33    0.12   0
   2   0 -11    0.24    0.13   0
  -2   0  11    0.35    0.13   0
   2   0 -11    0.30    0.14   0
   2   0 -11    0.21    0.14   0
  -1   0  11    6.90    0.15   0
   1   0 -11    6.41    0.16   0
   1   0 -11    6.96    0.16   0
  -1   0  11    6.36    0.15   0
   1   0 -11    6.68    0.16   0
   1   0 -11    7.10    0.16   0
   0   0  11    8.83    0.16   0
   0   0 -11    8.07    0.17   0
   0   0 -11    9.17    0.16   0
   0   0  11    9.60    0.16   0
   0   0 -11    9.06    0.17   0
   0   0 -11    9.44    0.17   0
  -1   0 -11    0.18    0.14   0
  -1   0 -11   -0.18    0.13   0
  -1   0 -11    0.08    0.13   0
   1   0  11    0.18    0.14   0
   1   0  11    0.12    0.11   0
  -1   0 -11   -0.11    0.13   0
  -2   0 -11    0.63    0.17   0
  -2   0 -11    0.86    0.16   0
   2   0  11    0.47    0.14   0
  -2   0 -11    0.81    0.16   0
   2   0  11    0.86    0.14   0
  -2   0 -11    0.55    0.11   0
  -3   0 -11    0.00    0.14   0
  -3   0 -11    0.14    0.15   0
   3   0  11    0.12    0.15   0
  -3   0 -11    0.11    0.16   0
   3   0  11    0.19    0.14   0
  -3   0 -11    0.21    0.13   0
  -4   0 -11    4.02    0.19   0
   4   0  11    4.55    0.18   0
  -4   0 -11    4.49    0.19   0
   4   0  11    4.28    0.16   0
  -4   0 -11    4.56    0.20   0
  -5   0 -11    0.21    0.18   0
  -5   0 -11   -0.04    0.19   0
   5   0  11    0.01    0.18   0
   5   0  11    0.12    0.16   0
  -5   0 -11    0.15    0.21   0
  -8   1  11   -0.04    0.14   0
   8  -1 -11    0.10    0.12   0
   8  -1 -11    0.19    0.12   0
   8  -1 -11    0.12    0.12   0
  -7   1  11    1.19    0.14   0
   7  -1 -11    1.05    0.12   0
   7  -1 -11    0.94    0.15   0
   7  -1 -11    1.18    0.14   0
  -6   1  11    0.44    0.11   0
   6  -1 -11    0.33    0.11   0
   6  -1 -11    0.33    0.14   0
   6  -1 -11    0.50    0.13   0
  -5   1  11    1.62    0.13   0
   5  -1 -11    1.37    0.14   0
  -5   1  11    1.21    0.16   0
   5  -1 -11    1.66    0.14   0
   5  -1 -11    1.24    0.14   0
  -4   1  11    0.28    0.11   0
   4  -1 -11    0.38    0.13   0
   4  -1 -11    0.39    0.13   0
  -4   1  11    0.32    0.15   0
   4  -1 -11    0.35    0.11   0
  -3   1  11    0.79    0.14   0
   3  -1 -11    1.09    0.14   0
   3  -1 -11    0.83    0.14   0
  -3   1  11    1.03    0.14   0
   3  -1 -11    0.89    0.14   0
   3  -1 -11    1.10    0.17   0
  -2   1  11    2.91    0.14   0
   2  -1 -11    2.88    0.15   0
   2  -1 -11    3.46    0.15   0
  -2   1  11    2.98    0.14   0
   2  -1 -11    3.07    0.15   0
   2  -1 -11    3.10    0.15   0
  -1   1  11    0.24    0.13   0
   1  -1 -11    0.25    0.14   0
   1  -1 -11    0.33    0.14   0
  -1   1  11    0.26    0.13   0
   1  -1 -11    0.48    0.13   0
   1  -1 -11    0.23    0.14   0
   0   1  11    3.29    0.14   0
   0  -1 -11    2.68    0.17   0
   0  -1 -11    3.09    0.15   0
   0   1  11    3.04    0.14   0
   0  -1 -11    3.27    0.15   0
   0  -1 -11    3.06    0.14   0
  -1  -1 -11   -0.23    0.16   0
  -1  -1 -11    0.14    0.14   0
   1   1  11    0.23    0.11   0
  -1  -1 -11    0.28    0.12   0
  -1  -1 -11   -0.08    0.11   0
  -2  -1 -11    0.75    0.16   0
  -2  -1 -11    0.95    0.16   0
   2   1  11    0.87    0.14   0
  -2  -1 -11    0.60    0.13   0
  -3  -1 -11    0.34    0.14   0
   3   1  11    0.15    0.16   0
  -3  -1 -11    0.27    0.16   0
   3   1  11    0.64    0.14   0
  -3  -1 -11    0.35    0.16   0
  -4  -1 -11    7.38    0.21   0
   4   1  11    8.28    0.21   0
   4   1  11    7.63    0.17   0
  -4  -1 -11    7.69    0.23   0
  -4  -1 -11    7.67    0.22   0
  -5  -1 -11   14.01    0.24   0
  -5  -1 -11   13.65    0.31   0
   5   1  11   15.54    0.25   0
   5   1  11   14.15    0.20   0
  -5  -1 -11   13.88    0.33   0
  -8   2  11    2.77    0.15   0
   8  -2 -11    2.39    0.16   0
   8  -2 -11    2.95    0.16   0
  -7   2  11    0.29    0.14   0
   7  -2 -11    0.40    0.14   0
   7  -2 -11    0.01    0.14   0
  -6   2  11    0.08    0.13   0
   6  -2 -11   -0.06    0.13   0
   6  -2 -11   -0.15    0.14   0
   6  -2 -11    0.27    0.14   0
  -5   2  11    2.29    0.13   0
   5  -2 -11    1.89    0.15   0
  -5   2  11    2.02    0.19   0
   5  -2 -11    1.90    0.15   0
   5  -2 -11    1.89    0.12   0
  -4   2  11    0.38    0.13   0
   4  -2 -11    0.56    0.14   0
   4  -2 -11    0.55    0.12   0
  -4   2  11    0.43    0.16   0
   4  -2 -11    0.89    0.14   0
  -3   2  11    0.27    0.11   0
   3  -2 -11    0.09    0.14   0
   3  -2 -11    0.39    0.14   0
  -3   2  11    0.20    0.13   0
   3  -2 -11    0.26    0.14   0
  -2   2  11   24.26    0.21   0
   2  -2 -11   22.48    0.22   0
   2  -2 -11   25.00    0.22   0
  -2   2  11   23.39    0.23   0
   2  -2 -11   24.39    0.22   0
  -1   2  11    0.74    0.13   0
   1  -2 -11    0.75    0.14   0
   1  -2 -11    0.94    0.14   0
  -1   2  11    0.69    0.13   0
   1  -2 -11    0.57    0.14   0
   0   2  11    1.07    0.13   0
   0  -2 -11    0.96    0.16   0
   0  -2 -11    1.22    0.14   0
   0   2  11    1.03    0.14   0
   0  -2 -11    1.16    0.14   0
   1   2  11    0.27    0.13   0
  -1  -2 -11    0.27    0.16   0
  -1  -2 -11    0.16    0.16   0
   1   2  11    0.28    0.14   0
  -1  -2 -11    0.33    0.16   0
  -2  -2 -11    0.60    0.17   0
  -2  -2 -11    0.44    0.16   0
   2   2  11    0.54    0.14   0
  -2  -2 -11    0.57    0.16   0
  -3  -2 -11    0.25    0.19   0
  -3  -2 -11    0.04    0.17   0
   3   2  11    0.30    0.14   0
  -3  -2 -11    0.21    0.16   0
  -3  -2 -11    0.32    0.17   0
  -4  -2 -11    0.02    0.20   0
  -4  -2 -11   -0.05    0.20   0
   4   2  11   -0.09    0.15   0
  -4  -2 -11    0.09    0.20   0
  -4  -2 -11    0.04    0.19   0
  -8   3  11    0.47    0.14   0
   8  -3 -11    0.46    0.15   0
   8  -3 -11    0.64    0.13   0
  -7   3  11    0.14    0.14   0
   7  -3 -11    0.16    0.12   0
   7  -3 -11    0.61    0.15   0
  -6   3  11    2.59    0.14   0
  -6   3  11    2.24    0.21   0
   6  -3 -11    2.28    0.13   0
   6  -3 -11    2.33    0.15   0
  -5   3  11    1.64    0.13   0
   5  -3 -11    1.43    0.14   0
  -5   3  11    1.56    0.19   0
   5  -3 -11    1.52    0.14   0
   5  -3 -11    1.76    0.13   0
  -4   3  11    7.12    0.13   0
   4  -3 -11    7.36    0.16   0
  -4   3  11    6.98    0.19   0
   4  -3 -11    6.70    0.16   0
   4  -3 -11    7.66    0.17   0
  -3   3  11    0.61    0.14   0
   3  -3 -11    0.43    0.14   0
   3  -3 -11    0.75    0.14   0
  -3   3  11    0.61    0.16   0
   3  -3 -11    0.57    0.13   0
  -2   3  11    1.15    0.13   0
   2  -3 -11    1.12    0.14   0
   2  -3 -11    1.28    0.15   0
  -2   3  11    1.11    0.14   0
   2  -3 -11    1.04    0.14   0
  -1   3  11    0.42    0.13   0
   1  -3 -11    0.27    0.13   0
   1  -3 -11    0.40    0.14   0
  -1   3  11    0.29    0.13   0
   1  -3 -11    0.31    0.14   0
   0   3  11    6.43    0.16   0
   0  -3 -11    5.50    0.17   0
   0  -3 -11    6.45    0.18   0
   0   3  11    6.57    0.16   0
   0  -3 -11    6.34    0.19   0
   1   3  11    3.48    0.14   0
  -1  -3 -11    3.17    0.18   0
  -1  -3 -11    3.12    0.14   0
   1   3  11    3.36    0.15   0
  -1  -3 -11    3.68    0.18   0
   2   3  11    3.14    0.17   0
  -2  -3 -11    2.97    0.19   0
   2   3  11    3.47    0.15   0
  -2  -3 -11    3.51    0.19   0
  -2  -3 -11    3.14    0.17   0
  -3  -3 -11    0.11    0.16   0
  -3  -3 -11   -0.10    0.19   0
   3   3  11    0.17    0.15   0
  -3  -3 -11    0.08    0.17   0
  -3  -3 -11    0.12    0.18   0
  -4  -3 -11    0.19    0.23   0
  -4  -3 -11    0.28    0.23   0
  -4  -3 -11    0.23    0.21   0
   4   3  11    0.35    0.15   0
  -4  -3 -11    0.22    0.22   0
  -8   4  11    0.38    0.12   0
  -8   4  11    0.36    0.15   0
   8  -4 -11    0.68    0.16   0
   8  -4 -11    0.51    0.15   0
  -7   4  11    0.42    0.14   0
   7  -4 -11    0.39    0.15   0
   7  -4 -11    0.41    0.15   0
  -6   4  11    0.35    0.14   0
  -6   4  11    0.22    0.20   0
   6  -4 -11    0.32    0.14   0
   6  -4 -11    0.16    0.12   0
  -5   4  11    2.24    0.14   0
   5  -4 -11    2.14    0.12   0
  -5   4  11    2.23    0.19   0
   5  -4 -11    2.41    0.15   0
   5  -4 -11    2.37    0.15   0
  -4   4  11    1.91    0.14   0
   4  -4 -11    1.35    0.12   0
  -4   4  11    1.43    0.16   0
   4  -4 -11    1.72    0.12   0
   4  -4 -11    1.65    0.15   0
  -3   4  11    4.59    0.15   0
   3  -4 -11    4.20    0.15   0
  -3   4  11    4.09    0.16   0
   3  -4 -11    3.96    0.16   0
   3  -4 -11    4.41    0.16   0
  -2   4  11    0.98    0.11   0
   2  -4 -11    0.76    0.15   0
  -2   4  11    1.09    0.14   0
   2  -4 -11    0.88    0.15   0
   2  -4 -11    1.13    0.15   0
  -1   4  11    2.20    0.14   0
   1  -4 -11    2.12    0.15   0
  -1   4  11    2.17    0.15   0
   1  -4 -11    2.17    0.15   0
   1  -4 -11    2.63    0.15   0
   0   4  11    3.75    0.15   0
   0  -4 -11    3.49    0.18   0
   0   4  11    3.83    0.13   0
   0  -4 -11    3.78    0.16   0
   0  -4 -11    4.08    0.19   0
   1   4  11    0.15    0.13   0
  -1  -4 -11    0.08    0.17   0
   1   4  11    0.00    0.14   0
  -1  -4 -11    0.12    0.19   0
  -1  -4 -11    0.21    0.14   0
   2   4  11    0.11    0.16   0
  -2  -4 -11    0.08    0.19   0
   2   4  11    0.32    0.14   0
  -2  -4 -11    0.21    0.17   0
  -2  -4 -11    0.05    0.17   0
  -3  -4 -11    0.59    0.20   0
  -3  -4 -11    0.49    0.22   0
  -3  -4 -11    0.44    0.19   0
   3   4  11    0.46    0.15   0
  -3  -4 -11    0.68    0.22   0
  -7   5  11    0.53    0.14   0
  -7   5  11    0.68    0.15   0
   7  -5 -11    0.57    0.16   0
   7  -5 -11    0.44    0.16   0
  -6   5  11    0.32    0.14   0
  -6   5  11    0.49    0.19   0
   6  -5 -11    0.50    0.15   0
   6  -5 -11    0.33    0.13   0
  -5   5  11    0.54    0.13   0
   5  -5 -11    0.30    0.14   0
  -5   5  11    0.49    0.18   0
   5  -5 -11    0.57    0.14   0
   5  -5 -11    0.62    0.15   0
  -4   5  11    3.20    0.12   0
   4  -5 -11    3.03    0.15   0
  -4   5  11    2.93    0.16   0
   4  -5 -11    3.07    0.16   0
   4  -5 -11    3.41    0.16   0
  -3   5  11    0.25    0.13   0
   3  -5 -11    0.11    0.14   0
  -3   5  11   -0.02    0.15   0
   3  -5 -11    0.12    0.11   0
   3  -5 -11    0.13    0.15   0
  -2   5  11    0.54    0.14   0
   2  -5 -11    0.49    0.14   0
  -2   5  11    0.19    0.17   0
   2  -5 -11    0.43    0.14   0
   2  -5 -11    0.83    0.17   0
  -1   5  11    0.69    0.14   0
   1  -5 -11    0.47    0.17   0
  -1   5  11    0.51    0.14   0
   1  -5 -11    0.55    0.18   0
   1  -5 -11    0.64    0.14   0
   0   5  11    1.97    0.15   0
   0  -5 -11    1.96    0.18   0
   0   5  11    1.86    0.16   0
   0  -5 -11    2.18    0.18   0
   0  -5 -11    1.84    0.15   0
   1   5  11    0.05    0.14   0
  -1  -5 -11    0.24    0.19   0
   1   5  11    0.17    0.15   0
  -1  -5 -11    0.23    0.20   0
  -1  -5 -11    0.11    0.16   0
   2   5  11    0.50    0.17   0
  -2  -5 -11    0.35    0.19   0
  -2  -5 -11    0.56    0.22   0
   2   5  11    0.45    0.13   0
  -2  -5 -11    0.57    0.22   0
  -7   6  11    0.94    0.14   0
  -7   6  11    0.81    0.26   0
  -7   6  11    0.81    0.15   0
   7  -6 -11    0.90    0.13   0
   7  -6 -11    0.84    0.15   0
  -6   6  11    0.27    0.14   0
  -6   6  11    0.41    0.19   0
   6  -6 -11    0.44    0.16   0
   6  -6 -11    0.05    0.15   0
  -5   6  11    0.23    0.14   0
  -5   6  11    0.27    0.17   0
   5  -6 -11    0.26    0.15   0
   5  -6 -11    0.55    0.15   0
  -4   6  11    1.47    0.15   0
   4  -6 -11    1.35    0.15   0
  -4   6  11    1.45    0.17   0
   4  -6 -11    1.41    0.16   0
   4  -6 -11    1.48    0.16   0
  -3   6  11    1.49    0.12   0
   3  -6 -11    1.55    0.15   0
  -3   6  11    1.85    0.15   0
   3  -6 -11    1.80    0.16   0
   3  -6 -11    1.32    0.16   0
  -2   6  11   -0.03    0.14   0
   2  -6 -11    0.09    0.16   0
  -2   6  11    0.31    0.14   0
   2  -6 -11    0.13    0.17   0
   2  -6 -11    0.04    0.14   0
  -1   6  11    0.94    0.14   0
   1  -6 -11    0.68    0.18   0
  -1   6  11    0.70    0.15   0
   1  -6 -11    1.06    0.18   0
   1  -6 -11    0.69    0.14   0
   0  -6 -11    2.19    0.15   0
   0   6  11    2.14    0.15   0
   0  -6 -11    2.17    0.21   0
   0   6  11    2.39    0.16   0
   0  -6 -11    2.37    0.19   0
  -1  -6 -11    5.77    0.18   0
   1   6  11    6.24    0.19   0
  -1  -6 -11    5.54    0.25   0
   1   6  11    6.41    0.18   0
  -1  -6 -11    5.92    0.25   0
   6  -7 -11    1.57    0.13   0
  -6   7  11    1.69    0.15   0
  -6   7  11    1.73    0.19   0
   6  -7 -11    1.88    0.17   0
   5  -7 -11    0.45    0.13   0
  -5   7  11    0.18    0.15   0
  -5   7  11    0.43    0.18   0
   5  -7 -11    0.39    0.17   0
   4  -7 -11    0.14    0.15   0
  -4   7  11   -0.07    0.12   0
   4  -7 -11    0.10    0.14   0
  -4   7  11   -0.20    0.17   0
   4  -7 -11    0.02    0.18   0
   3  -7 -11    2.64    0.13   0
  -3   7  11    2.62    0.15   0
   3  -7 -11    2.82    0.16   0
  -3   7  11    2.51    0.16   0
   3  -7 -11    3.37    0.20   0
   2  -7 -11    0.24    0.15   0
  -2   7  11    0.26    0.14   0
   2  -7 -11    0.31    0.15   0
  -2   7  11    0.06    0.15   0
   2  -7 -11    0.26    0.19   0
   1  -7 -11    0.13    0.18   0
  -1   7  11   -0.11    0.15   0
   1  -7 -11    0.08    0.18   0
  -1   7  11    0.03    0.15   0
   1  -7 -11    0.22    0.20   0
   0  -7 -11    0.89    0.18   0
   0   7  11    0.79    0.15   0
   0  -7 -11    0.87    0.21   0
   0   7  11    0.88    0.13   0
   0  -7 -11    0.83    0.21   0
  -4   8  11    0.27    0.15   0
  -3   8  11    0.28    0.15   0
   3  -8 -11    0.52    0.15   0
  -3   8  11    0.50    0.16   0
   0  11 -12    0.09    0.15   0
   0  11 -12    0.09    0.15   0
   0  11 -12    0.28    0.12   0
   3  10 -12    0.91    0.15   0
   3  10 -12    0.81    0.14   0
   3  10 -12    0.73    0.16   0
   3  10 -12    0.89    0.15   0
   2  10 -12    2.26    0.13   0
   2  10 -12    1.97    0.12   0
   2  10 -12    1.94    0.16   0
  -2 -10  12    2.49    0.16   0
   2  10 -12    2.53    0.15   0
   1  10 -12   -0.11    0.11   0
   1  10 -12    0.22    0.14   0
   1  10 -12    0.18    0.15   0
  -1 -10  12   -0.34    0.15   0
   1  10 -12    0.03    0.15   0
   0  10 -12    0.36    0.14   0
   0  10 -12    0.12    0.15   0
   0 -10  12    0.30    0.12   0
   0  10 -12    0.51    0.15   0
   0  10 -12    0.11    0.14   0
  -1  10 -12    0.12    0.14   0
  -1  10 -12    0.31    0.15   0
   1 -10  12    0.26    0.15   0
  -1  10 -12    0.16    0.14   0
  -1  10 -12    0.02    0.11   0
  -2  10 -12    2.99    0.15   0
  -2  10 -12    2.89    0.13   0
   2 -10  12    3.26    0.16   0
  -2  10 -12    2.71    0.15   0
  -2  10 -12    2.87    0.13   0
  -3  10 -12   -0.05    0.15   0
   4   9 -12    0.54    0.14   0
   4   9 -12    0.64    0.16   0
   4   9 -12    0.64    0.12   0
   4   9 -12    0.74    0.18   0
   4   9 -12    0.52    0.18   0
   3   9 -12   -0.06    0.14   0
   3   9 -12    0.01    0.15   0
   3   9 -12    0.14    0.14   0
   3   9 -12   -0.05    0.14   0
   2   9 -12    0.53    0.14   0
   2   9 -12    0.68    0.15   0
   2   9 -12    0.68    0.12   0
  -2  -9  12    0.51    0.15   0
   2   9 -12    0.66    0.14   0
   1   9 -12    3.64    0.14   0
   1   9 -12    3.35    0.13   0
   1   9 -12    3.42    0.15   0
  -1  -9  12    3.93    0.16   0
   1   9 -12    3.69    0.15   0
   0   9 -12    1.93    0.11   0
   0   9 -12    1.85    0.14   0
   0   9 -12    1.70    0.12   0
   0  -9  12    1.98    0.12   0
   0   9 -12    1.61    0.14   0
  -1   9 -12    0.28    0.11   0
  -1   9 -12    0.23    0.13   0
  -1   9 -12    0.19    0.15   0
   1  -9  12    0.29    0.15   0
  -1   9 -12    0.03    0.11   0
  -2   9 -12    0.14    0.11   0
  -2   9 -12    0.30    0.12   0
   2  -9  12    0.48    0.14   0
  -2   9 -12    0.26    0.12   0
  -2   9 -12    0.17    0.14   0
  -3   9 -12    0.03    0.14   0
  -3   9 -12    0.37    0.15   0
   3  -9  12    0.38    0.12   0
  -3   9 -12    0.08    0.12   0
  -3   9 -12    0.25    0.14   0
  -4   9 -12    0.42    0.14   0
  -4   9 -12    0.10    0.15   0
  -4   9 -12    0.25    0.14   0
   5   8 -12   -0.17    0.14   0
   5   8 -12    0.13    0.15   0
   5   8 -12    0.05    0.15   0
   5   8 -12    0.23    0.17   0
   5   8 -12   -0.10    0.15   0
   4   8 -12    0.53    0.14   0
   4   8 -12    0.62    0.14   0
   4   8 -12    0.44    0.14   0
   4   8 -12    0.44    0.14   0
   4   8 -12    0.44    0.14   0
   3   8 -12    0.25    0.14   0
   3   8 -12    0.25    0.14   0
   3   8 -12    0.09    0.13   0
   3   8 -12   -0.17    0.13   0
   2   8 -12    1.97    0.14   0
   2   8 -12    1.69    0.15   0
  -2  -8  12    1.91    0.15   0
   2   8 -12    1.91    0.14   0
   2   8 -12    2.05    0.14   0
   1   8 -12    2.50    0.14   0
   1   8 -12    2.09    0.13   0
   1   8 -12    2.39    0.14   0
  -1  -8  12    2.71    0.16   0
   1   8 -12    2.58    0.14   0
   0   8 -12    0.85    0.13   0
   0   8 -12    1.00    0.15   0
   0   8 -12    0.95    0.13   0
   0  -8  12    0.94    0.15   0
   0   8 -12    0.96    0.14   0
  -1   8 -12    0.11    0.13   0
  -1   8 -12    0.15    0.14   0
  -1   8 -12    0.02    0.13   0
   1  -8  12    0.33    0.14   0
  -1   8 -12   -0.07    0.13   0
  -2   8 -12    0.42    0.14   0
  -2   8 -12    0.52    0.13   0
  -2   8 -12    0.39    0.14   0
   2  -8  12    0.33    0.14   0
  -2   8 -12    0.31    0.14   0
  -3   8 -12    8.00    0.17   0
  -3   8 -12    8.14    0.17   0
   3  -8  12    8.64    0.17   0
  -3   8 -12    8.06    0.17   0
  -3   8 -12    8.19    0.17   0
  -4   8 -12    3.40    0.15   0
  -4   8 -12    3.56    0.16   0
   4  -8  12    3.39    0.14   0
  -4   8 -12    2.69    0.13   0
  -4   8 -12    3.04    0.15   0
   6   7 -12   -0.10    0.16   0
   6   7 -12    0.15    0.15   0
   6   7 -12    0.10    0.15   0
   6   7 -12   -0.15    0.16   0
   6   7 -12   -0.05    0.15   0
   5   7 -12    0.33    0.14   0
   5   7 -12    0.31    0.15   0
   5   7 -12    0.59    0.14   0
   5   7 -12    0.55    0.12   0
   5   7 -12    0.34    0.17   0
   4   7 -12    0.30    0.11   0
   4   7 -12    0.40    0.14   0
   4   7 -12    0.46    0.14   0
   4   7 -12    0.42    0.14   0
   4   7 -12    0.34    0.14   0
   3   7 -12    0.18    0.13   0
   3   7 -12    0.02    0.14   0
   3   7 -12    0.39    0.13   0
   3   7 -12    0.22    0.14   0
   2   7 -12    1.78    0.13   0
   2   7 -12    1.45    0.14   0
  -2  -7  12    2.04    0.14   0
   2   7 -12    1.82    0.13   0
   2   7 -12    1.84    0.13   0
   1   7 -12    0.48    0.12   0
   1   7 -12    0.32    0.11   0
  -1  -7  12    0.29    0.14   0
   1   7 -12    0.45    0.12   0
   1   7 -12    0.54    0.14   0
   0   7 -12    2.25    0.11   0
   0   7 -12    2.65    0.12   0
   0  -7  12    2.26    0.12   0
   0   7 -12    2.45    0.13   0
   0   7 -12    2.77    0.14   0
  -1   7 -12    7.90    0.16   0
  -1   7 -12    7.35    0.16   0
  -1   7 -12    7.74    0.16   0
   1  -7  12    7.71    0.16   0
  -1   7 -12    8.02    0.14   0
  -2   7 -12    2.33    0.14   0
  -2   7 -12    1.99    0.15   0
  -2   7 -12    1.94    0.14   0
   2  -7  12    2.25    0.15   0
  -2   7 -12    2.09    0.12   0
  -3   7 -12    4.56    0.15   0
  -3   7 -12    4.40    0.15   0
  -3   7 -12    3.87    0.16   0
   3  -7  12    4.71    0.16   0
  -3   7 -12    4.42    0.13   0
  -4   7 -12    3.94    0.15   0
  -4   7 -12    3.48    0.16   0
   4  -7  12    3.79    0.16   0
  -4   7 -12    3.68    0.16   0
  -4   7 -12    3.92    0.16   0
  -5   7 -12    0.01    0.12   0
  -5   7 -12   -0.02    0.17   0
   5  -7  12   -0.08    0.13   0
  -5   7 -12    0.04    0.17   0
  -5   7 -12    0.15    0.15   0
   6   6 -12    1.46    0.15   0
   6   6 -12    1.40    0.16   0
   6   6 -12    1.52    0.15   0
   6   6 -12    1.51    0.18   0
   6   6 -12    1.29    0.15   0
   5   6 -12    1.14    0.15   0
   5   6 -12    1.06    0.14   0
   5   6 -12    0.95    0.15   0
   5   6 -12    1.09    0.17   0
   5   6 -12    0.92    0.15   0
   4   6 -12    0.06    0.11   0
   4   6 -12    0.29    0.13   0
   4   6 -12    0.22    0.14   0
   4   6 -12   -0.03    0.14   0
   4   6 -12    0.52    0.13   0
   3   6 -12    0.35    0.13   0
   3   6 -12    0.38    0.13   0
   3   6 -12    0.33    0.14   0
   3   6 -12    0.36    0.13   0
   3   6 -12    0.28    0.14   0
   2   6 -12    0.91    0.13   0
   2   6 -12    0.89    0.13   0
   2   6 -12    1.01    0.15   0
  -2  -6  12    1.28    0.14   0
   2   6 -12    1.02    0.13   0
   1   6 -12    4.11    0.14   0
   1   6 -12    4.01    0.15   0
  -1  -6  12    4.55    0.15   0
   1   6 -12    4.19    0.15   0
   1   6 -12    4.14    0.14   0
   0   6 -12    3.43    0.14   0
   0   6 -12    2.94    0.14   0
   0  -6  12    3.29    0.14   0
   0   6 -12    2.91    0.15   0
   0   6 -12    3.17    0.14   0
  -1   6 -12    2.03    0.14   0
  -1   6 -12    1.96    0.14   0
   1  -6  12    2.00    0.14   0
  -1   6 -12    1.93    0.11   0
  -1   6 -12    1.93    0.14   0
  -2   6 -12   16.88    0.16   0
  -2   6 -12   15.43    0.19   0
  -2   6 -12   16.22    0.19   0
   2  -6  12   17.70    0.19   0
  -2   6 -12   16.45    0.17   0
  -3   6 -12    0.15    0.13   0
  -3   6 -12   -0.02    0.15   0
  -3   6 -12    0.04    0.14   0
   3  -6  12    0.06    0.14   0
  -3   6 -12    0.05    0.13   0
  -4   6 -12    1.29    0.15   0
  -4   6 -12    1.34    0.14   0
   4  -6  12    1.20    0.15   0
  -4   6 -12    1.24    0.15   0
  -4   6 -12    1.32    0.14   0
  -5   6 -12    0.27    0.15   0
  -5   6 -12    0.08    0.14   0
   5  -6  12    0.16    0.15   0
  -5   6 -12    0.14    0.14   0
  -5   6 -12   -0.16    0.15   0
   7   5 -12    0.04    0.15   0
   7   5 -12   -0.01    0.15   0
   7   5 -12    0.13    0.15   0
   7   5 -12    0.12    0.19   0
   7   5 -12   -0.02    0.15   0
   6   5 -12    0.71    0.15   0
   6   5 -12    0.90    0.15   0
   6   5 -12    0.86    0.14   0
   6   5 -12    0.80    0.17   0
   6   5 -12    0.78    0.14   0
   5   5 -12    2.02    0.15   0
   5   5 -12    1.97    0.16   0
   5   5 -12    2.41    0.17   0
   5   5 -12    2.46    0.14   0
   5   5 -12    1.70    0.15   0
   4   5 -12   -0.06    0.13   0
   4   5 -12    0.08    0.11   0
   4   5 -12    0.08    0.13   0
   4   5 -12    0.22    0.13   0
   4   5 -12    0.05    0.14   0
   3   5 -12    0.74    0.13   0
   3   5 -12    0.68    0.14   0
   3   5 -12    0.61    0.13   0
   3   5 -12    0.76    0.16   0
   3   5 -12    0.62    0.12   0
   2   5 -12    4.77    0.12   0
   2   5 -12    4.27    0.15   0
   2   5 -12    4.75    0.14   0
  -2  -5  12    4.76    0.15   0
   2   5 -12    4.77    0.15   0
   1   5 -12    2.95    0.13   0
   1   5 -12    2.66    0.15   0
   1   5 -12    3.12    0.13   0
  -1  -5  12    2.90    0.14   0
   1   5 -12    2.88    0.15   0
   0   5 -12    1.17    0.13   0
   0   5 -12    1.33    0.13   0
   0   5 -12    1.09    0.14   0
   0  -5  12    1.29    0.14   0
   0   5 -12    1.19    0.15   0
  -1   5 -12    0.31    0.13   0
  -1   5 -12    0.37    0.14   0
   1  -5  12    0.25    0.13   0
  -1   5 -12    0.25    0.10   0
  -1   5 -12    0.20    0.13   0
  -2   5 -12    0.58    0.13   0
  -2   5 -12    0.57    0.15   0
   2  -5  12    0.76    0.14   0
   2  -5  12    0.99    0.13   0
  -2   5 -12    0.71    0.13   0
  -2   5 -12    0.42    0.13   0
  -3   5 -12    3.74    0.15   0
  -3   5 -12    4.01    0.15   0
  -3   5 -12    3.75    0.15   0
   3  -5  12    3.97    0.16   0
   3  -5  12    3.89    0.14   0
  -3   5 -12    3.93    0.15   0
  -4   5 -12    5.82    0.16   0
  -4   5 -12    5.69    0.17   0
  -4   5 -12    5.87    0.16   0
   4  -5  12    6.03    0.17   0
   4  -5  12    5.83    0.16   0
  -4   5 -12    5.50    0.16   0
  -5   5 -12    1.48    0.15   0
  -5   5 -12    1.50    0.17   0
   5  -5  12    1.28    0.15   0
   5  -5  12    1.43    0.16   0
  -5   5 -12    1.49    0.15   0
  -5   5 -12    1.55    0.15   0
   7   4 -12   -0.02    0.15   0
   7   4 -12   -0.16    0.16   0
   7   4 -12    0.21    0.15   0
   7   4 -12    0.14    0.19   0
   7   4 -12   -0.03    0.12   0
   6   4 -12    0.73    0.12   0
   6   4 -12    0.39    0.14   0
   6   4 -12    0.65    0.14   0
   6   4 -12    0.36    0.19   0
   6   4 -12    0.50    0.14   0
   5   4 -12    9.79    0.17   0
   5   4 -12    9.17    0.18   0
   5   4 -12   10.79    0.17   0
   5   4 -12    9.98    0.21   0
   5   4 -12    9.23    0.18   0
   4   4 -12    1.09    0.11   0
   4   4 -12    1.48    0.15   0
   4   4 -12    1.29    0.14   0
   4   4 -12    1.37    0.16   0
   4   4 -12    1.24    0.14   0
   3   4 -12    0.25    0.13   0
   3   4 -12    0.52    0.12   0
   3   4 -12    0.72    0.13   0
   3   4 -12    0.65    0.14   0
   3   4 -12    0.57    0.11   0
   2   4 -12    2.60    0.13   0
   2   4 -12    2.48    0.13   0
   2   4 -12    2.34    0.14   0
   2   4 -12    2.39    0.14   0
   1   4 -12    5.33    0.15   0
   1   4 -12    4.95    0.16   0
  -1  -4  12    5.68    0.15   0
   1   4 -12    5.27    0.12   0
   1   4 -12    4.95    0.16   0
   0   4 -12    3.81    0.15   0
   0   4 -12    3.49    0.15   0
   0   4 -12    3.80    0.14   0
   0  -4  12    3.96    0.15   0
   0  -4  12    3.78    0.15   0
   0   4 -12    3.77    0.15   0
  -1   4 -12    0.74    0.11   0
  -1   4 -12    0.54    0.13   0
  -1   4 -12    0.79    0.15   0
   1  -4  12    0.92    0.14   0
   1  -4  12    0.66    0.13   0
  -1   4 -12    0.60    0.14   0
  -2   4 -12    3.23    0.15   0
  -2   4 -12    3.73    0.14   0
   2  -4  12    3.55    0.13   0
   2  -4  12    3.42    0.12   0
  -2   4 -12    3.55    0.14   0
  -2   4 -12    3.90    0.12   0
  -3   4 -12    0.86    0.14   0
  -3   4 -12    0.68    0.15   0
   3  -4  12    0.47    0.14   0
  -3   4 -12    0.42    0.14   0
   3  -4  12    0.42    0.11   0
  -3   4 -12    0.70    0.14   0
  -4   4 -12    1.29    0.15   0
  -4   4 -12    1.28    0.16   0
  -4   4 -12    1.16    0.14   0
   4  -4  12    1.19    0.15   0
   4  -4  12    1.41    0.15   0
  -4   4 -12    1.45    0.14   0
  -5   4 -12    0.38    0.15   0
  -5   4 -12    0.40    0.14   0
   5  -4  12    0.50    0.16   0
   5  -4  12    0.52    0.16   0
  -5   4 -12    0.55    0.17   0
  -5   4 -12    0.58    0.15   0
   8   3 -12    0.21    0.15   0
   8   3 -12    0.17    0.13   0
   8   3 -12    0.14    0.16   0
   8   3 -12    0.15    0.16   0
   7   3 -12    0.25    0.12   0
   7   3 -12    0.53    0.15   0
   7   3 -12    0.32    0.22   0
   7   3 -12    0.37    0.15   0
   7   3 -12    0.24    0.14   0
   6   3 -12    0.30    0.12   0
   6   3 -12   -0.03    0.14   0
   6   3 -12    0.21    0.14   0
   6   3 -12    0.29    0.19   0
   6   3 -12    0.37    0.14   0
   5   3 -12    0.09    0.14   0
   5   3 -12    0.16    0.14   0
   5   3 -12    0.32    0.14   0
   5   3 -12    0.17    0.17   0
   5   3 -12    0.00    0.14   0
   4   3 -12    1.56    0.12   0
   4   3 -12    1.90    0.14   0
   4   3 -12    2.18    0.14   0
   4   3 -12    1.59    0.14   0
   4   3 -12    1.87    0.15   0
   3   3 -12    1.46    0.14   0
   3   3 -12    1.32    0.14   0
   3   3 -12    1.60    0.11   0
   3   3 -12    1.41    0.14   0
   3   3 -12    1.70    0.16   0
   2   3 -12    5.07    0.13   0
   2   3 -12    4.84    0.16   0
   2   3 -12    5.24    0.15   0
   2   3 -12    5.63    0.16   0
   2   3 -12    5.44    0.13   0
   1   3 -12   47.90    0.25   0
   1   3 -12   45.56    0.26   0
  -1  -3  12   48.89    0.26   0
  -1  -3  12   46.28    0.24   0
   1   3 -12   48.33    0.25   0
   1   3 -12   49.97    0.28   0
   0   3 -12    1.50    0.12   0
   0   3 -12    1.75    0.14   0
   0  -3  12    1.98    0.15   0
   0  -3  12    1.87    0.11   0
   0   3 -12    1.72    0.12   0
   0   3 -12    1.75    0.14   0
  -1   3 -12    6.47    0.17   0
  -1   3 -12    7.39    0.15   0
  -1   3 -12    7.29    0.15   0
   1  -3  12    7.51    0.16   0
   1  -3  12    7.41    0.16   0
  -1   3 -12    7.55    0.14   0
  -2   3 -12    0.59    0.15   0
  -2   3 -12    0.83    0.14   0
  -2   3 -12    0.68    0.13   0
   2  -3  12    0.67    0.12   0
   2  -3  12    0.62    0.13   0
  -2   3 -12    0.51    0.13   0
  -3   3 -12   -0.12    0.14   0
  -3   3 -12   -0.13    0.12   0
   3  -3  12   -0.04    0.14   0
   3  -3  12   -0.14    0.13   0
  -3   3 -12    0.11    0.13   0
  -3   3 -12    0.23    0.11   0
  -4   3 -12    1.36    0.15   0
  -4   3 -12    1.71    0.15   0
  -4   3 -12    1.52    0.17   0
   4  -3  12    1.83    0.15   0
   4  -3  12    2.06    0.15   0
  -4   3 -12    1.66    0.15   0
  -5   3 -12   -0.00    0.16   0
  -5   3 -12    0.01    0.17   0
   5  -3  12    0.08    0.16   0
   5  -3  12    0.21    0.13   0
  -5   3 -12    0.17    0.12   0
  -5   3 -12   -0.18    0.19   0
   8   2 -12    1.34    0.16   0
   8   2 -12    1.67    0.16   0
   8   2 -12    1.07    0.16   0
   7   2 -12    3.02    0.17   0
   7   2 -12    2.98    0.16   0
   7   2 -12    3.21    0.13   0
   7   2 -12    2.87    0.28   0
   6   2 -12    0.17    0.14   0
   6   2 -12    0.24    0.14   0
   6   2 -12    0.27    0.14   0
   6   2 -12    0.22    0.19   0
  -5  -2  12    0.30    0.14   0
   5   2 -12    0.27    0.11   0
   5   2 -12    0.41    0.14   0
   5   2 -12    0.18    0.13   0
   5   2 -12    0.34    0.18   0
   4   2 -12    7.83    0.16   0
   4   2 -12    7.90    0.16   0
   4   2 -12    8.11    0.16   0
   4   2 -12    8.14    0.20   0
   3   2 -12    8.12    0.14   0
   3   2 -12    8.10    0.16   0
   3   2 -12    8.27    0.16   0
   3   2 -12    8.85    0.17   0
   2   2 -12    2.06    0.15   0
   2   2 -12    2.37    0.15   0
  -2  -2  12    2.15    0.15   0
   2   2 -12    2.20    0.15   0
   2   2 -12    2.41    0.16   0
   1   2 -12   34.02    0.23   0
   1   2 -12   29.66    0.23   0
   1   2 -12   32.66    0.23   0
  -1  -2  12   31.75    0.23   0
   1   2 -12   32.85    0.24   0
   0   2 -12    8.45    0.17   0
   0   2 -12    9.18    0.16   0
   0  -2  12    9.34    0.14   0
   0  -2  12    9.20    0.16   0
   0   2 -12    9.36    0.16   0
   0   2 -12    8.97    0.17   0
  -1   2 -12    2.54    0.14   0
  -1   2 -12    2.72    0.13   0
   1  -2  12    2.78    0.14   0
   1  -2  12    2.88    0.15   0
  -1   2 -12    2.75    0.12   0
  -1   2 -12    2.89    0.14   0
  -2   2 -12    0.98    0.14   0
  -2   2 -12    1.30    0.14   0
  -2   2 -12    0.97    0.13   0
   2  -2  12    1.14    0.14   0
   2  -2  12    1.03    0.11   0
  -2   2 -12    0.96    0.11   0
  -3   2 -12    3.55    0.16   0
  -3   2 -12    3.91    0.17   0
   3  -2  12    3.99    0.15   0
   3  -2  12    3.89    0.15   0
  -3   2 -12    3.75    0.17   0
  -3   2 -12    4.01    0.15   0
  -4   2 -12    6.33    0.17   0
  -4   2 -12    6.68    0.19   0
  -4   2 -12    6.88    0.19   0
   4  -2  12    6.77    0.17   0
   4  -2  12    6.91    0.17   0
  -4   2 -12    7.03    0.16   0
  -5   2 -12    0.36    0.18   0
   5  -2  12    0.48    0.18   0
  -5   2 -12    0.59    0.17   0
   5  -2  12    0.64    0.16   0
  -5   2 -12    0.55    0.15   0
  -5   2 -12    0.62    0.17   0
  -8  -1  12    0.92    0.14   0
   8   1 -12    1.06    0.16   0
   8   1 -12    1.02    0.16   0
   8   1 -12    0.80    0.16   0
  -7  -1  12    0.26    0.14   0
   7   1 -12    0.08    0.12   0
   7   1 -12    0.21    0.14   0
   7   1 -12    0.28    0.15   0
  -6  -1  12    1.28    0.14   0
   6   1 -12    1.08    0.12   0
   6   1 -12    1.19    0.12   0
   6   1 -12    0.88    0.12   0
   6   1 -12    1.00    0.19   0
  -5  -1  12    0.68    0.14   0
   5   1 -12    0.78    0.13   0
   5   1 -12    0.71    0.11   0
   5   1 -12    0.72    0.14   0
   5   1 -12    0.73    0.20   0
  -4  -1  12    4.55    0.12   0
   4   1 -12    4.58    0.15   0
   4   1 -12    5.03    0.15   0
   4   1 -12    4.48    0.15   0
   4   1 -12    5.19    0.19   0
  -3  -1  12    4.42    0.15   0
   3   1 -12    4.28    0.13   0
   3   1 -12    4.13    0.12   0
  -3  -1  12    4.17    0.15   0
   3   1 -12    4.02    0.15   0
   3   1 -12    4.59    0.18   0
  -2  -1  12    1.68    0.14   0
   2   1 -12    1.59    0.15   0
   2   1 -12    1.56    0.14   0
   2   1 -12    1.85    0.14   0
  -2  -1  12    1.50    0.14   0
   2   1 -12    1.61    0.15   0
   1   1 -12   -0.06    0.11   0
   1   1 -12    0.09    0.13   0
  -1  -1  12    0.27    0.13   0
   1   1 -12   -0.01    0.11   0
   1   1 -12    0.17    0.14   0
   0   1 -12   -0.06    0.14   0
   0   1 -12   -0.09    0.13   0
   0  -1  12   -0.16    0.11   0
   0   1 -12    0.33    0.12   0
   0   1 -12    0.13    0.14   0
  -1   1 -12    8.56    0.18   0
  -1   1 -12    9.60    0.17   0
   1  -1  12    9.83    0.17   0
   1  -1  12    9.37    0.15   0
  -1   1 -12    9.57    0.19   0
  -1   1 -12    9.48    0.15   0
  -2   1 -12    0.61    0.14   0
  -2   1 -12    0.66    0.14   0
   2  -1  12    0.60    0.14   0
   2  -1  12    0.49    0.11   0
  -2   1 -12    0.43    0.13   0
  -2   1 -12    0.36    0.13   0
  -3   1 -12    7.31    0.17   0
  -3   1 -12    6.95    0.17   0
  -3   1 -12    7.57    0.19   0
   3  -1  12    7.75    0.17   0
   3  -1  12    8.03    0.15   0
  -3   1 -12    7.56    0.16   0
  -4   1 -12    4.02    0.19   0
   4  -1  12    4.59    0.19   0
  -4   1 -12    4.37    0.20   0
  -4   1 -12    4.14    0.18   0
   4  -1  12    4.31    0.16   0
  -4   1 -12    4.46    0.13   0
  -5   1 -12    0.03    0.15   0
  -5   1 -12    0.30    0.19   0
   5  -1  12   -0.01    0.17   0
  -5   1 -12    0.19    0.20   0
   5  -1  12    0.12    0.15   0
  -8   0  12    0.20    0.14   0
   8   0 -12    0.35    0.15   0
   8   0 -12    0.12    0.15   0
   8   0 -12    0.06    0.15   0
  -7   0  12    1.49    0.14   0
   7   0 -12    1.38    0.13   0
   7   0 -12    1.38    0.15   0
   7   0 -12    1.11    0.13   0
  -6   0  12    1.22    0.14   0
   6   0 -12    1.29    0.12   0
   6   0 -12    1.46    0.15   0
   6   0 -12    1.00    0.14   0
  -5   0  12    2.55    0.15   0
   5   0 -12    2.71    0.14   0
   5   0 -12    2.36    0.15   0
   5   0 -12    2.81    0.14   0
   5   0 -12    2.84    0.18   0
  -4   0  12    0.44    0.11   0
   4   0 -12    0.24    0.14   0
   4   0 -12    0.65    0.13   0
  -4   0  12    0.35    0.16   0
   4   0 -12    0.19    0.13   0
   4   0 -12    0.47    0.16   0
  -3   0  12    1.65    0.14   0
   3   0 -12    1.36    0.15   0
   3   0 -12    1.69    0.14   0
  -3   0  12    1.73    0.14   0
   3   0 -12    1.81    0.15   0
   3   0 -12    1.52    0.14   0
  -2   0  12    0.14    0.13   0
   2   0 -12    0.01    0.11   0
   2   0 -12   -0.01    0.13   0
  -2   0  12    0.03    0.14   0
   2   0 -12    0.23    0.13   0
   2   0 -12    0.25    0.13   0
  -1   0  12    0.37    0.13   0
   1   0 -12    0.32    0.14   0
   1   0 -12    0.15    0.13   0
  -1   0  12    0.32    0.13   0
   1   0 -12    0.18    0.13   0
   1   0 -12    0.26    0.13   0
   0   0 -12    4.06    0.16   0
   0   0 -12    4.85    0.15   0
   0   0  12    4.55    0.15   0
   0   0 -12    4.81    0.15   0
   0   0 -12    5.03    0.16   0
  -1   0 -12   10.37    0.17   0
  -1   0 -12    8.99    0.18   0
  -1   0 -12   10.64    0.18   0
   1   0  12    9.94    0.15   0
  -1   0 -12   10.63    0.17   0
  -2   0 -12    0.74    0.16   0
  -2   0 -12    1.03    0.14   0
  -2   0 -12    0.99    0.15   0
   2   0  12    1.22    0.14   0
   2   0  12    0.56    0.14   0
  -2   0 -12    0.87    0.14   0
  -3   0 -12    0.59    0.11   0
  -3   0 -12    0.81    0.17   0
  -3   0 -12    0.52    0.16   0
   3   0  12    0.57    0.16   0
  -3   0 -12    0.57    0.16   0
   3   0  12    0.84    0.14   0
  -4   0 -12    1.15    0.18   0
   4   0  12    1.41    0.18   0
  -4   0 -12    1.48    0.20   0
  -4   0 -12    1.42    0.17   0
   4   0  12    1.40    0.16   0
  -8   1  12    0.56    0.14   0
   8  -1 -12    0.63    0.15   0
   8  -1 -12    0.69    0.16   0
   8  -1 -12    0.50    0.15   0
  -7   1  12    0.09    0.14   0
   7  -1 -12    0.05    0.13   0
   7  -1 -12    0.23    0.15   0
   7  -1 -12    0.01    0.14   0
  -6   1  12    0.67    0.13   0
   6  -1 -12    0.64    0.14   0
   6  -1 -12    0.29    0.14   0
   6  -1 -12    0.56    0.14   0
  -5   1  12    0.23    0.11   0
   5  -1 -12    0.01    0.13   0
  -5   1  12    0.21    0.16   0
   5  -1 -12    0.22    0.14   0
   5  -1 -12    0.20    0.14   0
  -4   1  12    1.55    0.13   0
   4  -1 -12    1.40    0.12   0
   4  -1 -12    1.38    0.11   0
  -4   1  12    1.42    0.16   0
   4  -1 -12    1.65    0.15   0
   3  -1 -12    1.94    0.15   0
  -3   1  12    2.01    0.12   0
   3  -1 -12    1.77    0.12   0
   3  -1 -12    1.80    0.12   0
  -3   1  12    1.95    0.14   0
   3  -1 -12    2.32    0.15   0
  -2   1  12   10.45    0.17   0
   2  -1 -12    9.47    0.15   0
   2  -1 -12   10.64    0.18   0
  -2   1  12   10.03    0.18   0
   2  -1 -12    9.94    0.18   0
   2  -1 -12   10.28    0.18   0
  -1   1  12    1.46    0.14   0
   1  -1 -12    1.58    0.15   0
   1  -1 -12    1.91    0.14   0
  -1   1  12    1.67    0.13   0
   1  -1 -12    1.50    0.13   0
   1  -1 -12    1.77    0.14   0
   0   1  12    0.38    0.13   0
   0  -1 -12    0.11    0.14   0
   0  -1 -12    0.23    0.13   0
   0   1  12    0.21    0.14   0
   0  -1 -12    0.11    0.14   0
   0  -1 -12    0.06    0.11   0
  -1  -1 -12    2.53    0.17   0
  -1  -1 -12    2.95    0.15   0
   1   1  12    2.57    0.14   0
  -1  -1 -12    2.89    0.17   0
  -2  -1 -12    3.78    0.15   0
  -2  -1 -12    3.42    0.18   0
  -2  -1 -12    3.85    0.18   0
   2   1  12    4.06    0.15   0
  -2  -1 -12    4.10    0.18   0
  -3  -1 -12    1.54    0.18   0
  -3  -1 -12    1.51    0.17   0
  -3  -1 -12    1.44    0.17   0
   3   1  12    1.72    0.15   0
  -4  -1 -12    0.19    0.19   0
   4   1  12    0.18    0.15   0
  -4  -1 -12    0.01    0.18   0
  -4  -1 -12    0.09    0.19   0
  -8   2  12    0.33    0.14   0
   8  -2 -12    0.42    0.12   0
   8  -2 -12    0.65    0.13   0
   8  -2 -12    0.37    0.13   0
  -7   2  12   -0.10    0.11   0
   7  -2 -12    0.08    0.14   0
   7  -2 -12    0.35    0.15   0
   7  -2 -12    0.15    0.14   0
  -6   2  12    0.18    0.13   0
   6  -2 -12    0.09    0.14   0
   6  -2 -12    0.41    0.15   0
   6  -2 -12    0.09    0.14   0
  -5   2  12    3.98    0.12   0
   5  -2 -12    4.10    0.15   0
  -5   2  12    4.04    0.20   0
   5  -2 -12    3.87    0.15   0
   5  -2 -12    4.34    0.16   0
  -4   2  12    0.28    0.13   0
   4  -2 -12    0.24    0.11   0
  -4   2  12    0.07    0.16   0
   4  -2 -12   -0.01    0.13   0
   4  -2 -12    0.11    0.14   0
  -3   2  12    0.36    0.11   0
   3  -2 -12    0.07    0.14   0
   3  -2 -12    0.09    0.14   0
  -3   2  12    0.19    0.13   0
   3  -2 -12    0.01    0.14   0
  -2   2  12    1.92    0.14   0
   2  -2 -12    1.98    0.14   0
   2  -2 -12    1.56    0.13   0
  -2   2  12    1.58    0.14   0
   2  -2 -12    1.88    0.14   0
  -1   2  12    3.81    0.15   0
   1  -2 -12    3.53    0.15   0
   1  -2 -12    3.82    0.15   0
  -1   2  12    3.68    0.15   0
   1  -2 -12    3.99    0.16   0
   0   2  12    0.08    0.13   0
   0  -2 -12    0.06    0.14   0
   0  -2 -12    0.32    0.14   0
   0   2  12    0.00    0.14   0
   0  -2 -12    0.30    0.16   0
   1   2  12   -0.02    0.13   0
  -1  -2 -12   -0.12    0.16   0
  -1  -2 -12   -0.00    0.13   0
   1   2  12   -0.10    0.14   0
  -1  -2 -12    0.20    0.16   0
  -2  -2 -12    4.13    0.17   0
  -2  -2 -12    3.47    0.18   0
  -2  -2 -12    4.09    0.18   0
   2   2  12    3.92    0.16   0
  -2  -2 -12    4.20    0.16   0
  -3  -2 -12    5.02    0.21   0
  -3  -2 -12    4.10    0.20   0
   3   2  12    4.53    0.16   0
  -3  -2 -12    4.67    0.20   0
  -3  -2 -12    4.62    0.20   0
  -8   3  12    0.70    0.15   0
   8  -3 -12    0.60    0.15   0
   8  -3 -12    0.46    0.16   0
   8  -3 -12    0.88    0.16   0
  -7   3  12    0.58    0.14   0
   7  -3 -12    0.36    0.15   0
   7  -3 -12    0.47    0.15   0
   7  -3 -12    0.53    0.15   0
  -6   3  12    1.08    0.14   0
   6  -3 -12    0.98    0.15   0
  -6   3  12    0.74    0.20   0
   6  -3 -12    1.09    0.15   0
   6  -3 -12    0.77    0.15   0
  -5   3  12    6.45    0.16   0
   5  -3 -12    6.45    0.17   0
  -5   3  12    6.18    0.20   0
   5  -3 -12    7.13    0.17   0
   5  -3 -12    7.03    0.17   0
  -4   3  12    2.23    0.12   0
   4  -3 -12    2.59    0.15   0
  -4   3  12    2.01    0.17   0
   4  -3 -12    2.41    0.15   0
   4  -3 -12    2.74    0.15   0
  -3   3  12    0.50    0.13   0
   3  -3 -12    0.30    0.13   0
   3  -3 -12    0.47    0.15   0
  -3   3  12    0.29    0.15   0
   3  -3 -12    0.33    0.14   0
  -2   3  12    0.02    0.13   0
   2  -3 -12   -0.18    0.14   0
   2  -3 -12    0.32    0.14   0
  -2   3  12    0.24    0.13   0
   2  -3 -12   -0.33    0.15   0
  -1   3  12    0.46    0.13   0
   1  -3 -12    0.57    0.16   0
   1  -3 -12    0.07    0.14   0
  -1   3  12    0.51    0.14   0
   1  -3 -12    0.48    0.14   0
   0   3  12    2.54    0.14   0
   0  -3 -12    2.35    0.15   0
   0  -3 -12    2.92    0.15   0
   0   3  12    2.93    0.15   0
   0  -3 -12    2.88    0.17   0
   1   3  12    0.71    0.16   0
  -1  -3 -12    0.53    0.17   0
   1   3  12    0.67    0.15   0
  -1  -3 -12    0.76    0.16   0
  -1  -3 -12    0.79    0.17   0
  -2  -3 -12    1.34    0.18   0
   2   3  12    1.75    0.15   0
  -2  -3 -12    1.36    0.19   0
  -2  -3 -12    1.43    0.17   0
  -3  -3 -12    0.12    0.18   0
  -3  -3 -12    0.24    0.19   0
   3   3  12    0.25    0.15   0
  -3  -3 -12    0.39    0.20   0
  -3  -3 -12    0.21    0.17   0
  -7   4  12    2.00    0.15   0
   7  -4 -12    2.34    0.16   0
   7  -4 -12    2.40    0.16   0
   7  -4 -12    2.23    0.17   0
  -6   4  12    0.16    0.13   0
   6  -4 -12    0.08    0.15   0
  -6   4  12    0.07    0.21   0
   6  -4 -12   -0.06    0.15   0
   6  -4 -12    0.14    0.15   0
  -5   4  12    0.15    0.13   0
   5  -4 -12   -0.00    0.14   0
  -5   4  12    0.34    0.16   0
   5  -4 -12    0.36    0.14   0
   5  -4 -12    0.24    0.15   0
  -4   4  12    0.02    0.11   0
   4  -4 -12    0.22    0.13   0
  -4   4  12    0.07    0.14   0
   4  -4 -12   -0.00    0.12   0
   4  -4 -12    0.15    0.15   0
  -3   4  12    0.28    0.14   0
   3  -4 -12    0.09    0.14   0
  -3   4  12    0.09    0.16   0
   3  -4 -12    0.27    0.15   0
   3  -4 -12    0.21    0.17   0
  -2   4  12    2.65    0.14   0
   2  -4 -12    2.43    0.15   0
  -2   4  12    2.38    0.15   0
   2  -4 -12    2.48    0.15   0
   2  -4 -12    2.69    0.16   0
  -1   4  12    2.95    0.15   0
   1  -4 -12    2.46    0.16   0
  -1   4  12    2.74    0.14   0
   1  -4 -12    2.89    0.18   0
   1  -4 -12    3.11    0.16   0
   0   4  12    0.66    0.14   0
   0  -4 -12    0.58    0.15   0
   0   4  12    0.75    0.15   0
   0  -4 -12    0.59    0.14   0
   0  -4 -12    0.70    0.17   0
   1   4  12    0.19    0.16   0
  -1  -4 -12    0.09    0.20   0
   1   4  12    0.45    0.15   0
  -1  -4 -12    0.18    0.20   0
  -1  -4 -12    0.21    0.16   0
  -2  -4 -12    0.58    0.20   0
   2   4  12    0.63    0.16   0
  -2  -4 -12    0.69    0.20   0
  -2  -4 -12    0.57    0.18   0
  -7   5  12    0.29    0.14   0
  -7   5  12    0.17    0.28   0
   7  -5 -12    0.43    0.15   0
   7  -5 -12    0.54    0.15   0
  -6   5  12   -0.04    0.11   0
   6  -5 -12    0.25    0.15   0
  -6   5  12    0.05    0.20   0
   6  -5 -12   -0.11    0.15   0
   6  -5 -12    0.11    0.13   0
  -5   5  12    0.38    0.11   0
   5  -5 -12    0.36    0.15   0
  -5   5  12    0.33    0.17   0
   5  -5 -12    0.32    0.12   0
   5  -5 -12    0.42    0.16   0
  -4   5  12    1.32    0.15   0
   4  -5 -12    1.00    0.15   0
  -4   5  12    1.15    0.15   0
   4  -5 -12    1.04    0.15   0
   4  -5 -12    1.15    0.15   0
  -3   5  12    4.65    0.13   0
   3  -5 -12    4.42    0.16   0
  -3   5  12    4.43    0.18   0
   3  -5 -12    4.40    0.17   0
   3  -5 -12    4.64    0.18   0
  -2   5  12    1.07    0.14   0
   2  -5 -12    1.09    0.17   0
  -2   5  12    1.21    0.15   0
   2  -5 -12    1.04    0.15   0
   2  -5 -12    1.56    0.15   0
  -1   5  12    1.31    0.15   0
   1  -5 -12    1.27    0.18   0
  -1   5  12    1.21    0.15   0
   1  -5 -12    1.60    0.18   0
   1  -5 -12    1.41    0.15   0
   0   5  12    0.18    0.14   0
   0  -5 -12    0.26    0.18   0
   0   5  12    0.46    0.15   0
   0  -5 -12    0.29    0.18   0
   0  -5 -12    0.15    0.14   0
   1   5  12    2.51    0.16   0
  -1  -5 -12    2.36    0.20   0
   1   5  12    3.14    0.17   0
  -1  -5 -12    2.80    0.22   0
  -1  -5 -12    2.50    0.18   0
  -6   6  12    2.24    0.15   0
   6  -6 -12    1.85    0.16   0
  -6   6  12    1.91    0.22   0
   6  -6 -12    2.22    0.17   0
   6  -6 -12    2.15    0.14   0
  -5   6  12    0.64    0.15   0
   5  -6 -12    0.70    0.15   0
  -5   6  12    0.73    0.18   0
   5  -6 -12    0.76    0.16   0
   5  -6 -12    0.64    0.13   0
  -4   6  12    0.33    0.14   0
   4  -6 -12    0.06    0.15   0
  -4   6  12    0.23    0.14   0
   4  -6 -12   -0.20    0.16   0
   4  -6 -12   -0.07    0.16   0
  -3   6  12    0.91    0.14   0
   3  -6 -12    0.79    0.18   0
  -3   6  12    1.10    0.15   0
   3  -6 -12    0.95    0.18   0
   3  -6 -12    0.81    0.15   0
  -2   6  12    2.55    0.15   0
   2  -6 -12    2.33    0.16   0
  -2   6  12    2.55    0.18   0
   2  -6 -12    2.66    0.19   0
   2  -6 -12    2.01    0.15   0
  -1   6  12    0.86    0.15   0
   1  -6 -12    0.77    0.18   0
  -1   6  12    1.32    0.16   0
   1  -6 -12    0.94    0.19   0
   1  -6 -12    1.10    0.16   0
   0  -6 -12    0.01    0.15   0
   0   6  12    0.09    0.15   0
   0  -6 -12    0.03    0.21   0
   0   6  12   -0.10    0.16   0
   0  -6 -12    0.05    0.18   0
  -4   7  12    0.36    0.15   0
   4  -7 -12    0.59    0.16   0
  -4   7  12    0.54    0.18   0
   3  -7 -12    0.15    0.15   0
  -3   7  12    0.32    0.15   0
   3  -7 -12    0.24    0.15   0
  -3   7  12    0.31    0.18   0
   3  -7 -12    0.47    0.16   0
   1  10 -13   -0.27    0.11   0
   1  10 -13   -0.04    0.14   0
   1  10 -13    0.09    0.15   0
  -1 -10  13    0.26    0.15   0
   1  10 -13    0.21    0.15   0
   0  10 -13    2.24    0.14   0
   0  10 -13    2.42    0.15   0
   0  10 -13    2.22    0.16   0
   0 -10  13    2.26    0.16   0
   0  10 -13    2.49    0.16   0
  -1  10 -13   -0.03    0.12   0
  -1  10 -13    0.33    0.15   0
   1 -10  13    0.15    0.15   0
  -1  10 -13    0.38    0.15   0
  -1  10 -13    0.01    0.12   0
   3   9 -13    0.15    0.12   0
   3   9 -13    0.18    0.15   0
   3   9 -13    0.26    0.12   0
   3   9 -13    0.02    0.15   0
   2   9 -13    0.35    0.15   0
   2   9 -13    0.07    0.15   0
   2   9 -13    0.12    0.14   0
  -2  -9  13    0.11    0.12   0
   2   9 -13    0.19    0.14   0
   1   9 -13    2.27    0.15   0
   1   9 -13    2.57    0.16   0
   1   9 -13    2.70    0.14   0
  -1  -9  13    2.95    0.16   0
   1   9 -13    2.44    0.15   0
   0   9 -13    6.78    0.16   0
   0   9 -13    5.95    0.17   0
   0   9 -13    6.54    0.16   0
   0  -9  13    7.31    0.17   0
   0   9 -13    6.52    0.14   0
  -1   9 -13    4.03    0.13   0
  -1   9 -13    4.05    0.13   0
  -1   9 -13    3.35    0.14   0
   1  -9  13    3.78    0.13   0
  -1   9 -13    4.08    0.16   0
  -2   9 -13    1.05    0.12   0
  -2   9 -13    0.79    0.15   0
   2  -9  13    1.17    0.15   0
  -2   9 -13    0.99    0.14   0
  -2   9 -13    0.97    0.15   0
   4   8 -13    0.65    0.12   0
   4   8 -13    0.47    0.15   0
   4   8 -13    0.84    0.15   0
   4   8 -13    0.69    0.16   0
   4   8 -13    0.57    0.15   0
   3   8 -13    1.72    0.12   0
   3   8 -13    1.62    0.15   0
   3   8 -13    1.64    0.14   0
   3   8 -13    1.83    0.17   0
   2   8 -13    0.27    0.13   0
   2   8 -13    0.10    0.12   0
   2   8 -13    0.01    0.11   0
  -2  -8  13    0.12    0.15   0
   2   8 -13   -0.00    0.14   0
   1   8 -13    0.28    0.11   0
   1   8 -13    0.55    0.12   0
   1   8 -13    0.34    0.13   0
  -1  -8  13    0.31    0.15   0
   1   8 -13    0.51    0.14   0
   0   8 -13    1.24    0.13   0
   0   8 -13    1.13    0.14   0
   0   8 -13    1.41    0.11   0
   0  -8  13    1.11    0.14   0
   0   8 -13    1.25    0.12   0
  -1   8 -13    0.18    0.13   0
  -1   8 -13    0.11    0.11   0
  -1   8 -13    0.16    0.11   0
   1  -8  13    0.35    0.14   0
  -1   8 -13    0.32    0.13   0
  -2   8 -13    0.55    0.14   0
  -2   8 -13    0.62    0.14   0
  -2   8 -13    0.49    0.12   0
   2  -8  13    0.65    0.15   0
  -2   8 -13    0.37    0.12   0
  -3   8 -13    2.48    0.15   0
  -3   8 -13    2.05    0.13   0
   3  -8  13    2.43    0.15   0
  -3   8 -13    2.37    0.15   0
  -3   8 -13    2.52    0.15   0
   5   7 -13    0.30    0.14   0
   5   7 -13    0.34    0.15   0
   5   7 -13    0.22    0.17   0
   5   7 -13    0.46    0.15   0
   5   7 -13    0.37    0.15   0
   4   7 -13    0.29    0.14   0
   4   7 -13    0.39    0.15   0
   4   7 -13    0.50    0.14   0
   4   7 -13    0.37    0.12   0
   4   7 -13    0.26    0.12   0
   3   7 -13    1.31    0.14   0
   3   7 -13    1.77    0.15   0
   3   7 -13    1.61    0.15   0
   3   7 -13    1.33    0.15   0
   3   7 -13    1.75    0.14   0
   2   7 -13    1.07    0.13   0
   2   7 -13    1.16    0.12   0
  -2  -7  13    1.14    0.12   0
   2   7 -13    0.92    0.14   0
   2   7 -13    0.89    0.11   0
   1   7 -13    0.23    0.13   0
   1   7 -13    0.24    0.14   0
  -1  -7  13    0.17    0.14   0
   1   7 -13    0.07    0.10   0
   1   7 -13    0.08    0.14   0
   0   7 -13    2.05    0.14   0
   0   7 -13    1.74    0.12   0
   0  -7  13    2.64    0.15   0
   0   7 -13    1.74    0.14   0
   0   7 -13    2.05    0.15   0
  -1   7 -13    6.67    0.16   0
  -1   7 -13    5.80    0.14   0
  -1   7 -13    6.12    0.16   0
   1  -7  13    6.29    0.16   0
  -1   7 -13    6.32    0.14   0
  -2   7 -13    6.23    0.16   0
  -2   7 -13    5.58    0.16   0
  -2   7 -13    6.08    0.16   0
   2  -7  13    6.42    0.16   0
  -2   7 -13    6.05    0.16   0
  -3   7 -13    2.62    0.15   0
  -3   7 -13    2.99    0.15   0
  -3   7 -13    2.73    0.13   0
   3  -7  13    3.07    0.16   0
  -3   7 -13    2.85    0.15   0
  -4   7 -13    0.23    0.16   0
  -4   7 -13    0.22    0.15   0
   4  -7  13    0.28    0.15   0
  -4   7 -13    0.35    0.15   0
  -4   7 -13    0.38    0.15   0
   6   6 -13    1.54    0.16   0
   6   6 -13    1.39    0.16   0
   6   6 -13    1.25    0.15   0
   6   6 -13    1.29    0.18   0
   6   6 -13    1.23    0.16   0
   5   6 -13    4.96    0.16   0
   5   6 -13    4.16    0.16   0
   5   6 -13    4.44    0.16   0
   5   6 -13    4.21    0.17   0
   5   6 -13    3.78    0.16   0
   4   6 -13   -0.09    0.14   0
   4   6 -13   -0.01    0.14   0
   4   6 -13   -0.07    0.15   0
   4   6 -13    0.01    0.14   0
   4   6 -13   -0.03    0.12   0
   3   6 -13    1.65    0.14   0
   3   6 -13    1.69    0.14   0
   3   6 -13    1.28    0.12   0
   3   6 -13    1.46    0.15   0
   3   6 -13    1.42    0.15   0
   2   6 -13    3.02    0.12   0
   2   6 -13    3.11    0.14   0
   2   6 -13    2.72    0.15   0
  -2  -6  13    2.91    0.15   0
   2   6 -13    3.03    0.16   0
   1   6 -13    0.88    0.13   0
   1   6 -13    0.44    0.14   0
  -1  -6  13    0.63    0.11   0
   1   6 -13    0.80    0.11   0
   1   6 -13    0.87    0.13   0
   0   6 -13    0.67    0.11   0
   0   6 -13    0.54    0.11   0
   0  -6  13    0.73    0.11   0
   0   6 -13    0.50    0.14   0
   0   6 -13    0.65    0.11   0
  -1   6 -13    0.02    0.13   0
  -1   6 -13   -0.26    0.14   0
   1  -6  13    0.41    0.13   0
  -1   6 -13   -0.05    0.13   0
  -1   6 -13    0.11    0.11   0
  -2   6 -13    5.10    0.15   0
  -2   6 -13    4.25    0.16   0
  -2   6 -13    4.67    0.13   0
   2  -6  13    4.82    0.13   0
  -2   6 -13    5.37    0.16   0
  -3   6 -13    0.29    0.15   0
  -3   6 -13    0.19    0.14   0
  -3   6 -13    0.26    0.14   0
   3  -6  13    0.21    0.14   0
  -3   6 -13    0.38    0.14   0
  -4   6 -13    0.20    0.15   0
  -4   6 -13    0.13    0.14   0
   4  -6  13    0.09    0.13   0
  -4   6 -13    0.11    0.15   0
  -4   6 -13    0.11    0.15   0
   6   5 -13    0.15    0.12   0
   6   5 -13    0.17    0.14   0
   6   5 -13    0.24    0.15   0
   6   5 -13    0.13    0.17   0
   6   5 -13    0.32    0.15   0
   5   5 -13    0.63    0.15   0
   5   5 -13    0.29    0.14   0
   5   5 -13    0.32    0.12   0
   5   5 -13    0.28    0.17   0
   5   5 -13    0.29    0.15   0
   4   5 -13    0.04    0.14   0
   4   5 -13    0.13    0.14   0
   4   5 -13    0.20    0.13   0
   4   5 -13    0.14    0.16   0
   4   5 -13   -0.14    0.14   0
   3   5 -13    0.33    0.13   0
   3   5 -13    0.49    0.14   0
   3   5 -13    0.49    0.13   0
   3   5 -13    0.25    0.16   0
   3   5 -13    0.40    0.11   0
   2   5 -13    1.68    0.13   0
   2   5 -13    1.46    0.14   0
   2   5 -13    1.59    0.11   0
   2   5 -13    1.34    0.14   0
   1   5 -13    9.19    0.16   0
   1   5 -13    7.86    0.16   0
   1   5 -13    8.98    0.16   0
  -1  -5  13    9.78    0.16   0
   1   5 -13    9.10    0.17   0
   0   5 -13    0.15    0.13   0
   0   5 -13    0.25    0.13   0
   0   5 -13    0.43    0.14   0
   0  -5  13    0.32    0.13   0
   0   5 -13    0.32    0.14   0
  -1   5 -13    0.20    0.13   0
  -1   5 -13    0.27    0.12   0
   1  -5  13    0.26    0.14   0
  -1   5 -13    0.19    0.14   0
  -1   5 -13    0.27    0.13   0
  -2   5 -13    3.27    0.15   0
  -2   5 -13    3.29    0.14   0
   2  -5  13    3.50    0.13   0
   2  -5  13    3.18    0.12   0
  -2   5 -13    3.16    0.14   0
  -2   5 -13    3.31    0.12   0
  -3   5 -13    3.12    0.16   0
  -3   5 -13    3.17    0.17   0
  -3   5 -13    3.37    0.15   0
   3  -5  13    3.25    0.15   0
   3  -5  13    3.21    0.14   0
  -3   5 -13    3.31    0.15   0
  -4   5 -13    1.10    0.15   0
  -4   5 -13    1.31    0.15   0
  -4   5 -13    1.55    0.15   0
   4  -5  13    1.36    0.13   0
   4  -5  13    1.51    0.16   0
  -4   5 -13    1.19    0.15   0
   7   4 -13   -0.15    0.15   0
   7   4 -13    0.04    0.15   0
   7   4 -13    0.16    0.15   0
   7   4 -13    0.04    0.20   0
   7   4 -13    0.17    0.15   0
   6   4 -13    0.08    0.12   0
   6   4 -13   -0.00    0.14   0
   6   4 -13    0.03    0.14   0
   6   4 -13    0.13    0.17   0
   6   4 -13    0.10    0.15   0
   5   4 -13    1.70    0.15   0
   5   4 -13    1.55    0.15   0
   5   4 -13    1.75    0.15   0
   5   4 -13    1.44    0.15   0
   5   4 -13    1.66    0.15   0
   4   4 -13    9.73    0.15   0
   4   4 -13    9.20    0.18   0
   4   4 -13   10.24    0.17   0
   4   4 -13   10.07    0.20   0
   4   4 -13    9.49    0.15   0
   3   4 -13    3.47    0.12   0
   3   4 -13    3.34    0.14   0
   3   4 -13    2.86    0.14   0
   3   4 -13    2.83    0.12   0
   3   4 -13    3.40    0.15   0
   2   4 -13    1.24    0.13   0
   2   4 -13    1.23    0.11   0
   2   4 -13    1.35    0.14   0
   2   4 -13    1.54    0.14   0
   1   4 -13   17.08    0.18   0
   1   4 -13   15.34    0.19   0
  -1  -4  13   16.91    0.16   0
   1   4 -13   17.06    0.18   0
   1   4 -13   17.96    0.19   0
   0   4 -13    5.50    0.16   0
   0   4 -13    6.57    0.15   0
   0   4 -13    5.33    0.15   0
   0  -4  13    5.91    0.15   0
   0  -4  13    5.65    0.15   0
   0   4 -13    6.25    0.16   0
  -1   4 -13    0.73    0.13   0
  -1   4 -13    1.02    0.12   0
  -1   4 -13    0.83    0.13   0
   1  -4  13    0.86    0.12   0
   1  -4  13    0.59    0.13   0
  -1   4 -13    1.04    0.14   0
  -2   4 -13    2.21    0.15   0
  -2   4 -13    2.23    0.14   0
   2  -4  13    2.31    0.14   0
   2  -4  13    2.13    0.14   0
  -2   4 -13    2.32    0.14   0
  -2   4 -13    1.98    0.12   0
  -3   4 -13    1.98    0.15   0
  -3   4 -13    2.16    0.14   0
   3  -4  13    2.22    0.15   0
  -3   4 -13    1.93    0.14   0
   3  -4  13    1.76    0.14   0
  -3   4 -13    2.41    0.15   0
  -4   4 -13    0.08    0.15   0
  -4   4 -13    0.26    0.14   0
  -4   4 -13    0.08    0.16   0
   4  -4  13    0.32    0.14   0
   4  -4  13    0.23    0.13   0
  -4   4 -13    0.11    0.15   0
   7   3 -13    0.65    0.15   0
   7   3 -13    0.71    0.15   0
   7   3 -13    0.81    0.15   0
   7   3 -13    0.43    0.15   0
   7   3 -13    0.56    0.22   0
   6   3 -13    0.54    0.15   0
   6   3 -13    0.69    0.15   0
   6   3 -13    0.37    0.15   0
   6   3 -13    0.76    0.20   0
   6   3 -13    0.89    0.14   0
   5   3 -13    0.46    0.12   0
   5   3 -13    0.46    0.14   0
   5   3 -13    0.40    0.14   0
   5   3 -13    0.53    0.14   0
   5   3 -13    0.50    0.17   0
   4   3 -13    0.94    0.14   0
   4   3 -13    0.68    0.14   0
   4   3 -13    0.90    0.11   0
   4   3 -13    1.30    0.14   0
   4   3 -13    0.79    0.17   0
   3   3 -13   -0.00    0.13   0
   3   3 -13    0.30    0.11   0
   3   3 -13    0.02    0.13   0
   3   3 -13   -0.02    0.13   0
   3   3 -13   -0.06    0.14   0
   2   3 -13    1.77    0.14   0
   2   3 -13    1.72    0.14   0
   2   3 -13    1.81    0.12   0
   2   3 -13    1.85    0.15   0
   2   3 -13    1.93    0.14   0
   1   3 -13    0.06    0.14   0
   1   3 -13    0.24    0.14   0
   1   3 -13    0.14    0.13   0
  -1  -3  13   -0.03    0.11   0
   1   3 -13    0.07    0.14   0
   0   3 -13   11.26    0.18   0
   0   3 -13   12.60    0.17   0
   0  -3  13   12.32    0.16   0
   0  -3  13   11.78    0.17   0
   0   3 -13   11.77    0.17   0
   0   3 -13   12.77    0.18   0
  -1   3 -13    1.72    0.12   0
  -1   3 -13    1.69    0.13   0
  -1   3 -13    1.89    0.14   0
   1  -3  13    1.89    0.14   0
   1  -3  13    1.75    0.11   0
  -1   3 -13    1.96    0.12   0
  -2   3 -13    0.00    0.14   0
  -2   3 -13    0.04    0.13   0
   2  -3  13   -0.22    0.13   0
   2  -3  13    0.17    0.13   0
  -2   3 -13    0.12    0.11   0
  -2   3 -13    0.06    0.14   0
  -3   3 -13    0.03    0.14   0
  -3   3 -13    0.08    0.14   0
   3  -3  13    0.24    0.14   0
   3  -3  13    0.10    0.14   0
  -3   3 -13    0.03    0.16   0
  -3   3 -13    0.25    0.14   0
  -4   3 -13    3.22    0.16   0
  -4   3 -13    3.40    0.18   0
  -4   3 -13    3.52    0.19   0
   4  -3  13    3.64    0.16   0
   4  -3  13    3.58    0.17   0
  -4   3 -13    3.58    0.14   0
   7   2 -13    2.00    0.16   0
   7   2 -13    2.01    0.16   0
   7   2 -13    1.71    0.13   0
   7   2 -13    1.61    0.26   0
   6   2 -13    3.44    0.16   0
   6   2 -13    3.61    0.16   0
   6   2 -13    3.23    0.16   0
   6   2 -13    3.37    0.22   0
   5   2 -13    0.24    0.14   0
   5   2 -13    0.44    0.15   0
   5   2 -13    0.33    0.14   0
   5   2 -13    0.25    0.19   0
   4   2 -13    2.69    0.12   0
   4   2 -13    2.79    0.15   0
   4   2 -13    2.86    0.15   0
   4   2 -13    3.02    0.18   0
   3   2 -13    2.70    0.15   0
   3   2 -13    3.00    0.15   0
   3   2 -13    2.64    0.14   0
   3   2 -13    2.91    0.15   0
   2   2 -13   19.06    0.20   0
   2   2 -13   20.44    0.20   0
  -2  -2  13   19.59    0.21   0
   2   2 -13   20.07    0.18   0
   2   2 -13   20.66    0.18   0
   2   2 -13   20.90    0.23   0
   1   2 -13    3.46    0.16   0
   1   2 -13    4.18    0.15   0
  -1  -2  13    4.00    0.13   0
   1   2 -13    4.03    0.15   0
   1   2 -13    4.16    0.13   0
   1   2 -13    4.07    0.15   0
   0   2 -13    2.38    0.15   0
   0   2 -13    2.57    0.14   0
   0  -2  13    2.83    0.15   0
   0  -2  13    2.51    0.15   0
   0   2 -13    2.79    0.14   0
   0   2 -13    2.82    0.15   0
  -1   2 -13    1.99    0.14   0
  -1   2 -13    2.19    0.14   0
   1  -2  13    2.15    0.14   0
   1  -2  13    2.15    0.14   0
  -1   2 -13    2.05    0.14   0
  -1   2 -13    2.26    0.14   0
  -2   2 -13    1.17    0.15   0
  -2   2 -13    1.10    0.14   0
  -2   2 -13    1.40    0.14   0
   2  -2  13    1.36    0.15   0
   2  -2  13    1.02    0.14   0
  -2   2 -13    1.52    0.14   0
  -3   2 -13    0.27    0.15   0
  -3   2 -13    0.58    0.14   0
   3  -2  13    0.21    0.15   0
   3  -2  13    0.42    0.12   0
  -3   2 -13    0.36    0.14   0
  -3   2 -13    0.55    0.14   0
  -4   2 -13    4.59    0.17   0
  -4   2 -13    4.78    0.19   0
  -4   2 -13    4.77    0.19   0
   4  -2  13    4.96    0.17   0
   4  -2  13    4.74    0.15   0
  -4   2 -13    4.34    0.16   0
  -7  -1  13    0.23    0.11   0
   7   1 -13    0.21    0.15   0
   7   1 -13    0.16    0.15   0
   7   1 -13   -0.02    0.12   0
  -6  -1  13    0.43    0.14   0
   6   1 -13    0.70    0.14   0
   6   1 -13    0.46    0.15   0
   6   1 -13    0.23    0.14   0
   6   1 -13    0.27    0.20   0
  -5  -1  13    0.12    0.14   0
   5   1 -13    0.17    0.14   0
   5   1 -13    0.25    0.12   0
   5   1 -13    0.11    0.12   0
   5   1 -13    0.27    0.19   0
  -4  -1  13    3.60    0.15   0
   4   1 -13    3.26    0.12   0
   4   1 -13    3.73    0.13   0
   4   1 -13    3.65    0.15   0
   4   1 -13    3.84    0.18   0
  -3  -1  13    5.41    0.13   0
   3   1 -13    5.49    0.16   0
   3   1 -13    5.60    0.15   0
  -3  -1  13    5.66    0.18   0
   3   1 -13    5.26    0.15   0
   3   1 -13    5.76    0.17   0
   2   1 -13    6.94    0.14   0
   2   1 -13    7.58    0.16   0
  -2  -1  13    7.28    0.17   0
   2   1 -13    7.58    0.17   0
   2   1 -13    7.51    0.17   0
   1   1 -13    0.06    0.14   0
   1   1 -13   -0.01    0.14   0
  -1  -1  13    0.14    0.13   0
   1   1 -13    0.18    0.14   0
   1   1 -13    0.24    0.13   0
   0   1 -13    0.29    0.14   0
   0   1 -13    0.49    0.14   0
   0  -1  13    0.39    0.14   0
   0   1 -13    0.37    0.13   0
   0   1 -13    0.49    0.14   0
  -1   1 -13    1.22    0.14   0
  -1   1 -13    1.45    0.14   0
  -1   1 -13    1.26    0.15   0
   1  -1  13    1.00    0.14   0
   1  -1  13    1.18    0.14   0
  -1   1 -13    1.27    0.14   0
  -2   1 -13    6.17    0.17   0
  -2   1 -13    6.63    0.17   0
   2  -1  13    6.74    0.16   0
   2  -1  13    6.31    0.16   0
  -2   1 -13    6.18    0.16   0
  -2   1 -13    6.58    0.16   0
  -3   1 -13    0.08    0.15   0
  -3   1 -13    0.18    0.17   0
   3  -1  13   -0.10    0.17   0
   3  -1  13    0.02    0.15   0
  -3   1 -13   -0.08    0.14   0
  -3   1 -13    0.08    0.14   0
  -4   1 -13    1.03    0.15   0
  -4   1 -13    0.91    0.16   0
   4  -1  13    1.13    0.18   0
  -4   1 -13    1.20    0.18   0
  -4   1 -13    0.97    0.17   0
   4  -1  13    0.94    0.13   0
  -7   0  13   -0.02    0.14   0
   7   0 -13    0.11    0.12   0
   7   0 -13    0.16    0.15   0
   7   0 -13    0.09    0.15   0
  -6   0  13    0.80    0.14   0
   6   0 -13    0.60    0.11   0
   6   0 -13    0.78    0.15   0
   6   0 -13    1.02    0.14   0
   5   0 -13    1.27    0.17   0
  -5   0  13    1.44    0.14   0
   5   0 -13    1.34    0.11   0
   5   0 -13    1.25    0.14   0
   5   0 -13    1.50    0.11   0
  -4   0  13    0.17    0.13   0
   4   0 -13    0.18    0.14   0
   4   0 -13    0.15    0.13   0
  -4   0  13    0.03    0.13   0
   4   0 -13   -0.13    0.11   0
   4   0 -13    0.12    0.16   0
  -3   0  13    0.37    0.13   0
   3   0 -13    0.20    0.14   0
   3   0 -13    0.52    0.14   0
  -3   0  13    0.48    0.14   0
   3   0 -13    0.42    0.14   0
   3   0 -13    0.33    0.14   0
  -2   0  13    0.43    0.11   0
   2   0 -13    0.55    0.14   0
   2   0 -13    0.50    0.14   0
  -2   0  13    0.41    0.14   0
   2   0 -13    0.34    0.14   0
   2   0 -13    0.47    0.14   0
  -1   0  13    0.74    0.11   0
   1   0 -13    0.70    0.14   0
   1   0 -13    0.61    0.14   0
  -1   0  13    0.54    0.13   0
   1   0 -13    0.52    0.14   0
   1   0 -13    0.74    0.14   0
   0   0 -13    0.76    0.14   0
   0   0 -13    0.99    0.14   0
   0   0  13    0.92    0.14   0
   0   0 -13    1.02    0.14   0
   0   0 -13    0.88    0.14   0
  -1   0 -13   -0.21    0.15   0
  -1   0 -13    0.06    0.13   0
  -1   0 -13    0.26    0.14   0
   1   0  13    0.13    0.11   0
  -1   0 -13    0.05    0.14   0
  -1   0 -13    0.13    0.11   0
  -2   0 -13    0.03    0.15   0
  -2   0 -13    0.15    0.15   0
  -2   0 -13    0.33    0.16   0
   2   0  13    0.26    0.14   0
  -2   0 -13    0.27    0.11   0
  -3   0 -13    0.12    0.15   0
  -3   0 -13    0.12    0.16   0
   3   0  13    0.06    0.14   0
  -3   0 -13   -0.12    0.17   0
   3   0  13    0.02    0.15   0
  -7   1  13    0.16    0.14   0
   7  -1 -13    0.48    0.15   0
   7  -1 -13    0.47    0.15   0
   7  -1 -13    0.46    0.15   0
  -6   1  13    0.47    0.14   0
   6  -1 -13    0.53    0.14   0
   6  -1 -13    0.51    0.15   0
   6  -1 -13    0.18    0.11   0
  -5   1  13   -0.11    0.14   0
   5  -1 -13   -0.00    0.14   0
  -5   1  13    0.24    0.16   0
   5  -1 -13   -0.03    0.11   0
   5  -1 -13    0.06    0.14   0
  -4   1  13    0.11    0.11   0
   4  -1 -13    0.16    0.13   0
  -4   1  13    0.25    0.14   0
   4  -1 -13    0.03    0.14   0
   4  -1 -13    0.24    0.14   0
  -3   1  13    0.13    0.13   0
   3  -1 -13    0.18    0.14   0
   3  -1 -13    0.12    0.11   0
  -3   1  13    0.09    0.15   0
   3  -1 -13   -0.08    0.15   0
   2  -1 -13    9.13    0.18   0
  -2   1  13    9.18    0.17   0
   2  -1 -13    8.28    0.17   0
   2  -1 -13    9.25    0.15   0
  -2   1  13    8.45    0.17   0
   2  -1 -13    9.09    0.17   0
   1  -1 -13    0.32    0.14   0
  -1   1  13    0.48    0.13   0
   1  -1 -13    0.51    0.14   0
   1  -1 -13    0.40    0.14   0
  -1   1  13    0.40    0.13   0
   1  -1 -13    0.39    0.14   0
   0   1  13    0.21    0.14   0
   0  -1 -13    0.12    0.17   0
   0  -1 -13    0.40    0.13   0
   0   1  13    0.63    0.13   0
   0  -1 -13    0.22    0.14   0
  -1  -1 -13    0.58    0.16   0
  -1  -1 -13    0.50    0.13   0
  -1  -1 -13    0.26    0.14   0
   1   1  13    0.36    0.15   0
  -1  -1 -13    0.42    0.14   0
  -2  -1 -13    2.08    0.15   0
  -2  -1 -13    2.27    0.18   0
  -2  -1 -13    2.53    0.17   0
   2   1  13    2.54    0.15   0
  -2  -1 -13    2.67    0.18   0
  -3  -1 -13    2.77    0.19   0
  -3  -1 -13    2.86    0.18   0
  -3  -1 -13    2.98    0.19   0
   3   1  13    2.53    0.13   0
  -3  -1 -13    3.37    0.19   0
  -7   2  13    0.23    0.14   0
   7  -2 -13    0.02    0.15   0
   7  -2 -13    0.05    0.16   0
   7  -2 -13    0.15    0.15   0
  -6   2  13    0.17    0.13   0
   6  -2 -13   -0.07    0.12   0
   6  -2 -13    0.02    0.14   0
   6  -2 -13   -0.01    0.15   0
  -5   2  13    0.26    0.13   0
   5  -2 -13    0.16    0.14   0
  -5   2  13    0.09    0.16   0
   5  -2 -13    0.14    0.14   0
   5  -2 -13    0.12    0.12   0
  -4   2  13    3.42    0.15   0
   4  -2 -13    3.61    0.15   0
  -4   2  13    3.66    0.18   0
   4  -2 -13    3.54    0.13   0
   4  -2 -13    3.72    0.15   0
  -3   2  13    0.23    0.11   0
   3  -2 -13   -0.03    0.13   0
   3  -2 -13    0.16    0.14   0
  -3   2  13    0.22    0.16   0
   3  -2 -13    0.32    0.14   0
  -2   2  13    1.88    0.14   0
   2  -2 -13    2.18    0.15   0
   2  -2 -13    1.95    0.15   0
  -2   2  13    2.34    0.15   0
   2  -2 -13    2.04    0.15   0
  -1   2  13    0.06    0.13   0
   1  -2 -13    0.13    0.14   0
   1  -2 -13   -0.05    0.13   0
  -1   2  13   -0.21    0.13   0
   1  -2 -13    0.14    0.15   0
   0   2  13   -0.17    0.14   0
   0  -2 -13    0.07    0.14   0
   0  -2 -13   -0.04    0.14   0
   0   2  13    0.22    0.14   0
   0  -2 -13   -0.01    0.14   0
  -1  -2 -13    0.04    0.17   0
  -1  -2 -13   -0.00    0.14   0
   1   2  13   -0.03    0.12   0
  -1  -2 -13   -0.06    0.16   0
  -2  -2 -13    3.19    0.17   0
  -2  -2 -13    3.49    0.16   0
   2   2  13    3.73    0.14   0
  -2  -2 -13    3.40    0.18   0
  -2  -2 -13    4.12    0.19   0
  -7   3  13    0.57    0.12   0
   7  -3 -13    0.64    0.12   0
   7  -3 -13    0.77    0.16   0
   7  -3 -13    0.58    0.16   0
  -6   3  13    0.64    0.14   0
   6  -3 -13    0.67    0.15   0
  -6   3  13    0.69    0.22   0
   6  -3 -13    0.68    0.15   0
   6  -3 -13    0.50    0.16   0
  -5   3  13    0.60    0.13   0
   5  -3 -13    0.91    0.15   0
  -5   3  13    0.64    0.17   0
   5  -3 -13    0.56    0.14   0
   5  -3 -13    0.62    0.15   0
  -4   3  13    2.48    0.15   0
   4  -3 -13    2.38    0.15   0
  -4   3  13    2.42    0.17   0
   4  -3 -13    2.42    0.13   0
   4  -3 -13    2.67    0.15   0
  -3   3  13    0.10    0.14   0
   3  -3 -13    0.21    0.15   0
  -3   3  13    0.05    0.15   0
   3  -3 -13    0.27    0.12   0
   3  -3 -13   -0.14    0.14   0
  -2   3  13    3.00    0.12   0
   2  -3 -13    2.86    0.15   0
   2  -3 -13    3.70    0.15   0
  -2   3  13    3.11    0.15   0
   2  -3 -13    3.46    0.16   0
  -1   3  13    2.18    0.14   0
   1  -3 -13    2.13    0.15   0
  -1   3  13    1.80    0.15   0
   1  -3 -13    2.14    0.15   0
   1  -3 -13    2.45    0.15   0
   0   3  13    1.18    0.14   0
   0  -3 -13    0.95    0.15   0
   0   3  13    1.14    0.14   0
   0  -3 -13    1.30    0.15   0
   0  -3 -13    1.32    0.17   0
   1   3  13    1.43    0.15   0
  -1  -3 -13    1.26    0.18   0
   1   3  13    1.59    0.16   0
  -1  -3 -13    1.55    0.17   0
  -1  -3 -13    1.50    0.18   0
  -2  -3 -13    0.22    0.17   0
  -2  -3 -13    0.39    0.19   0
   2   3  13    0.35    0.13   0
  -2  -3 -13    0.46    0.18   0
  -2  -3 -13    0.33    0.18   0
  -6   4  13    2.19    0.15   0
   6  -4 -13    2.05    0.16   0
  -6   4  13    1.86    0.23   0
   6  -4 -13    2.19    0.13   0
   6  -4 -13    1.93    0.16   0
  -5   4  13    0.09    0.14   0
   5  -4 -13    0.21    0.14   0
  -5   4  13    0.03    0.17   0
   5  -4 -13    0.12    0.15   0
   5  -4 -13   -0.03    0.15   0
  -4   4  13   -0.02    0.14   0
   4  -4 -13    0.13    0.14   0
  -4   4  13   -0.15    0.14   0
   4  -4 -13   -0.06    0.15   0
   4  -4 -13    0.11    0.15   0
  -3   4  13    0.64    0.14   0
   3  -4 -13    0.74    0.15   0
  -3   4  13    0.53    0.15   0
   3  -4 -13    0.66    0.15   0
   3  -4 -13    0.84    0.18   0
  -2   4  13    2.32    0.15   0
   2  -4 -13    2.02    0.16   0
  -2   4  13    2.31    0.15   0
   2  -4 -13    2.45    0.16   0
   2  -4 -13    2.25    0.16   0
  -1   4  13    0.17    0.14   0
   1  -4 -13    0.01    0.15   0
  -1   4  13    0.18    0.14   0
   1  -4 -13    0.24    0.15   0
   1  -4 -13    0.16    0.15   0
   0   4  13    0.35    0.14   0
   0  -4 -13    0.33    0.17   0
   0   4  13    0.28    0.15   0
   0  -4 -13    0.24    0.14   0
   0  -4 -13    0.20    0.18   0
   1   4  13    0.07    0.15   0
  -1  -4 -13    0.05    0.18   0
   1   4  13    0.22    0.16   0
  -1  -4 -13    0.12    0.18   0
  -1  -4 -13    0.03    0.15   0
  -5   5  13    0.42    0.15   0
   5  -5 -13    0.46    0.15   0
  -5   5  13    0.25    0.18   0
   5  -5 -13    0.56    0.13   0
   5  -5 -13    0.16    0.16   0
  -4   5  13    0.57    0.12   0
   4  -5 -13    0.47    0.16   0
  -4   5  13    0.69    0.17   0
   4  -5 -13    0.87    0.16   0
   4  -5 -13    0.80    0.17   0
  -3   5  13    0.42    0.14   0
   3  -5 -13   -0.06    0.15   0
  -3   5  13    0.19    0.15   0
   3  -5 -13   -0.08    0.12   0
   3  -5 -13   -0.06    0.16   0
  -2   5  13    0.76    0.14   0
   2  -5 -13    0.71    0.15   0
  -2   5  13    0.67    0.15   0
   2  -5 -13    0.49    0.15   0
   2  -5 -13    0.50    0.16   0
  -1   5  13    0.16    0.15   0
   1  -5 -13    0.09    0.18   0
  -1   5  13    0.21    0.15   0
   1  -5 -13    0.18    0.16   0
   1  -5 -13    0.18    0.15   0
   0   5  13    0.29    0.14   0
   0  -5 -13   -0.05    0.18   0
   0   5  13    0.13    0.13   0
  -4   6  13    0.00    0.12   0
  -3   6  13    0.51    0.15   0
  -3   6  13    0.61    0.16   0
   2   9 -14    0.99    0.16   0
   2   9 -14    1.01    0.12   0
   1   9 -14   -0.02    0.11   0
   1   9 -14   -0.04    0.15   0
   1   9 -14    0.14    0.14   0
  -1  -9  14    0.10    0.15   0
   1   9 -14    0.21    0.15   0
   0   9 -14    1.35    0.12   0
   0   9 -14    1.18    0.15   0
   0   9 -14    1.50    0.14   0
   0  -9  14    1.28    0.16   0
   0   9 -14    1.24    0.13   0
  -1   9 -14    0.44    0.15   0
   3   8 -14    1.62    0.15   0
   3   8 -14    1.88    0.15   0
   3   8 -14    1.95    0.15   0
   3   8 -14    1.69    0.16   0
   3   8 -14    1.64    0.13   0
   2   8 -14    1.15    0.14   0
   2   8 -14    1.52    0.16   0
  -2  -8  14    1.59    0.13   0
   2   8 -14    1.36    0.15   0
   2   8 -14    1.53    0.15   0
   1   8 -14    0.40    0.14   0
   1   8 -14    0.11    0.15   0
   1   8 -14    0.20    0.11   0
  -1  -8  14    0.36    0.12   0
   1   8 -14    0.25    0.14   0
   0   8 -14    0.10    0.14   0
   0   8 -14    0.22    0.15   0
   0   8 -14    0.19    0.14   0
   0  -8  14    0.41    0.15   0
   0   8 -14    0.38    0.12   0
  -1   8 -14    4.25    0.13   0
  -1   8 -14    3.37    0.13   0
  -1   8 -14    4.43    0.16   0
   1  -8  14    4.25    0.16   0
  -1   8 -14    4.22    0.14   0
  -2   8 -14    0.05    0.14   0
  -2   8 -14   -0.22    0.14   0
  -2   8 -14   -0.17    0.15   0
   2  -8  14    0.09    0.15   0
  -2   8 -14    0.19    0.15   0
   4   7 -14    0.90    0.15   0
   4   7 -14    0.76    0.15   0
   4   7 -14    0.72    0.15   0
   4   7 -14    0.57    0.15   0
   4   7 -14    0.57    0.15   0
   3   7 -14    0.13    0.14   0
   3   7 -14    0.13    0.12   0
   3   7 -14    0.20    0.14   0
   3   7 -14    0.34    0.15   0
   3   7 -14    0.32    0.14   0
   2   7 -14   -0.06    0.13   0
   2   7 -14   -0.00    0.15   0
  -2  -7  14    0.12    0.14   0
   2   7 -14    0.16    0.14   0
   2   7 -14    0.10    0.13   0
   1   7 -14    2.37    0.12   0
   1   7 -14    2.32    0.15   0
  -1  -7  14    2.10    0.15   0
   1   7 -14    2.07    0.14   0
   1   7 -14    2.10    0.12   0
   0   7 -14    0.42    0.14   0
   0   7 -14    0.43    0.14   0
   0  -7  14    0.49    0.14   0
   0   7 -14    0.16    0.14   0
   0   7 -14    0.32    0.14   0
  -1   7 -14    4.56    0.13   0
  -1   7 -14    4.25    0.16   0
  -1   7 -14    4.87    0.15   0
   1  -7  14    4.78    0.16   0
  -1   7 -14    4.92    0.16   0
  -2   7 -14    8.31    0.18   0
  -2   7 -14    8.64    0.17   0
  -2   7 -14    8.37    0.17   0
   2  -7  14    9.35    0.18   0
  -2   7 -14    8.72    0.15   0
   5   6 -14   -0.10    0.15   0
   5   6 -14    0.13    0.15   0
   5   6 -14    0.06    0.15   0
   5   6 -14    0.23    0.15   0
   5   6 -14   -0.01    0.15   0
   4   6 -14    2.27    0.15   0
   4   6 -14    1.84    0.15   0
   4   6 -14    2.27    0.15   0
   4   6 -14    2.18    0.15   0
   4   6 -14    1.89    0.15   0
   3   6 -14    0.07    0.14   0
   3   6 -14    0.27    0.11   0
   3   6 -14    0.11    0.15   0
   3   6 -14    0.21    0.14   0
   3   6 -14    0.02    0.15   0
   2   6 -14    2.77    0.11   0
   2   6 -14    2.98    0.14   0
   2   6 -14    2.65    0.15   0
   2   6 -14    2.60    0.15   0
   1   6 -14    2.19    0.12   0
   1   6 -14    1.92    0.15   0
  -1  -6  14    2.11    0.12   0
   1   6 -14    2.05    0.15   0
   1   6 -14    1.94    0.12   0
   0   6 -14    0.55    0.14   0
   0   6 -14    0.63    0.14   0
   0  -6  14    0.59    0.14   0
   0   6 -14    0.52    0.11   0
   0   6 -14    0.56    0.15   0
  -1   6 -14    1.49    0.12   0
  -1   6 -14    1.68    0.14   0
   1  -6  14    1.63    0.15   0
  -1   6 -14    1.80    0.14   0
  -1   6 -14    2.13    0.15   0
  -2   6 -14    0.33    0.15   0
  -2   6 -14    0.09    0.14   0
  -2   6 -14    0.11    0.14   0
   2  -6  14   -0.05    0.15   0
  -2   6 -14    0.21    0.12   0
  -3   6 -14   -0.15    0.15   0
  -3   6 -14    0.27    0.14   0
  -3   6 -14    0.09    0.16   0
   3  -6  14   -0.17    0.16   0
  -3   6 -14    0.19    0.15   0
   6   5 -14   -0.00    0.15   0
   6   5 -14   -0.01    0.15   0
   6   5 -14   -0.08    0.15   0
   6   5 -14    0.14    0.18   0
   6   5 -14   -0.10    0.15   0
   5   5 -14    2.69    0.13   0
   5   5 -14    2.56    0.15   0
   5   5 -14    2.77    0.16   0
   5   5 -14    2.80    0.19   0
   5   5 -14    2.50    0.13   0
   4   5 -14    1.53    0.13   0
   4   5 -14    1.61    0.15   0
   4   5 -14    1.90    0.15   0
   4   5 -14    1.76    0.15   0
   4   5 -14    1.34    0.12   0
   3   5 -14    2.59    0.14   0
   3   5 -14    2.34    0.15   0
   3   5 -14    2.51    0.14   0
   3   5 -14    2.70    0.15   0
   3   5 -14    2.09    0.15   0
   2   5 -14    0.69    0.14   0
   2   5 -14    0.64    0.12   0
   2   5 -14    0.92    0.13   0
   2   5 -14    0.68    0.15   0
   1   5 -14    0.99    0.14   0
   1   5 -14    0.80    0.14   0
   1   5 -14    0.84    0.13   0
  -1  -5  14    0.90    0.14   0
   1   5 -14    0.92    0.14   0
   0   5 -14    2.49    0.14   0
   0   5 -14    2.40    0.13   0
   0   5 -14    2.35    0.14   0
   0  -5  14    2.37    0.15   0
   0   5 -14    2.81    0.15   0
  -1   5 -14    0.50    0.15   0
  -1   5 -14    0.58    0.14   0
   1  -5  14    0.67    0.15   0
  -1   5 -14    0.64    0.12   0
  -1   5 -14    0.55    0.14   0
  -2   5 -14    1.02    0.15   0
  -2   5 -14    1.13    0.14   0
   2  -5  14    1.14    0.15   0
   2  -5  14    1.10    0.12   0
  -2   5 -14    1.33    0.14   0
  -2   5 -14    1.22    0.14   0
  -3   5 -14    2.51    0.16   0
  -3   5 -14    2.52    0.15   0
  -3   5 -14    2.57    0.15   0
   3  -5  14    2.61    0.16   0
   3  -5  14    2.21    0.13   0
  -3   5 -14    2.39    0.15   0
   6   4 -14    0.02    0.14   0
   6   4 -14    0.07    0.13   0
   6   4 -14   -0.01    0.15   0
   6   4 -14    0.10    0.18   0
   6   4 -14    0.04    0.15   0
   5   4 -14    0.83    0.12   0
   5   4 -14    0.54    0.15   0
   5   4 -14    0.51    0.14   0
   5   4 -14    0.95    0.18   0
   5   4 -14    0.63    0.14   0
   4   4 -14    3.94    0.16   0
   4   4 -14    4.41    0.15   0
   4   4 -14    4.10    0.13   0
   4   4 -14    4.08    0.16   0
   4   4 -14    4.30    0.17   0
   3   4 -14    0.85    0.14   0
   3   4 -14    1.04    0.14   0
   3   4 -14    0.69    0.11   0
   3   4 -14    0.91    0.14   0
   3   4 -14    1.09    0.14   0
   2   4 -14    2.81    0.15   0
   2   4 -14    2.96    0.14   0
   2   4 -14    3.15    0.12   0
   2   4 -14    2.76    0.16   0
   2   4 -14    2.93    0.14   0
   1   4 -14    0.05    0.12   0
   1   4 -14    0.21    0.14   0
  -1  -4  14    0.61    0.11   0
   1   4 -14    0.00    0.11   0
   1   4 -14    0.29    0.13   0
   0   4 -14    0.06    0.14   0
   0   4 -14    0.06    0.13   0
   0   4 -14   -0.09    0.13   0
   0  -4  14    0.26    0.14   0
   0  -4  14    0.02    0.13   0
   0   4 -14   -0.01    0.15   0
  -1   4 -14   -0.06    0.13   0
  -1   4 -14    0.14    0.15   0
  -1   4 -14    0.06    0.13   0
   1  -4  14    0.21    0.12   0
   1  -4  14   -0.01    0.11   0
  -1   4 -14    0.13    0.14   0
  -2   4 -14    2.57    0.16   0
  -2   4 -14    2.87    0.15   0
   2  -4  14    2.98    0.15   0
   2  -4  14    2.70    0.15   0
  -2   4 -14    2.99    0.15   0
  -2   4 -14    2.90    0.15   0
  -3   4 -14    0.15    0.15   0
  -3   4 -14    0.23    0.14   0
   3  -4  14    0.36    0.14   0
  -3   4 -14    0.24    0.14   0
   3  -4  14    0.22    0.14   0
  -3   4 -14    0.11    0.12   0
   6   3 -14    1.25    0.16   0
   6   3 -14    0.84    0.13   0
   6   3 -14    1.00    0.16   0
   6   3 -14    0.90    0.15   0
   6   3 -14    0.83    0.19   0
   5   3 -14    0.33    0.12   0
   5   3 -14    0.13    0.14   0
   5   3 -14    0.08    0.12   0
   5   3 -14   -0.13    0.14   0
   5   3 -14    0.07    0.17   0
   4   3 -14    0.68    0.14   0
   4   3 -14    0.59    0.14   0
   4   3 -14    0.71    0.14   0
   4   3 -14    0.92    0.12   0
   4   3 -14    0.69    0.17   0
   3   3 -14    5.93    0.16   0
   3   3 -14    5.41    0.16   0
   3   3 -14    6.29    0.14   0
   3   3 -14    5.97    0.16   0
   3   3 -14    6.03    0.17   0
   2   3 -14    0.07    0.12   0
   2   3 -14    0.26    0.11   0
   2   3 -14   -0.06    0.13   0
   2   3 -14   -0.05    0.14   0
   2   3 -14    0.21    0.14   0
   1   3 -14    1.03    0.14   0
   1   3 -14    1.24    0.15   0
   1   3 -14    1.06    0.14   0
  -1  -3  14    1.11    0.13   0
   1   3 -14    1.02    0.15   0
   0   3 -14    1.02    0.14   0
   0   3 -14    1.08    0.13   0
   0  -3  14    1.22    0.14   0
   0  -3  14    1.11    0.14   0
   0   3 -14    1.06    0.13   0
   0   3 -14    1.01    0.14   0
  -1   3 -14    0.10    0.14   0
  -1   3 -14    0.06    0.13   0
  -1   3 -14    0.16    0.13   0
   1  -3  14    0.09    0.13   0
   1  -3  14   -0.18    0.14   0
  -1   3 -14    0.12    0.14   0
  -2   3 -14    0.44    0.15   0
  -2   3 -14    0.21    0.14   0
   2  -3  14    0.44    0.14   0
   2  -3  14    0.47    0.14   0
  -2   3 -14    0.36    0.14   0
  -2   3 -14    0.38    0.14   0
  -3   3 -14    0.17    0.15   0
  -3   3 -14    0.33    0.15   0
   3  -3  14    0.36    0.15   0
   3  -3  14    0.49    0.15   0
  -3   3 -14    0.27    0.14   0
  -3   3 -14    0.33    0.15   0
   7   2 -14    0.17    0.16   0
   7   2 -14    0.25    0.16   0
   7   2 -14    0.12    0.16   0
   7   2 -14    0.33    0.24   0
   6   2 -14    0.05    0.15   0
   6   2 -14    0.09    0.15   0
   6   2 -14    0.15    0.12   0
   6   2 -14    0.30    0.21   0
   5   2 -14    0.23    0.12   0
   5   2 -14    0.49    0.12   0
   5   2 -14    0.39    0.14   0
   5   2 -14    0.62    0.18   0
   4   2 -14    1.06    0.14   0
   4   2 -14    1.04    0.12   0
   4   2 -14    0.85    0.15   0
   4   2 -14    0.99    0.15   0
   3   2 -14   17.29    0.20   0
   3   2 -14   19.03    0.20   0
   3   2 -14   18.54    0.20   0
   3   2 -14   19.55    0.20   0
   3   2 -14   18.58    0.22   0
   2   2 -14    1.08    0.14   0
   2   2 -14    0.86    0.15   0
   2   2 -14    1.05    0.14   0
  -2  -2  14    1.00    0.14   0
   2   2 -14    1.22    0.14   0
   2   2 -14    1.23    0.14   0
   1   2 -14    5.55    0.16   0
   1   2 -14    6.21    0.16   0
  -1  -2  14    5.80    0.15   0
   1   2 -14    6.34    0.14   0
   1   2 -14    6.43    0.16   0
   1   2 -14    5.92    0.16   0
   0   2 -14    0.10    0.13   0
   0   2 -14    0.08    0.13   0
   0   2 -14    0.20    0.12   0
   0  -2  14    0.15    0.13   0
   0   2 -14   -0.05    0.12   0
  -1   2 -14    0.41    0.14   0
  -1   2 -14    0.29    0.14   0
   1  -2  14    0.22    0.14   0
   1  -2  14    0.35    0.11   0
  -1   2 -14    0.38    0.13   0
  -1   2 -14    0.33    0.12   0
  -2   2 -14    5.87    0.17   0
  -2   2 -14    6.23    0.17   0
  -2   2 -14    6.83    0.17   0
   2  -2  14    7.00    0.17   0
   2  -2  14    6.65    0.16   0
  -2   2 -14    6.76    0.16   0
  -3   2 -14    0.34    0.18   0
  -3   2 -14    0.21    0.17   0
   3  -2  14    0.25    0.17   0
   3  -2  14    0.25    0.15   0
  -3   2 -14    0.27    0.15   0
  -3   2 -14    0.43    0.15   0
  -7  -1  14    0.65    0.15   0
   7   1 -14    0.33    0.16   0
   7   1 -14    0.78    0.13   0
   7   1 -14    0.54    0.15   0
  -6  -1  14    1.87    0.15   0
   6   1 -14    2.14    0.15   0
   6   1 -14    1.89    0.16   0
   6   1 -14    1.66    0.15   0
   6   1 -14    1.79    0.21   0
  -5  -1  14    4.58    0.16   0
   5   1 -14    4.18    0.16   0
   5   1 -14    4.80    0.14   0
   5   1 -14    4.56    0.16   0
   5   1 -14    4.78    0.20   0
  -4  -1  14    0.19    0.13   0
   4   1 -14    0.41    0.12   0
   4   1 -14    0.16    0.14   0
   4   1 -14   -0.04    0.14   0
   4   1 -14    0.19    0.17   0
  -3  -1  14    3.94    0.12   0
   3   1 -14    3.67    0.16   0
   3   1 -14    3.64    0.15   0
  -3  -1  14    3.76    0.16   0
   3   1 -14    3.92    0.16   0
   3   1 -14    3.78    0.16   0
   2   1 -14    1.05    0.15   0
   2   1 -14    1.51    0.14   0
  -2  -1  14    1.17    0.15   0
   2   1 -14    1.22    0.12   0
   2   1 -14    1.38    0.15   0
   1   1 -14    0.18    0.14   0
   1   1 -14    0.27    0.14   0
  -1  -1  14    0.18    0.13   0
   1   1 -14    0.30    0.14   0
   1   1 -14    0.21    0.13   0
   1   1 -14    0.28    0.14   0
   0   1 -14    0.18    0.14   0
   0   1 -14   -0.04    0.13   0
   0  -1  14    0.15    0.14   0
   0   1 -14    0.04    0.14   0
   0   1 -14   -0.08    0.14   0
   0   1 -14    0.16    0.13   0
  -1   1 -14    3.84    0.15   0
  -1   1 -14    3.73    0.16   0
  -1   1 -14    3.91    0.18   0
   1  -1  14    3.89    0.15   0
  -1   1 -14    3.66    0.16   0
  -2   1 -14    2.29    0.16   0
  -2   1 -14    2.42    0.15   0
  -2   1 -14    2.77    0.15   0
   2  -1  14    2.95    0.16   0
   2  -1  14    2.68    0.15   0
  -2   1 -14    2.81    0.15   0
  -3   1 -14    0.39    0.18   0
   3  -1  14    0.11    0.15   0
  -3   1 -14    0.11    0.18   0
   3  -1  14    0.23    0.15   0
  -3   1 -14    0.25    0.14   0
  -3   1 -14    0.32    0.15   0
  -7   0  14    0.17    0.15   0
   7   0 -14    0.03    0.12   0
   7   0 -14   -0.12    0.16   0
   7   0 -14    0.12    0.15   0
  -6   0  14    0.91    0.15   0
   6   0 -14    1.04    0.15   0
   6   0 -14    1.24    0.15   0
   6   0 -14    1.13    0.13   0
  -5   0  14    0.26    0.14   0
   5   0 -14    0.26    0.12   0
   5   0 -14    0.44    0.14   0
   5   0 -14    0.35    0.14   0
  -4   0  14    0.33    0.14   0
   4   0 -14    0.63    0.14   0
  -4   0  14    0.48    0.16   0
   4   0 -14    0.69    0.12   0
   4   0 -14    0.70    0.14   0
   4   0 -14    0.53    0.17   0
  -3   0  14   -0.04    0.11   0
   3   0 -14    0.28    0.14   0
   3   0 -14   -0.10    0.14   0
  -3   0  14    0.24    0.14   0
   3   0 -14    0.12    0.12   0
   3   0 -14    0.04    0.14   0
  -2   0  14    3.35    0.15   0
   2   0 -14    3.25    0.15   0
   2   0 -14    3.61    0.13   0
  -2   0  14    3.11    0.15   0
   2   0 -14    3.34    0.16   0
   2   0 -14    3.41    0.18   0
   1   0 -14    4.84    0.16   0
   1   0 -14    5.67    0.16   0
  -1   0  14    5.37    0.16   0
   1   0 -14    5.46    0.14   0
   1   0 -14    5.62    0.17   0
   0   0 -14    0.20    0.15   0
   0   0 -14    0.39    0.14   0
   0   0  14    0.28    0.14   0
   0   0 -14    0.08    0.15   0
   0   0 -14    0.50    0.13   0
   0   0 -14    0.42    0.14   0
  -1   0 -14    2.39    0.18   0
  -1   0 -14    3.24    0.16   0
   1   0  14    2.79    0.12   0
  -1   0 -14    3.02    0.16   0
  -1   0 -14    2.94    0.15   0
  -1   0 -14    3.12    0.16   0
  -2   0 -14    0.49    0.14   0
  -2   0 -14    0.49    0.16   0
  -2   0 -14    0.44    0.15   0
   2   0  14    0.17    0.15   0
  -2   0 -14    0.46    0.17   0
  -2   0 -14    0.57    0.16   0
  -6   1  14    0.13    0.14   0
   6  -1 -14    0.06    0.12   0
   6  -1 -14    0.17    0.15   0
   6  -1 -14    0.35    0.13   0
  -5   1  14    0.23    0.14   0
   5  -1 -14   -0.07    0.12   0
  -5   1  14    0.13    0.16   0
   5  -1 -14    0.18    0.14   0
   5  -1 -14    0.51    0.15   0
  -4   1  14    0.88    0.14   0
   4  -1 -14    0.51    0.15   0
  -4   1  14    0.76    0.14   0
   4  -1 -14    0.63    0.14   0
   4  -1 -14    0.86    0.15   0
  -3   1  14    0.23    0.11   0
   3  -1 -14    0.22    0.14   0
   3  -1 -14    0.01    0.14   0
  -3   1  14    0.10    0.14   0
   3  -1 -14   -0.15    0.14   0
  -2   1  14    0.32    0.15   0
   2  -1 -14    0.07    0.14   0
   2  -1 -14    0.26    0.14   0
  -2   1  14    0.11    0.14   0
   2  -1 -14    0.11    0.14   0
  -1   1  14    5.46    0.16   0
   1  -1 -14    5.56    0.17   0
   1  -1 -14    6.63    0.17   0
  -1   1  14    5.77    0.17   0
   1  -1 -14    6.30    0.17   0
   0  -1 -14    1.06    0.15   0
   0  -1 -14    1.18    0.15   0
   0   1  14    1.05    0.12   0
   0  -1 -14    0.99    0.15   0
  -1  -1 -14    0.02    0.17   0
  -1  -1 -14    0.21    0.15   0
   1   1  14   -0.16    0.12   0
  -1  -1 -14    0.11    0.14   0
  -1  -1 -14    0.07    0.17   0
  -2  -1 -14   -0.06    0.17   0
  -2  -1 -14    0.08    0.17   0
  -2  -1 -14   -0.07    0.17   0
   2   1  14    0.07    0.15   0
  -2  -1 -14    0.24    0.18   0
  -6   2  14    0.08    0.14   0
   6  -2 -14   -0.12    0.15   0
   6  -2 -14    0.30    0.15   0
   6  -2 -14    0.00    0.13   0
  -5   2  14    0.55    0.14   0
   5  -2 -14    0.40    0.15   0
  -5   2  14    0.44    0.19   0
   5  -2 -14    0.69    0.15   0
   5  -2 -14    0.55    0.12   0
  -4   2  14    0.87    0.14   0
   4  -2 -14    0.56    0.14   0
  -4   2  14    1.06    0.17   0
   4  -2 -14    1.03    0.15   0
   4  -2 -14    1.09    0.15   0
  -3   2  14    0.70    0.14   0
   3  -2 -14    0.57    0.14   0
  -3   2  14    0.32    0.14   0
   3  -2 -14    0.31    0.15   0
   3  -2 -14    0.39    0.14   0
  -2   2  14    0.12    0.11   0
   2  -2 -14    0.00    0.15   0
   2  -2 -14    0.08    0.12   0
  -2   2  14    0.27    0.14   0
   2  -2 -14    0.47    0.17   0
  -1   2  14    0.09    0.14   0
   1  -2 -14    0.27    0.17   0
   1  -2 -14    0.24    0.15   0
  -1   2  14    0.50    0.14   0
   1  -2 -14    0.49    0.14   0
   0   2  14    4.33    0.16   0
   0  -2 -14    3.52    0.18   0
   0  -2 -14    4.41    0.17   0
   0   2  14    3.93    0.16   0
   0  -2 -14    4.27    0.16   0
  -1  -2 -14    2.07    0.19   0
  -1  -2 -14    2.45    0.15   0
   1   2  14    2.06    0.16   0
  -1  -2 -14    2.20    0.16   0
  -1  -2 -14    2.40    0.18   0
  -6   3  14    0.13    0.12   0
   6  -3 -14    0.15    0.13   0
  -6   3  14    0.24    0.19   0
   6  -3 -14    0.42    0.15   0
   6  -3 -14    0.06    0.16   0
  -5   3  14    0.27    0.14   0
   5  -3 -14    0.29    0.12   0
  -5   3  14    0.06    0.17   0
   5  -3 -14    0.05    0.12   0
   5  -3 -14    0.16    0.16   0
  -4   3  14    0.09    0.15   0
   4  -3 -14    0.06    0.14   0
  -4   3  14    0.04    0.14   0
   4  -3 -14    0.19    0.15   0
   4  -3 -14    0.65    0.15   0
  -3   3  14    0.48    0.15   0
   3  -3 -14    0.56    0.15   0
  -3   3  14    0.42    0.15   0
   3  -3 -14    0.82    0.14   0
   3  -3 -14    0.35    0.15   0
  -2   3  14    0.94    0.14   0
   2  -3 -14    0.80    0.15   0
  -2   3  14    0.79    0.15   0
   2  -3 -14    0.95    0.15   0
   2  -3 -14    0.92    0.15   0
  -1   3  14    0.30    0.14   0
   1  -3 -14    0.37    0.15   0
  -1   3  14    0.12    0.14   0
   1  -3 -14    0.35    0.16   0
   1  -3 -14    0.19    0.15   0
   0   3  14    1.59    0.15   0
   0  -3 -14    1.86    0.16   0
   0   3  14    1.63    0.15   0
   0  -3 -14    1.51    0.15   0
   0  -3 -14    1.63    0.18   0
  -5   4  14    0.19    0.14   0
   5  -4 -14    0.11    0.15   0
  -5   4  14    0.11    0.18   0
   5  -4 -14    0.32    0.15   0
   5  -4 -14    0.27    0.16   0
  -4   4  14   -0.06    0.15   0
   4  -4 -14   -0.00    0.15   0
  -4   4  14    0.11    0.15   0
   4  -4 -14    0.40    0.15   0
   4  -4 -14    0.09    0.13   0
  -3   4  14    0.53    0.15   0
   3  -4 -14    0.58    0.15   0
  -3   4  14    0.50    0.15   0
   3  -4 -14    0.50    0.15   0
   3  -4 -14    0.39    0.16   0
  -2   4  14    0.83    0.14   0
   2  -4 -14    0.74    0.18   0
  -2   4  14    0.59    0.18   0
   2  -4 -14    0.64    0.15   0
   2  -4 -14    0.57    0.18   0
  -1   4  14    0.08    0.14   0
   1  -4 -14    0.10    0.17   0
  -1   4  14    0.16    0.15   0
   1  -4 -14    0.10    0.15   0
   1  -4 -14    0.13    0.18   0
   3   7 -15    0.04    0.14   0
   3   7 -15    0.22    0.15   0
   3   7 -15    0.18    0.15   0
   3   7 -15   -0.01    0.12   0
   3   7 -15    0.15    0.14   0
   2   7 -15    0.17    0.11   0
   2   7 -15    0.13    0.15   0
   2   7 -15    0.07    0.15   0
   2   7 -15    0.10    0.13   0
   1   7 -15    0.84    0.12   0
   1   7 -15    0.87    0.15   0
  -1  -7  15    0.78    0.12   0
   1   7 -15    0.64    0.14   0
   1   7 -15    0.92    0.15   0
   0   7 -15    0.97    0.12   0
   0   7 -15    0.81    0.15   0
   0  -7  15    1.06    0.15   0
   0   7 -15    0.70    0.15   0
   0   7 -15    0.83    0.15   0
  -1   7 -15    1.23    0.15   0
  -1   7 -15    0.85    0.15   0
  -1   7 -15    0.86    0.15   0
   1  -7  15    0.91    0.13   0
  -1   7 -15    1.07    0.16   0
   4   6 -15    0.04    0.15   0
   4   6 -15    0.23    0.12   0
   4   6 -15    0.03    0.15   0
   4   6 -15    0.13    0.15   0
   4   6 -15    0.05    0.15   0
   3   6 -15    0.10    0.14   0
   3   6 -15    0.15    0.15   0
   3   6 -15    0.11    0.14   0
   3   6 -15    0.47    0.17   0
   3   6 -15    0.37    0.15   0
   2   6 -15    1.45    0.11   0
   2   6 -15    1.61    0.15   0
   2   6 -15    1.62    0.12   0
   2   6 -15    1.28    0.15   0
   1   6 -15    1.68    0.15   0
   1   6 -15    1.89    0.15   0
  -1  -6  15    2.10    0.15   0
   1   6 -15    2.05    0.16   0
   1   6 -15    1.76    0.14   0
   0   6 -15    0.97    0.15   0
   0   6 -15    1.14    0.15   0
   0  -6  15    1.64    0.12   0
   0   6 -15    1.50    0.14   0
   0   6 -15    1.27    0.15   0
  -1   6 -15    0.44    0.15   0
  -1   6 -15    0.60    0.11   0
   1  -6  15    0.37    0.15   0
  -1   6 -15    0.29    0.14   0
  -1   6 -15    0.28    0.12   0
   5   5 -15    0.08    0.15   0
   5   5 -15    0.18    0.12   0
   5   5 -15    0.10    0.16   0
   5   5 -15    0.40    0.18   0
   5   5 -15    0.09    0.15   0
   4   5 -15    4.98    0.17   0
   4   5 -15    5.10    0.16   0
   4   5 -15    5.21    0.14   0
   4   5 -15    5.15    0.17   0
   4   5 -15    4.95    0.14   0
   3   5 -15    1.23    0.14   0
   3   5 -15    0.92    0.14   0
   3   5 -15    0.67    0.12   0
   3   5 -15    0.96    0.15   0
   3   5 -15    0.98    0.15   0
   2   5 -15    0.47    0.14   0
   2   5 -15    0.41    0.13   0
   2   5 -15    0.38    0.14   0
   2   5 -15    0.26    0.14   0
   2   5 -15    0.13    0.15   0
   1   5 -15    0.49    0.11   0
   1   5 -15    0.44    0.12   0
   1   5 -15    0.81    0.14   0
  -1  -5  15    0.66    0.12   0
   1   5 -15    0.73    0.15   0
   0   5 -15    0.38    0.12   0
   0   5 -15    0.54    0.13   0
   0  -5  15    0.66    0.12   0
   0   5 -15    0.27    0.15   0
   0   5 -15    0.49    0.13   0
  -1   5 -15    0.92    0.15   0
  -1   5 -15    1.05    0.12   0
   1  -5  15    1.09    0.15   0
  -1   5 -15    0.80    0.12   0
  -1   5 -15    1.19    0.15   0
  -2   5 -15    0.65    0.15   0
  -2   5 -15    0.49    0.15   0
   2  -5  15    0.81    0.15   0
  -2   5 -15    0.32    0.14   0
  -2   5 -15    0.29    0.15   0
   5   4 -15    0.21    0.15   0
   5   4 -15    0.21    0.15   0
   5   4 -15   -0.02    0.15   0
   5   4 -15    0.08    0.12   0
   5   4 -15   -0.02    0.18   0
   4   4 -15    0.02    0.14   0
   4   4 -15    0.08    0.15   0
   4   4 -15    0.08    0.11   0
   4   4 -15   -0.03    0.15   0
   4   4 -15    0.12    0.17   0
   3   4 -15    3.72    0.15   0
   3   4 -15    3.23    0.16   0
   3   4 -15    3.76    0.15   0
   3   4 -15    3.87    0.16   0
   3   4 -15    3.98    0.18   0
   2   4 -15    0.33    0.14   0
   2   4 -15    0.36    0.13   0
   2   4 -15    0.26    0.14   0
   2   4 -15    0.30    0.14   0
   2   4 -15    0.60    0.15   0
   1   4 -15    0.01    0.14   0
   1   4 -15    0.24    0.14   0
   1   4 -15    0.16    0.12   0
   1   4 -15    0.38    0.14   0
   0   4 -15    0.63    0.13   0
   0   4 -15    0.84    0.14   0
   0   4 -15    0.95    0.14   0
   0  -4  15    1.10    0.15   0
   0  -4  15    0.91    0.12   0
   0   4 -15    1.00    0.15   0
  -1   4 -15    2.15    0.16   0
  -1   4 -15    2.95    0.15   0
   1  -4  15    3.02    0.15   0
   1  -4  15    2.87    0.15   0
  -1   4 -15    2.81    0.16   0
  -1   4 -15    2.56    0.15   0
  -2   4 -15    2.06    0.16   0
  -2   4 -15    2.14    0.15   0
   2  -4  15    2.15    0.13   0
   2  -4  15    2.01    0.13   0
  -2   4 -15    2.00    0.15   0
  -2   4 -15    1.95    0.15   0
   5   3 -15    0.45    0.12   0
   5   3 -15    0.47    0.15   0
   5   3 -15    0.99    0.15   0
   5   3 -15    0.55    0.12   0
   5   3 -15    0.59    0.18   0
   4   3 -15    0.59    0.14   0
   4   3 -15    0.22    0.14   0
   4   3 -15    0.42    0.14   0
   4   3 -15    0.65    0.15   0
   4   3 -15    0.54    0.17   0
   3   3 -15    2.57    0.15   0
   3   3 -15    2.76    0.15   0
   3   3 -15    2.79    0.12   0
   3   3 -15    2.39    0.13   0
   3   3 -15    2.72    0.16   0
   2   3 -15    7.10    0.14   0
   2   3 -15    7.86    0.14   0
   2   3 -15    8.53    0.17   0
   2   3 -15    8.12    0.17   0
   2   3 -15    8.23    0.18   0
   1   3 -15    0.78    0.14   0
   1   3 -15    0.80    0.15   0
   1   3 -15    0.82    0.14   0
  -1  -3  15    0.55    0.14   0
   1   3 -15    0.46    0.12   0
   1   3 -15    1.01    0.15   0
   0   3 -15    0.81    0.12   0
   0   3 -15    1.04    0.14   0
   0  -3  15    0.91    0.12   0
   0   3 -15    0.90    0.14   0
   0   3 -15    0.96    0.14   0
  -1   3 -15    0.21    0.15   0
  -1   3 -15    0.26    0.14   0
  -1   3 -15    0.23    0.14   0
   1  -3  15    0.16    0.14   0
   1  -3  15    0.15    0.15   0
  -1   3 -15    0.21    0.15   0
  -2   3 -15    1.22    0.16   0
  -2   3 -15    0.96    0.15   0
   2  -3  15    1.07    0.13   0
   2  -3  15    1.15    0.15   0
  -2   3 -15    1.05    0.15   0
  -2   3 -15    1.07    0.17   0
   6   2 -15   -0.14    0.12   0
   6   2 -15    0.12    0.15   0
   6   2 -15   -0.05    0.15   0
   6   2 -15   -0.14    0.21   0
   5   2 -15    0.35    0.15   0
   5   2 -15    0.76    0.16   0
   5   2 -15    0.48    0.15   0
   5   2 -15    0.57    0.16   0
   4   2 -15    1.86    0.12   0
   4   2 -15    1.99    0.15   0
   4   2 -15    2.05    0.15   0
   4   2 -15    2.06    0.15   0
   4   2 -15    2.15    0.16   0
   3   2 -15    0.31    0.12   0
   3   2 -15    0.19    0.14   0
   3   2 -15    0.01    0.14   0
   3   2 -15    0.16    0.14   0
   3   2 -15    0.05    0.17   0
   2   2 -15    4.48    0.13   0
   2   2 -15    4.12    0.16   0
   2   2 -15    4.62    0.13   0
  -2  -2  15    4.51    0.16   0
   2   2 -15    4.76    0.16   0
   2   2 -15    4.76    0.17   0
   1   2 -15    0.50    0.14   0
   1   2 -15    0.52    0.14   0
  -1  -2  15    0.51    0.14   0
   1   2 -15    0.53    0.14   0
   1   2 -15    0.22    0.14   0
   1   2 -15    0.29    0.14   0
   0   2 -15    0.34    0.13   0
   0   2 -15   -0.03    0.14   0
   0   2 -15    0.19    0.14   0
   0  -2  15   -0.10    0.12   0
   0   2 -15    0.23    0.14   0
   0   2 -15    0.17    0.14   0
  -1   2 -15    0.15    0.15   0
  -1   2 -15    0.22    0.14   0
  -1   2 -15    0.19    0.14   0
   1  -2  15    0.34    0.15   0
  -1   2 -15    0.12    0.15   0
  -2   2 -15    5.11    0.16   0
  -2   2 -15    4.94    0.18   0
  -2   2 -15    5.87    0.20   0
   2  -2  15    5.45    0.17   0
   2  -2  15    5.37    0.17   0
  -2   2 -15    5.32    0.14   0
  -6  -1  15    0.89    0.15   0
   6   1 -15    0.97    0.15   0
   6   1 -15    0.92    0.16   0
   6   1 -15    0.59    0.15   0
  -5  -1  15    1.18    0.15   0
   5   1 -15    1.04    0.15   0
   5   1 -15    0.71    0.16   0
   5   1 -15    0.94    0.15   0
   5   1 -15    1.08    0.19   0
   4   1 -15    5.02    0.17   0
   4   1 -15    5.50    0.14   0
   4   1 -15    5.44    0.14   0
   4   1 -15    5.77    0.18   0
   3   1 -15    0.29    0.13   0
   3   1 -15    0.25    0.12   0
  -3  -1  15    0.19    0.16   0
   3   1 -15   -0.06    0.15   0
   3   1 -15    0.32    0.15   0
   2   1 -15   -0.05    0.13   0
   2   1 -15    0.11    0.14   0
  -2  -1  15    0.13    0.14   0
   2   1 -15   -0.04    0.15   0
   2   1 -15    0.14    0.15   0
   2   1 -15    0.08    0.11   0
   1   1 -15    1.02    0.15   0
   1   1 -15    1.15    0.12   0
  -1  -1  15    1.14    0.14   0
   1   1 -15    1.10    0.11   0
   1   1 -15    1.17    0.15   0
   1   1 -15    1.24    0.15   0
   0   1 -15    1.85    0.15   0
   0   1 -15    2.13    0.15   0
   0  -1  15    1.97    0.15   0
   0   1 -15    1.92    0.15   0
   0   1 -15    2.04    0.14   0
   0   1 -15    2.03    0.13   0
  -1   1 -15   -0.04    0.15   0
  -1   1 -15    0.04    0.15   0
   1  -1  15    0.21    0.12   0
  -1   1 -15   -0.02    0.15   0
  -1   1 -15   -0.02    0.15   0
  -1   1 -15    0.13    0.15   0
  -6   0  15    0.38    0.15   0
   6   0 -15    0.16    0.15   0
   6   0 -15    0.31    0.12   0
  -5   0  15    0.60    0.15   0
   5   0 -15    0.35    0.12   0
   5   0 -15    0.49    0.15   0
   5   0 -15    0.25    0.15   0
   4   0 -15    0.47    0.15   0
  -4   0  15    0.83    0.15   0
   4   0 -15    0.51    0.15   0
  -4   0  15    0.46    0.15   0
   4   0 -15    0.48    0.15   0
   4   0 -15    0.61    0.15   0
  -3   0  15    0.92    0.12   0
   3   0 -15    0.81    0.15   0
   3   0 -15    0.70    0.15   0
  -3   0  15    0.81    0.15   0
   3   0 -15    0.86    0.15   0
   3   0 -15    0.83    0.15   0
   2   0 -15    0.75    0.14   0
   2   0 -15    0.54    0.15   0
  -2   0  15    0.55    0.15   0
   2   0 -15    0.37    0.15   0
   2   0 -15    0.50    0.15   0
   1   0 -15    2.10    0.16   0
   1   0 -15    2.63    0.16   0
  -1   0  15    2.46    0.15   0
   1   0 -15    2.49    0.16   0
   1   0 -15    2.59    0.16   0
   0   0 -15    1.48    0.16   0
   0   0 -15    1.75    0.16   0
   0   0  15    1.58    0.15   0
   0   0 -15    1.64    0.15   0
   0   0 -15    1.52    0.15   0
   0   0 -15    1.51    0.15   0
  -1   0 -15   -0.07    0.15   0
  -1   0 -15    0.09    0.18   0
  -1   0 -15    0.15    0.14   0
  -1   0 -15    0.16    0.18   0
   1   0  15    0.12    0.12   0
  -1   0 -15    0.23    0.18   0
  -5   1  15    0.23    0.12   0
   5  -1 -15    0.05    0.15   0
  -5   1  15    0.02    0.17   0
   5  -1 -15   -0.09    0.15   0
   5  -1 -15   -0.04    0.15   0
  -4   1  15    0.62    0.12   0
   4  -1 -15    0.62    0.13   0
  -4   1  15    0.75    0.17   0
   4  -1 -15    0.51    0.13   0
   4  -1 -15    0.53    0.15   0
  -3   1  15    0.08    0.15   0
   3  -1 -15    0.15    0.14   0
  -3   1  15   -0.10    0.14   0
   3  -1 -15    0.27    0.15   0
   3  -1 -15    0.30    0.12   0
  -2   1  15    0.55    0.12   0
   2  -1 -15    0.54    0.15   0
   2  -1 -15    0.50    0.12   0
  -2   1  15    0.67    0.15   0
   2  -1 -15    0.56    0.15   0
   1  -1 -15    1.02    0.15   0
   1  -1 -15    1.18    0.15   0
  -1   1  15    1.32    0.15   0
   1  -1 -15    1.15    0.16   0
   0  -1 -15    0.10    0.16   0
   0  -1 -15    0.38    0.16   0
   0   1  15    0.23    0.15   0
   0  -1 -15    0.11    0.15   0
   0  -1 -15    0.28    0.15   0
  -5   2  15   -0.00    0.12   0
   5  -2 -15    0.28    0.16   0
  -5   2  15    0.21    0.17   0
   5  -2 -15    0.17    0.13   0
   5  -2 -15    0.15    0.16   0
  -4   2  15    0.44    0.12   0
   4  -2 -15    0.55    0.15   0
  -4   2  15    0.58    0.15   0
   4  -2 -15    0.58    0.15   0
   4  -2 -15    0.40    0.15   0
  -3   2  15   -0.10    0.15   0
   3  -2 -15    0.06    0.15   0
  -3   2  15    0.10    0.15   0
   3  -2 -15   -0.12    0.15   0
   3  -2 -15    0.34    0.15   0
  -2   2  15    0.78    0.14   0
   2  -2 -15    0.85    0.15   0
  -2   2  15    0.40    0.15   0
   2  -2 -15    0.88    0.15   0
   2  -2 -15    0.80    0.15   0
  -1   2  15    1.22    0.15   0
   1  -2 -15    0.92    0.18   0
  -1   2  15    0.96    0.13   0
   1  -2 -15    1.15    0.16   0
   1  -2 -15    1.14    0.16   0
  -3   3  15    0.28    0.15   0
   3  -3 -15    0.21    0.15   0
  -3   3  15    0.43    0.15   0
   3  -3 -15    0.27    0.15   0
   3  -3 -15    0.24    0.15   0
  -2   3  15    0.23    0.15   0
   3   5 -16    1.36    0.15   0
   3   5 -16    1.51    0.15   0
   3   5 -16    1.18    0.14   0
   3   5 -16    1.08    0.15   0
   3   5 -16    1.23    0.17   0
   2   5 -16    1.20    0.15   0
   2   5 -16    1.34    0.14   0
   2   5 -16    1.15    0.14   0
   2   5 -16    1.01    0.15   0
   2   5 -16    1.32    0.16   0
   1   5 -16    0.32    0.14   0
   1   5 -16    0.01    0.15   0
   1   5 -16    0.26    0.14   0
   1   5 -16    0.11    0.15   0
   0   5 -16    0.16    0.15   0
   0   5 -16    0.20    0.14   0
   0  -5  16    0.07    0.15   0
   0   5 -16    0.00    0.15   0
   0   5 -16   -0.00    0.14   0
   4   4 -16    0.20    0.18   0
   3   4 -16   -0.02    0.12   0
   3   4 -16   -0.13    0.14   0
   3   4 -16   -0.00    0.12   0
   3   4 -16    0.17    0.15   0
   3   4 -16    0.35    0.14   0
   2   4 -16    0.14    0.15   0
   2   4 -16   -0.00    0.15   0
   2   4 -16    0.09    0.14   0
   2   4 -16    0.03    0.15   0
   2   4 -16    0.27    0.16   0
   1   4 -16    0.34    0.13   0
   1   4 -16    0.59    0.14   0
   1   4 -16    0.51    0.11   0
   1   4 -16    0.40    0.15   0
   1   4 -16    0.36    0.15   0
   0   4 -16    1.01    0.15   0
   0   4 -16    1.05    0.16   0
   0   4 -16    0.97    0.15   0
   0   4 -16    0.97    0.16   0
   4   3 -16    0.03    0.15   0
   4   3 -16    0.05    0.14   0
   4   3 -16    0.07    0.12   0
   4   3 -16    0.13    0.15   0
   4   3 -16    0.26    0.16   0
   3   3 -16    0.71    0.15   0
   3   3 -16    0.42    0.14   0
   3   3 -16    0.46    0.14   0
   3   3 -16    0.77    0.15   0
   3   3 -16    0.66    0.15   0
   2   3 -16    0.15    0.14   0
   2   3 -16    0.06    0.13   0
   2   3 -16    0.30    0.15   0
   2   3 -16   -0.08    0.12   0
   2   3 -16    0.22    0.15   0
   1   3 -16    0.52    0.15   0
   1   3 -16    0.17    0.15   0
  -1  -3  16    0.39    0.14   0
   1   3 -16    0.09    0.15   0
   1   3 -16    0.36    0.14   0
   1   3 -16    0.16    0.15   0
   0   3 -16    1.13    0.16   0
   0   3 -16    0.95    0.15   0
   0   3 -16    0.96    0.14   0
   0  -3  16    0.84    0.12   0
   0   3 -16    1.14    0.16   0
   4   2 -16    0.17    0.12   0
   4   2 -16    0.37    0.15   0
   4   2 -16    0.45    0.15   0
   4   2 -16    0.49    0.15   0
   4   2 -16    0.19    0.16   0
   3   2 -16    0.23    0.15   0
   3   2 -16    0.31    0.15   0
   3   2 -16    0.19    0.14   0
   3   2 -16    0.28    0.12   0
   3   2 -16   -0.17    0.18   0
   2   2 -16    0.07    0.13   0
   2   2 -16    0.25    0.15   0
  -2  -2  16    0.11    0.14   0
   2   2 -16    0.23    0.12   0
   2   2 -16   -0.11    0.15   0
   2   2 -16    0.07    0.14   0
   1   2 -16   -0.17    0.15   0
   1   2 -16    0.11    0.14   0
   1   2 -16   -0.12    0.14   0
  -1  -2  16    0.20    0.12   0
   1   2 -16    0.25    0.15   0
   1   2 -16   -0.05    0.15   0
   0   2 -16    0.81    0.16   0
   0   2 -16    1.17    0.15   0
   0  -2  16    0.81    0.15   0
   0   2 -16    0.88    0.12   0
   0   2 -16    0.83    0.15   0
   0   2 -16    1.11    0.16   0
   4   1 -16   -0.06    0.15   0
   4   1 -16    0.26    0.15   0
   4   1 -16    0.25    0.13   0
   4   1 -16    0.02    0.18   0
   3   1 -16    0.68    0.15   0
   3   1 -16    0.38    0.13   0
  -3  -1  16    0.73    0.17   0
   3   1 -16    0.75    0.15   0
   3   1 -16    0.49    0.18   0
   2   1 -16    0.44    0.11   0
   2   1 -16    0.23    0.15   0
   2   1 -16    0.44    0.15   0
  -2  -1  16    0.42    0.15   0
   2   1 -16    0.51    0.15   0
   2   1 -16    0.63    0.15   0
   1   1 -16    1.19    0.16   0
   1   1 -16    1.13    0.15   0
  -1  -1  16    1.05    0.15   0
   1   1 -16    1.12    0.16   0
   1   1 -16    1.01    0.12   0
   1   1 -16    1.22    0.15   0
   4   0 -16    0.21    0.15   0
   4   0 -16    0.34    0.15   0
   3   0 -16    0.06    0.13   0
  -3   0  16   -0.09    0.17   0
   3   0 -16    0.06    0.15   0
   3   0 -16    0.24    0.15   0
   2   0 -16    2.21    0.16   0
   2   0 -16    1.80    0.13   0
   2   0 -16    1.93    0.16   0
  -2   0  16    1.91    0.19   0
   2   0 -16    2.21    0.16   0
;
_shelx_hkl_checksum              54882
_shelx_res_file
;
    shelx.res created by SHELXL-2014/7
TITL abulut76 in P -1
CELL  0.71073   7.9645  10.3576  12.7222  101.576  101.640  100.566
ZERR     2.00   0.0005   0.0006   0.0007    0.005    0.005    0.005
LATT   1
SFAC  C    H    N    O    S
UNIT  30 38 14 8 4
MERG   2
OMIT    -2   1   2
OMIT    -2   0   2
MPLA C7 S2 C8 N3 N2
MPLA C1 C2 C3 C4 C5 C6
Mpla N5 C13 C12 C11 N6 C10
EQIV $1 x+1, y, z+1
HTAB C15 O2_$1
HTAB N2 N5
HTAB N7 N1
EQIV $2 x+1, y, z
HTAB N7 N4_$2
EQIV $3 -x+1, -y+1, -z+2
HTAB N4 N6_$3
EQIV $4 x-1, y, z
HTAB N4 O1_$4
HTAB C15 O2_$1
HTAB N2 N5
HTAB N7 N1
HTAB N7 N4_$2
HTAB N4 N6_$3
HTAB N4 O1_$4
HTAB C15 O2_$1
HTAB N2 N5
HTAB N4 N6_$3
HTAB N4 O1_$4
HTAB N7 N1
HTAB N7 N4_$2
HTAB C15 O2_$1
HTAB N2 N5
HTAB N4 N6_$3
HTAB N4 O1_$4
HTAB N7 N1
HTAB N7 N4_$2
HTAB C15 O2_$1
HTAB N2 N5
HTAB N4 N6_$3
HTAB N4 O1_$4
HTAB N7 N1
HTAB N7 N4_$2
FMAP   2
PLAN   20
ACTA
BOND   $H
CONF
L.S.   4
WGHT    0.059800    0.222300
FVAR       0.23183
C1    1    0.294052    0.319947    0.692707    11.00000    0.03650    0.04004 =
         0.03657    0.01314    0.00112    0.00939
C2    1    0.340600    0.453254    0.754143    11.00000    0.03890    0.03982 =
         0.04953    0.01285    0.00429    0.00154
AFIX  43
H2C   2    0.453588    0.505285    0.764131    11.00000   -1.20000
AFIX   0
C3    1    0.220197    0.509095    0.800522    11.00000    0.04890    0.03396 =
         0.04925    0.00748    0.00548    0.00525
AFIX  43
H3    2    0.252468    0.598869    0.841322    11.00000   -1.20000
AFIX   0
C4    1    0.050417    0.432507    0.786979    11.00000    0.04294    0.03968 =
         0.03721    0.01466    0.00384    0.01096
C5    1    0.004429    0.297675    0.724583    11.00000    0.03457    0.03987 =
         0.04663    0.01071    0.00196    0.00439
AFIX  43
H5    2   -0.108306    0.245237    0.714630    11.00000   -1.20000
AFIX   0
C6    1    0.124472    0.242349    0.678014    11.00000    0.03878    0.03584 =
         0.04344    0.00715   -0.00099    0.00632
AFIX  43
H6    2    0.092565    0.152876    0.636564    11.00000   -1.20000
AFIX   0
C7    1    0.429332    0.016588    0.677711    11.00000    0.03592    0.04620 =
         0.03554    0.00945    0.00329    0.01163
C8    1    0.279705   -0.222457    0.609517    11.00000    0.05624    0.04981 =
         0.04407    0.01255    0.00595    0.00002
C9    1    0.169392   -0.359030    0.545889    11.00000    0.09391    0.05497 =
         0.05699    0.01343   -0.00014   -0.01622
AFIX  33
H9A   2    0.101870   -0.352337    0.476419    11.00000   -1.50000
H9B   2    0.244318   -0.420139    0.532599    11.00000   -1.50000
H9C   2    0.091007   -0.392493    0.587707    11.00000   -1.50000
AFIX   0
C10   1    0.811379    0.153065    0.997611    11.00000    0.04292    0.04546 =
         0.03507    0.01403    0.00789    0.01368
C11   1    0.954394    0.099832    1.148948    11.00000    0.05135    0.05153 =
         0.03290    0.01088    0.00359    0.01660
C12   1    0.856668   -0.032986    1.112181    11.00000    0.05894    0.04705 =
         0.03828    0.01892    0.00313    0.01511
AFIX  43
H12   2    0.872702   -0.097491    1.152291    11.00000   -1.20000
AFIX   0
C13   1    0.734492   -0.062888    1.012452    11.00000    0.04613    0.04385 =
         0.03759    0.01364    0.00810    0.01205
C14   1    0.648548   -0.293121    1.014977    11.00000    0.08129    0.04595 =
         0.06170    0.02314   -0.00367    0.00223
AFIX  33
H14A  2    0.566454   -0.375371    0.971231    11.00000   -1.50000
H14B  2    0.766564   -0.305446    1.022477    11.00000   -1.50000
H14C  2    0.625924   -0.270657    1.086955    11.00000   -1.50000
AFIX   0
C15   1    1.186515    0.262126    1.287279    11.00000    0.08068    0.06576 =
         0.04840    0.01009   -0.01711    0.00680
AFIX  33
H15A  2    1.264466    0.267808    1.357130    11.00000   -1.50000
H15B  2    1.254482    0.280327    1.235365    11.00000   -1.50000
H15C  2    1.116191    0.327557    1.296920    11.00000   -1.50000
AFIX   0
N1    3    0.504776    0.147085    0.709602    11.00000    0.04510    0.04396 =
         0.03964    0.01090   -0.00372    0.01366
N2    3    0.466762   -0.065970    0.742665    11.00000    0.05114    0.04512 =
         0.04116    0.01191   -0.00400    0.00753
N3    3    0.383864   -0.200933    0.705913    11.00000    0.06179    0.04513 =
         0.04861    0.01406    0.00201    0.00253
N4    3   -0.069613    0.486838    0.836441    11.00000    0.04774    0.04456 =
         0.05489    0.01100    0.01090    0.01245
N5    3    0.709049    0.028785    0.954161    11.00000    0.04540    0.04645 =
         0.03573    0.01533    0.00281    0.01089
N6    3    0.936629    0.195147    1.094684    11.00000    0.04624    0.04454 =
         0.03619    0.00879    0.00428    0.01280
N7    3    0.787839    0.246548    0.939689    11.00000    0.06307    0.04782 =
         0.04962    0.02191   -0.00491    0.00446
O1    4    0.601162    0.354993    0.652182    11.00000    0.04302    0.05979 =
         0.07064    0.02524    0.01510    0.00884
O2    4    0.360478    0.174303    0.522297    11.00000    0.06255    0.06519 =
         0.03566    0.01440    0.00563    0.02142
O3    4    1.074011    0.129204    1.246237    11.00000    0.07766    0.05970 =
         0.04298    0.01418   -0.01504    0.01120
O4    4    0.628771   -0.185897    0.961845    11.00000    0.06342    0.04668 =
         0.04755    0.01825   -0.00433    0.00316
S1    5    0.447592    0.247841    0.634602    11.00000    0.03895    0.04737 =
         0.03968    0.01532    0.00461    0.01207
S2    5    0.276610   -0.080310    0.556450    11.00000    0.05107    0.05093 =
         0.03676    0.00978   -0.00223    0.00431
H2    2    0.541183   -0.037419    0.805876    11.00000    0.06589
H4A   2   -0.043108    0.574716    0.851000    11.00000    0.05661
H4B   2   -0.176347    0.455436    0.803533    11.00000    0.04902
H7A   2    0.713207    0.220429    0.879725    11.00000    0.05974
H7B   2    0.860092    0.324366    0.963391    11.00000    0.05530
HKLF 4
REM  abulut76 in P -1
REM R1 =  0.0451 for    3910 Fo > 4sig(Fo)  and  0.0533 for all    4515 data
REM    273 parameters refined using      0 restraints
END
WGHT      0.0599      0.2223
REM Highest difference peak  0.383,  deepest hole -0.284,  1-sigma level  0.053
Q1    1   0.2837 -0.1592  0.5815  11.00000  0.05    0.38
Q2    1   0.1938 -0.4220  0.5944  11.00000  0.05    0.38
Q3    1   0.4692  0.1896  0.6706  11.00000  0.05    0.37
Q4    1   0.5055  0.0904  0.6833  11.00000  0.05    0.25
Q5    1   0.2200 -0.3842  0.4726  11.00000  0.05    0.25
Q6    1   0.0129 -0.3446  0.5238  11.00000  0.05    0.24
Q7    1   0.9478  0.1404  1.1061  11.00000  0.05    0.23
Q8    1   0.4608 -0.0170  0.6994  11.00000  0.05    0.22
Q9    1   0.3562  0.2843  0.6644  11.00000  0.05    0.21
Q10   1   0.5574  0.1390  0.7191  11.00000  0.05    0.21
Q11   1   0.3714 -0.0271  0.6171  11.00000  0.05    0.19
Q12   1   0.9315 -0.1112  1.1408  11.00000  0.05    0.19
Q13   1   0.7086 -0.0035  0.9881  11.00000  0.05    0.19
Q14   1   0.9504  0.2646  1.1205  11.00000  0.05    0.18
Q15   1   0.8820  0.1810  1.0488  11.00000  0.05    0.17
Q16   1   0.3994 -0.2591  0.7361  11.00000  0.05    0.17
Q17   1   0.8828 -0.0884  1.1262  11.00000  0.05    0.17
Q18   1   0.3592  0.1287  0.5565  11.00000  0.05    0.16
Q19   1   0.8785  0.0383  1.1340  11.00000  0.05    0.16
Q20   1   0.9190  0.0257  1.1202  11.00000  0.05    0.15
;
_shelx_res_checksum              16218
loop_
_space_group_symop_operation_xyz
'x, y, z'
'-x, -y, -z'
loop_
_atom_site_type_symbol
_atom_site_label
_atom_site_fract_x
_atom_site_fract_y
_atom_site_fract_z
_atom_site_U_iso_or_equiv
_atom_site_adp_type
_atom_site_calc_flag
_atom_site_occupancy
C C1 0.2941(2) 0.31995(17) 0.69271(13) 0.0383(3) Uani d 1
C C2 0.3406(2) 0.45325(18) 0.75414(15) 0.0445(4) Uani d 1
H H2C 0.4536 0.5053 0.7641 0.053 Uiso calc 1
C C3 0.2202(2) 0.50910(18) 0.80052(15) 0.0460(4) Uani d 1
H H3 0.2525 0.5989 0.8413 0.055 Uiso calc 1
C C4 0.0504(2) 0.43251(17) 0.78698(13) 0.0399(3) Uani d 1
C C5 0.0044(2) 0.29768(17) 0.72458(14) 0.0421(4) Uani d 1
H H5 -0.1083 0.2452 0.7146 0.051 Uiso calc 1
C C6 0.1245(2) 0.24235(17) 0.67801(14) 0.0417(4) Uani d 1
H H6 0.0926 0.1529 0.6366 0.050 Uiso calc 1
C C7 0.4293(2) 0.01659(18) 0.67771(13) 0.0399(3) Uani d 1
C C8 0.2797(3) -0.2225(2) 0.60952(16) 0.0525(4) Uani d 1
C C9 0.1694(4) -0.3590(2) 0.5459(2) 0.0760(7) Uani d 1
H H9A 0.1019 -0.3523 0.4764 0.114 Uiso calc 1
H H9B 0.2443 -0.4201 0.5326 0.114 Uiso calc 1
H H9C 0.0910 -0.3925 0.5877 0.114 Uiso calc 1
C C10 0.8114(2) 0.15307(18) 0.99761(13) 0.0404(4) Uani d 1
C C11 0.9544(3) 0.0998(2) 1.14895(14) 0.0456(4) Uani d 1
C C12 0.8567(3) -0.03299(19) 1.11218(14) 0.0478(4) Uani d 1
H H12 0.8727 -0.0975 1.1523 0.057 Uiso calc 1
C C13 0.7345(2) -0.06289(18) 1.01245(14) 0.0421(4) Uani d 1
C C14 0.6485(3) -0.2931(2) 1.0150(2) 0.0664(6) Uani d 1
H H14A 0.5665 -0.3754 0.9712 0.100 Uiso calc 1
H H14B 0.7666 -0.3054 1.0225 0.100 Uiso calc 1
H H14C 0.6259 -0.2707 1.0870 0.100 Uiso calc 1
C C15 1.1865(4) 0.2621(3) 1.28728(18) 0.0719(7) Uani d 1
H H15A 1.2645 0.2678 1.3571 0.108 Uiso calc 1
H H15B 1.2545 0.2803 1.2354 0.108 Uiso calc 1
H H15C 1.1162 0.3276 1.2969 0.108 Uiso calc 1
N N1 0.5048(2) 0.14709(15) 0.70960(12) 0.0445(3) Uani d 1
N N2 0.4668(2) -0.06597(16) 0.74267(13) 0.0484(4) Uani d 1
N N3 0.3839(2) -0.20093(17) 0.70591(14) 0.0546(4) Uani d 1
N N4 -0.0696(2) 0.48684(19) 0.83644(15) 0.0493(4) Uani d 1
N N5 0.7090(2) 0.02878(15) 0.95416(11) 0.0428(3) Uani d 1
N N6 0.9366(2) 0.19515(15) 1.09468(12) 0.0431(3) Uani d 1
N N7 0.7878(3) 0.2465(2) 0.93969(16) 0.0560(4) Uani d 1
O O1 0.60116(18) 0.35499(15) 0.65218(13) 0.0567(3) Uani d 1
O O2 0.36048(19) 0.17430(15) 0.52230(10) 0.0543(3) Uani d 1
O O3 1.0740(2) 0.12920(16) 1.24624(11) 0.0650(4) Uani d 1
O O4 0.62877(19) -0.18590(14) 0.96184(11) 0.0556(3) Uani d 1
S S1 0.44759(6) 0.24784(5) 0.63460(3) 0.04182(13) Uani d 1
S S2 0.27661(7) -0.08031(5) 0.55645(4) 0.04938(14) Uani d 1
H H2 0.541(3) -0.037(3) 0.806(2) 0.066(7) Uiso d 1
H H4A -0.043(3) 0.575(3) 0.8510(18) 0.057(6) Uiso d 1
H H4B -0.176(3) 0.455(2) 0.8035(18) 0.049(6) Uiso d 1
H H7A 0.713(3) 0.220(2) 0.880(2) 0.060(7) Uiso d 1
H H7B 0.860(3) 0.324(3) 0.9634(19) 0.055(6) Uiso d 1
loop_
_atom_site_aniso_label
_atom_site_aniso_U_11
_atom_site_aniso_U_22
_atom_site_aniso_U_33
_atom_site_aniso_U_12
_atom_site_aniso_U_13
_atom_site_aniso_U_23
C1 0.0365(8) 0.0400(8) 0.0366(7) 0.0094(7) 0.0011(6) 0.0131(6)
C2 0.0389(9) 0.0398(9) 0.0495(9) 0.0015(7) 0.0043(7) 0.0128(7)
C3 0.0489(10) 0.0340(8) 0.0492(9) 0.0052(7) 0.0055(8) 0.0075(7)
C4 0.0429(9) 0.0397(8) 0.0372(8) 0.0110(7) 0.0038(6) 0.0147(6)
C5 0.0346(8) 0.0399(9) 0.0466(9) 0.0044(7) 0.0020(7) 0.0107(7)
C6 0.0388(8) 0.0358(8) 0.0434(8) 0.0063(7) -0.0010(7) 0.0072(6)
C7 0.0359(8) 0.0462(9) 0.0355(8) 0.0116(7) 0.0033(6) 0.0094(7)
C8 0.0562(11) 0.0498(11) 0.0441(9) 0.0000(9) 0.0060(8) 0.0126(8)
C9 0.0939(18) 0.0550(13) 0.0570(13) -0.0162(12) -0.0001(12) 0.0134(10)
C10 0.0429(9) 0.0455(9) 0.0351(8) 0.0137(7) 0.0079(7) 0.0140(7)
C11 0.0513(10) 0.0515(10) 0.0329(8) 0.0166(8) 0.0036(7) 0.0109(7)
C12 0.0589(11) 0.0471(10) 0.0383(8) 0.0151(8) 0.0031(8) 0.0189(7)
C13 0.0461(9) 0.0438(9) 0.0376(8) 0.0121(7) 0.0081(7) 0.0136(7)
C14 0.0813(15) 0.0459(11) 0.0617(12) 0.0022(11) -0.0037(11) 0.0231(10)
C15 0.0807(16) 0.0658(14) 0.0484(11) 0.0068(12) -0.0171(11) 0.0101(10)
N1 0.0451(8) 0.0440(8) 0.0396(7) 0.0137(6) -0.0037(6) 0.0109(6)
N2 0.0511(9) 0.0451(8) 0.0412(8) 0.0075(7) -0.0040(7) 0.0119(6)
N3 0.0618(10) 0.0451(9) 0.0486(9) 0.0025(8) 0.0020(7) 0.0141(7)
N4 0.0477(9) 0.0446(9) 0.0549(9) 0.0124(7) 0.0109(7) 0.0110(7)
N5 0.0454(8) 0.0464(8) 0.0357(7) 0.0109(6) 0.0028(6) 0.0153(6)
N6 0.0462(8) 0.0445(8) 0.0362(7) 0.0128(6) 0.0043(6) 0.0088(6)
N7 0.0631(11) 0.0478(10) 0.0496(9) 0.0045(9) -0.0049(8) 0.0219(8)
O1 0.0430(7) 0.0598(8) 0.0706(9) 0.0088(6) 0.0151(6) 0.0252(7)
O2 0.0626(8) 0.0652(9) 0.0357(6) 0.0214(7) 0.0056(6) 0.0144(6)
O3 0.0777(10) 0.0597(9) 0.0430(7) 0.0112(8) -0.0150(7) 0.0142(6)
O4 0.0634(9) 0.0467(7) 0.0476(7) 0.0032(6) -0.0043(6) 0.0183(6)
S1 0.0390(2) 0.0474(2) 0.0397(2) 0.01207(18) 0.00461(16) 0.01532(17)
S2 0.0511(3) 0.0509(3) 0.0368(2) 0.0043(2) -0.00223(18) 0.00978(18)
loop_
_atom_type_symbol
_atom_type_description
_atom_type_scat_dispersion_real
_atom_type_scat_dispersion_imag
_atom_type_scat_source
C C 0.0033 0.0016 'International Tables Vol C Tables 4.2.6.8 and 6.1.1.4'
H H 0.0000 0.0000 'International Tables Vol C Tables 4.2.6.8 and 6.1.1.4'
N N 0.0061 0.0033 'International Tables Vol C Tables 4.2.6.8 and 6.1.1.4'
O O 0.0106 0.0060 'International Tables Vol C Tables 4.2.6.8 and 6.1.1.4'
S S 0.1246 0.1234 'International Tables Vol C Tables 4.2.6.8 and 6.1.1.4'
loop_
_geom_angle_atom_site_label_1
_geom_angle_atom_site_label_2
_geom_angle_atom_site_label_3
_geom_angle
C2 C1 C6 119.65(16)
C2 C1 S1 120.42(13)
C6 C1 S1 119.92(13)
C3 C2 C1 120.25(17)
C3 C2 H2C 119.9
C1 C2 H2C 119.9
C2 C3 C4 120.73(17)
C2 C3 H3 119.6
C4 C3 H3 119.6
N4 C4 C3 121.00(17)
N4 C4 C5 120.36(17)
C3 C4 C5 118.62(16)
C6 C5 C4 120.56(16)
C6 C5 H5 119.7
C4 C5 H5 119.7
C5 C6 C1 120.20(16)
C5 C6 H6 119.9
C1 C6 H6 119.9
N1 C7 N2 120.79(15)
N1 C7 S2 131.24(13)
N2 C7 S2 107.97(13)
N3 C8 C9 123.13(19)
N3 C8 S2 115.29(16)
C9 C8 S2 121.58(16)
C8 C9 H9A 109.5
C8 C9 H9B 109.5
H9A C9 H9B 109.5
C8 C9 H9C 109.5
H9A C9 H9C 109.5
H9B C9 H9C 109.5
N5 C10 N7 116.88(16)
N5 C10 N6 126.51(15)
N7 C10 N6 116.61(17)
N6 C11 O3 119.99(18)
N6 C11 C12 124.48(16)
O3 C11 C12 115.53(16)
C13 C12 C11 115.43(16)
C13 C12 H12 122.3
C11 C12 H12 122.3
N5 C13 O4 112.31(15)
N5 C13 C12 123.03(17)
O4 C13 C12 124.66(16)
O4 C14 H14A 109.5
O4 C14 H14B 109.5
H14A C14 H14B 109.5
O4 C14 H14C 109.5
H14A C14 H14C 109.5
H14B C14 H14C 109.5
O3 C15 H15A 109.5
O3 C15 H15B 109.5
H15A C15 H15B 109.5
O3 C15 H15C 109.5
H15A C15 H15C 109.5
H15B C15 H15C 109.5
C7 N1 S1 120.34(12)
C7 N2 N3 118.54(15)
C7 N2 H2 122.1(17)
N3 N2 H2 119.4(17)
C8 N3 N2 109.41(16)
C4 N4 H4A 111.3(15)
C4 N4 H4B 116.1(15)
H4A N4 H4B 111(2)
C10 N5 C13 116.13(14)
C11 N6 C10 114.42(16)
C10 N7 H7A 116.6(17)
C10 N7 H7B 117.5(15)
H7A N7 H7B 125(2)
C11 O3 C15 119.04(16)
C13 O4 C14 117.21(15)
O1 S1 O2 117.78(9)
O1 S1 N1 106.72(8)
O2 S1 N1 111.25(8)
O1 S1 C1 107.18(9)
O2 S1 C1 107.85(8)
N1 S1 C1 105.32(8)
C8 S2 C7 88.79(9)
loop_
_geom_bond_atom_site_label_1
_geom_bond_atom_site_label_2
_geom_bond_distance
C1 C2 1.385(2)
C1 C6 1.395(2)
C1 S1 1.7544(17)
C2 C3 1.377(3)
C2 H2C 0.9300
C3 C4 1.395(3)
C3 H3 0.9300
C4 N4 1.387(2)
C4 C5 1.402(2)
C5 C6 1.374(2)
C5 H5 0.9300
C6 H6 0.9300
C7 N1 1.318(2)
C7 N2 1.334(2)
C7 S2 1.7437(17)
C8 N3 1.286(2)
C8 C9 1.492(3)
C8 S2 1.741(2)
C9 H9A 0.9600
C9 H9B 0.9600
C9 H9C 0.9600
C10 N5 1.332(2)
C10 N7 1.346(2)
C10 N6 1.356(2)
C11 N6 1.325(2)
C11 O3 1.341(2)
C11 C12 1.385(3)
C12 C13 1.373(2)
C12 H12 0.9300
C13 N5 1.336(2)
C13 O4 1.344(2)
C14 O4 1.427(2)
C14 H14A 0.9600
C14 H14B 0.9600
C14 H14C 0.9600
C15 O3 1.429(3)
C15 H15A 0.9600
C15 H15B 0.9600
C15 H15C 0.9600
N1 S1 1.6142(14)
N2 N3 1.372(2)
N2 H2 0.86(3)
N4 H4A 0.87(2)
N4 H4B 0.84(2)
N7 H7A 0.83(3)
N7 H7B 0.86(3)
O1 S1 1.4387(15)
O2 S1 1.4396(14)
loop_
_geom_hbond_atom_site_label_D
_geom_hbond_atom_site_label_H
_geom_hbond_atom_site_label_A
_geom_hbond_site_symmetry_A
_geom_hbond_distance_DH
_geom_hbond_distance_HA
_geom_hbond_distance_DA
_geom_hbond_angle_DHA
N2 H2 N5 . 0.86(3) 1.99(3) 2.842(2) 179(2)
N4 H4A N6 2_667 0.87(2) 2.29(3) 3.151(2) 172(2)
N4 H4B O1 1_455 0.84(2) 2.25(2) 3.026(2) 153.4(19)
N7 H7A N1 . 0.83(3) 2.33(3) 3.160(2) 179(2)
N7 H7B N4 1_655 0.86(3) 2.62(2) 3.176(3) 123.7(18)
loop_
_geom_torsion_atom_site_label_1
_geom_torsion_atom_site_label_2
_geom_torsion_atom_site_label_3
_geom_torsion_atom_site_label_4
_geom_torsion
C6 C1 C2 C3 0.0(2)
S1 C1 C2 C3 -179.37(13)
C1 C2 C3 C4 0.3(3)
C2 C3 C4 N4 177.91(16)
C2 C3 C4 C5 -0.4(3)
N4 C4 C5 C6 -178.20(15)
C3 C4 C5 C6 0.1(2)
C4 C5 C6 C1 0.2(2)
C2 C1 C6 C5 -0.2(2)
S1 C1 C6 C5 179.10(12)
N6 C11 C12 C13 -0.2(3)
O3 C11 C12 C13 -179.89(16)
C11 C12 C13 N5 -0.4(3)
C11 C12 C13 O4 178.95(17)
N2 C7 N1 S1 -175.32(13)
S2 C7 N1 S1 5.0(2)
N1 C7 N2 N3 179.62(17)
S2 C7 N2 N3 -0.6(2)
C9 C8 N3 N2 180.0(2)
S2 C8 N3 N2 0.5(2)
C7 N2 N3 C8 0.1(3)
N7 C10 N5 C13 179.77(16)
N6 C10 N5 C13 -0.5(3)
O4 C13 N5 C10 -178.71(15)
C12 C13 N5 C10 0.7(3)
O3 C11 N6 C10 -179.90(16)
C12 C11 N6 C10 0.4(3)
N5 C10 N6 C11 0.0(3)
N7 C10 N6 C11 179.69(17)
N6 C11 O3 C15 -2.9(3)
C12 C11 O3 C15 176.8(2)
N5 C13 O4 C14 178.00(17)
C12 C13 O4 C14 -1.4(3)
C7 N1 S1 O1 -149.25(15)
C7 N1 S1 O2 -19.54(18)
C7 N1 S1 C1 97.05(15)
C2 C1 S1 O1 -7.28(16)
C6 C1 S1 O1 173.37(13)
C2 C1 S1 O2 -135.02(14)
C6 C1 S1 O2 45.64(15)
C2 C1 S1 N1 106.10(14)
C6 C1 S1 N1 -73.24(14)
N3 C8 S2 C7 -0.68(18)
C9 C8 S2 C7 179.8(2)
N1 C7 S2 C8 -179.59(19)
N2 C7 S2 C8 0.67(14)

_cod_database_fobs_code 1543574
