#------------------------------------------------------------------------------
#$Date: 2016-05-06 05:23:21 +0300 (Fri, 06 May 2016) $
#$Revision: 182804 $
#$URL: svn://www.crystallography.net/cod/cif/1/54/30/1543058.cif $
#------------------------------------------------------------------------------
#
# This file is available in the Crystallography Open Database (COD),
# http://www.crystallography.net/
#
# All data on this site have been placed in the public domain by the
# contributors.
#
data_1543058
loop_
_publ_author_name
'Hiscock, Jennifer R.'
'Bustone, Gianluca P.'
'Wilson, Ben'
'Belsey, Kate E.'
'Blackholly, Laura R.'
_publ_section_title
;
 In situ modification of nanostructure configuration through the
 manipulation of hydrogen bonded amphiphile self-association.
;
_journal_issue                   18
_journal_name_full               'Soft matter'
_journal_page_first              4221
_journal_paper_doi               10.1039/c6sm00529b
_journal_volume                  12
_journal_year                    2016
_chemical_formula_moiety         'C18 H20 F6 K2 N4 O10 S2'
_chemical_formula_sum            'C18 H20 F6 K2 N4 O10 S2'
_chemical_formula_weight         708.70
_chemical_name_systematic
;
 ?
;
_space_group_crystal_system      monoclinic
_space_group_IT_number           14
_space_group_name_Hall           '-P 2yn'
_space_group_name_H-M_alt        'P 1 21/n 1'
_symmetry_space_group_name_Hall  '-P 2yn'
_symmetry_space_group_name_H-M   'P 1 21/n 1'
_atom_sites_solution_hydrogens   mixed
_audit_creation_date             2016-02-25
_audit_creation_method
;
Olex2 1.2
(compiled 2015.09.30 svn.r3233 for OlexSys, GUI svn.r5103)
;
_cell_angle_alpha                90
_cell_angle_beta                 95.7583(19)
_cell_angle_gamma                90
_cell_formula_units_Z            4
_cell_length_a                   9.22908(18)
_cell_length_b                   7.25364(12)
_cell_length_c                   38.9707(9)
_cell_measurement_reflns_used    9615
_cell_measurement_temperature    100.00(10)
_cell_measurement_theta_max      72.7750
_cell_measurement_theta_min      4.5590
_cell_volume                     2595.71(9)
_computing_cell_refinement       'CrysAlisPro 1.171.38.41 (Rigaku OD, 2015)'
_computing_data_collection       'CrysAlisPro 1.171.38.41 (Rigaku OD, 2015)'
_computing_data_reduction        'CrysAlisPro 1.171.38.41 (Rigaku OD, 2015)'
_computing_molecular_graphics    'Olex2 (Dolomanov et al., 2009)'
_computing_publication_material  'Olex2 (Dolomanov et al., 2009)'
_computing_structure_refinement  'ShelXL (Sheldrick, 2015)'
_computing_structure_solution    'ShelXT (Sheldrick, 2015)'
_diffrn_ambient_environment      N~2~
_diffrn_ambient_temperature      100.00(10)
_diffrn_detector                 'CCD plate'
_diffrn_detector_area_resol_mean 5.2887
_diffrn_detector_type            AtlasS2
_diffrn_measured_fraction_theta_full 0.997
_diffrn_measured_fraction_theta_max 0.997
_diffrn_measurement_details
;
List of Runs (angles in degrees, time in seconds):

--------------------------------------------------------------------------
  1  \w   -115.00 -16.00   1.00   14.93    --  -40.37 -38.00-120.00   99
  2  \w    -65.00  34.00   1.00   14.93    --  -40.37  38.00   0.00   99
  3  \w   -115.00 -16.00   1.00   14.93    --  -40.37 -38.00-180.00   99
  4  \w   -113.00 -67.00   1.00   14.93    --  -40.37-134.00 -12.00   46
  5  \w      1.00  81.00   1.00   14.93    --   40.37 -99.00-150.00   80
  6  \w      1.00  81.00   1.00   14.93    --   40.37 -99.00  60.00   80
  7  \w     33.00 134.00   1.00   55.94    --  105.19 -61.00 -90.00  101
  8  \w     57.00 151.00   1.00   55.94    --  105.19 178.00-180.00   94
  9  \w     29.00 116.00   1.00   55.94    --  105.19-111.00 150.00   87
 10  \w     76.00 177.00   1.00   55.94    --  105.19  61.00 -90.00  101
 11  \w     29.00 116.00   1.00   55.94    --  105.19-111.00 -30.00   87
 12  \w    100.00 178.00   1.00   55.94    --  105.19 111.00-180.00   78
 13  \w     29.00 133.00   1.00   55.94    --  105.19 -30.00  30.00  104
 14  \w     29.00 133.00   1.00   55.94    --  105.19 -30.00 120.00  104
 15  \w     29.00 138.00   1.00   55.94    --  105.19 -77.00 150.00  109
 16  \w     24.00 158.00   1.00   55.94    --  105.19 -15.00-120.00  134
 17  \w   -113.00 -62.00   1.00   14.93    --  -40.37 -57.00  90.00   51
 18  \w   -113.00 -12.00   1.00   14.93    --  -40.37 -57.00   0.00  101
;
_diffrn_measurement_device       'four-circle diffractometer'
_diffrn_measurement_device_type  'SuperNova, Dual, Cu at zero, AtlasS2'
_diffrn_measurement_method       '\w scans'
_diffrn_orient_matrix_type
'CrysAlisPro convention (1999,Acta A55,543-557)'
_diffrn_orient_matrix_UB_11      0.0239266000
_diffrn_orient_matrix_UB_12      0.0767642000
_diffrn_orient_matrix_UB_13      0.0369902000
_diffrn_orient_matrix_UB_21      -0.0107109000
_diffrn_orient_matrix_UB_22      -0.1966380000
_diffrn_orient_matrix_UB_23      0.0145020000
_diffrn_orient_matrix_UB_31      0.1656667000
_diffrn_orient_matrix_UB_32      -0.0238327000
_diffrn_orient_matrix_UB_33      -0.0003706000
_diffrn_radiation_monochromator  mirror
_diffrn_radiation_probe          x-ray
_diffrn_radiation_type           CuK\a
_diffrn_radiation_wavelength     1.54184
_diffrn_reflns_av_R_equivalents  0.0551
_diffrn_reflns_av_unetI/netI     0.0362
_diffrn_reflns_Laue_measured_fraction_full 0.997
_diffrn_reflns_Laue_measured_fraction_max 0.997
_diffrn_reflns_limit_h_max       11
_diffrn_reflns_limit_h_min       -9
_diffrn_reflns_limit_k_max       8
_diffrn_reflns_limit_k_min       -8
_diffrn_reflns_limit_l_max       46
_diffrn_reflns_limit_l_min       -46
_diffrn_reflns_number            23171
_diffrn_reflns_point_group_measured_fraction_full 0.997
_diffrn_reflns_point_group_measured_fraction_max 0.997
_diffrn_reflns_theta_full        67.684
_diffrn_reflns_theta_max         68.251
_diffrn_reflns_theta_min         6.516
_diffrn_source                   'micro-focus sealed X-ray tube'
_diffrn_source_type              'SuperNova (Cu) X-ray Source'
_exptl_absorpt_coefficient_mu    5.716
_exptl_absorpt_correction_T_max  1.00000
_exptl_absorpt_correction_T_min  0.74227
_exptl_absorpt_correction_type   multi-scan
_exptl_absorpt_process_details
;
CrysAlisPro 1.171.38.41 (Rigaku Oxford Diffraction, 2015)
Empirical absorption correction using spherical harmonics,
 implemented in SCALE3 ABSPACK scaling algorithm.
;
_exptl_crystal_colour            'clear colourless'
_exptl_crystal_colour_lustre     clear
_exptl_crystal_colour_primary    colourless
_exptl_crystal_density_diffrn    1.813
_exptl_crystal_description       plate
_exptl_crystal_F_000             1440
_exptl_crystal_size_max          0.061
_exptl_crystal_size_mid          0.056
_exptl_crystal_size_min          0.019
_refine_diff_density_max         0.638
_refine_diff_density_min         -0.517
_refine_diff_density_rms         0.075
_refine_ls_extinction_method     none
_refine_ls_goodness_of_fit_ref   1.103
_refine_ls_hydrogen_treatment    mixed
_refine_ls_matrix_type           full
_refine_ls_number_parameters     395
_refine_ls_number_reflns         4737
_refine_ls_number_restraints     0
_refine_ls_restrained_S_all      1.103
_refine_ls_R_factor_all          0.0479
_refine_ls_R_factor_gt           0.0418
_refine_ls_shift/su_max          0.000
_refine_ls_shift/su_mean         0.000
_refine_ls_structure_factor_coef Fsqd
_refine_ls_weighting_details
'w=1/[\s^2^(Fo^2^)+(0.0393P)^2^+3.9620P] where P=(Fo^2^+2Fc^2^)/3'
_refine_ls_weighting_scheme      calc
_refine_ls_wR_factor_gt          0.1007
_refine_ls_wR_factor_ref         0.1040
_reflns_Friedel_coverage         0.000
_reflns_number_gt                4173
_reflns_number_total             4737
_reflns_threshold_expression     'I > 2\s(I)'
_cod_data_source_file            c6sm00529b2.cif
_cod_data_source_block           2016jrh0001
_cod_depositor_comments
'Adding full bibliography for 1543057--1543058.cif.'
_cod_original_cell_volume        2595.70(9)
_cod_database_code               1543058
_shelxl_version_number           2013-4
_chemical_oxdiff_formula         'C21 H26 N2 O5 F3 S1 K1'
_shelx_space_group_comment
;
The symmetry employed for this shelxl refinement is uniquely defined
by the following loop, which should always be used as a source of
symmetry information in preference to the above space-group names.
They are only intended as comments.
;
_reflns_odcompleteness_completeness 99.96
_reflns_odcompleteness_iscentric 1
_reflns_odcompleteness_theta     66.97
_olex2_refinement_description
;
1. Fixed Uiso
 At 1.2 times of:
  All C(H) groups, All C(H,H) groups, All N(H) groups
2.a Secondary CH2 refined with riding coordinates:
 C9(H9C,H9D), C18(H18A,H18B)
2.b Aromatic/amide H refined with riding coordinates:
 N2(H2), N4(H4), N1(H1), N3(H3), C13(H13), C7(H7), C3(H3A), C4(H4A), C12(H12),
 C16(H16), C6(H6), C15(H15)
;
_shelx_res_file
;
TITL 2016jrh0001_a.res in P2(1)/n
REM Old TITL 2016jrh0001 in P21/n #14
REM SHELXT solution in P2(1)/n
REM R1 0.105, Rweak 0.131, Alpha 0.030, Orientation as input
REM Formula found by SHELXT: C19 O2 O9 F6 S2 K2
CELL 1.54184 9.22908 7.253643 38.970659 90 95.7583 90
ZERR 4 0.000176 0.000117 0.000937 0 0.0019 0
LATT 1
SYMM 0.5-X,0.5+Y,0.5-Z
SFAC C H F K N O S
UNIT 72 80 24 8 16 40 8
EQIV $1 +X,1+Y,+Z

L.S. 16
PLAN  5
HTAB O10 O8_$1
HTAB N2 O5
BOND $H
LIST 6
MORE -1
CONF
fmap 2
acta
SHEL 7 0.83
OMIT -2 8 4
OMIT 0 8 4
OMIT -7 2 1
OMIT -9 5 4
OMIT -7 2 3
REM <olex2.extras>
REM <HklSrc "%.\\2016jrh0001.hkl">
REM </olex2.extras>

WGHT    0.039300    3.962000
FVAR       2.86645
K1    4    0.689717   -0.135106    0.484639    11.00000    0.01788    0.01195 =
         0.02587    0.00100    0.00406   -0.00036
K2    4    0.164486    0.594231    0.486313    11.00000    0.01748    0.01471 =
         0.03728   -0.00152    0.00121    0.00000
S1    7    0.524392    0.339217    0.459174    11.00000    0.01430    0.01106 =
         0.02170    0.00042    0.00399    0.00036
S2    7    0.035846    0.100683    0.448483    11.00000    0.01550    0.01202 =
         0.02258    0.00148    0.00312   -0.00039
F6    3    0.332201    1.289724    0.301899    11.00000    0.02992    0.02898 =
         0.04749    0.00944    0.00472   -0.00850
F2    3    0.759876    1.226187    0.262609    11.00000    0.04194    0.02801 =
         0.03029    0.00640    0.01129   -0.00432
F3    3    0.838240    1.333593    0.312347    11.00000    0.04091    0.03081 =
         0.04148    0.00289    0.00265   -0.01876
O3    6    0.584911    0.211156    0.485960    11.00000    0.02091    0.01395 =
         0.02313    0.00282    0.00365    0.00332
O1    6    0.731418    0.500937    0.387346    11.00000    0.01374    0.02008 =
         0.02644    0.00378    0.00388    0.00082
O7    6    0.137465   -0.047975    0.459290    11.00000    0.01891    0.01564 =
         0.03086    0.00419    0.00305    0.00238
O6    6    0.045586    0.255058    0.472301    11.00000    0.02610    0.01568 =
         0.02376   -0.00238    0.00507   -0.00141
O4    6    0.366203    0.352555    0.457416    11.00000    0.01470    0.02351 =
         0.02664    0.00041    0.00420    0.00072
O8    6   -0.112956    0.034700    0.440318    11.00000    0.01638    0.02088 =
         0.03177    0.00213    0.00235   -0.00331
F1    3    0.618154    1.383465    0.291329    11.00000    0.03745    0.02026 =
         0.07355    0.01498    0.02080    0.00990
F4    3    0.110473    1.332403    0.281047    11.00000    0.02775    0.03356 =
         0.08221    0.03068    0.01317    0.00865
O2    6    0.595228    0.518466    0.461457    11.00000    0.02584    0.01185 =
         0.03065   -0.00081    0.00551   -0.00346
O5    6    0.226309    0.443486    0.372094    11.00000    0.01346    0.02342 =
         0.03621    0.00669    0.00587    0.00223
F5    3    0.249249    1.157642    0.254737    11.00000    0.05258    0.04480 =
         0.03440    0.00983    0.01526   -0.00815
O10   6   -0.108422    0.643316    0.450061    11.00000    0.02581    0.01949 =
         0.03178   -0.00154    0.00097   -0.00149
O9    6    0.421900   -0.167098    0.433037    11.00000    0.03588    0.02290 =
         0.03903    0.00307    0.00560    0.00148
N2    5    0.514479    0.353094    0.390644    11.00000    0.01359    0.01765 =
         0.02314    0.00296    0.00190    0.00001
AFIX  43
H2    2    0.427875    0.336255    0.380792    11.00000   -1.20000
AFIX   0
N4    5    0.023294    0.337925    0.394549    11.00000    0.01378    0.01886 =
         0.02860    0.00506    0.00586    0.00306
AFIX  43
H4    2   -0.066068    0.358304    0.397833    11.00000   -1.20000
AFIX   0
N1    5    0.524659    0.602456    0.355553    11.00000    0.01331    0.01899 =
         0.02853    0.00663    0.00130   -0.00098
AFIX  43
H1    2    0.434904    0.576575    0.349355    11.00000   -1.20000
AFIX   0
N3    5    0.013502    0.602204    0.361855    11.00000    0.01238    0.02011 =
         0.03091    0.00702    0.00472    0.00229
AFIX  43
H3    2   -0.077456    0.604969    0.364929    11.00000   -1.20000
AFIX   0
C13   1    0.199258    0.833902    0.354095    11.00000    0.01978    0.02001 =
         0.02106    0.00120    0.00310    0.00303
AFIX  43
H13   2    0.253283    0.793767    0.374131    11.00000   -1.20000
AFIX   0
C8    1    0.598644    0.486789    0.378764    11.00000    0.01585    0.01496 =
         0.02147   -0.00091    0.00587    0.00063
C17   1    0.096419    0.460010    0.376061    11.00000    0.01853    0.01657 =
         0.02009    0.00069    0.00236    0.00064
C5    1    0.582497    0.761060    0.340794    11.00000    0.01729    0.01345 =
         0.02721    0.00276    0.00701    0.00313
C14   1    0.069975    0.744795    0.342376    11.00000    0.01850    0.01513 =
         0.02412    0.00109    0.00606    0.00351
C11   1    0.166853    1.042154    0.305903    11.00000    0.01942    0.01926 =
         0.02955    0.00343    0.00839    0.00365
C7    1    0.582149    0.962045    0.291787    11.00000    0.02260    0.01918 =
         0.02166    0.00044    0.00420    0.00338
AFIX  43
H7    2    0.550216    0.990066    0.268990    11.00000   -1.20000
AFIX   0
C9    1    0.566331    0.239098    0.419231    11.00000    0.01945    0.01275 =
         0.02415    0.00057    0.00434    0.00234
AFIX  23
H9C   2    0.670902    0.223823    0.419631    11.00000   -1.20000
H9D   2    0.521674    0.118225    0.416545    11.00000   -1.20000
AFIX   0
C18   1    0.095695    0.174808    0.408581    11.00000    0.01750    0.01705 =
         0.02587    0.00293    0.00563    0.00256
AFIX  23
H18A  2    0.199586    0.198460    0.412003    11.00000   -1.20000
H18B  2    0.079891    0.075736    0.391908    11.00000   -1.20000
AFIX   0
C2    1    0.675457    1.080870    0.311097    11.00000    0.01905    0.01581 =
         0.02787    0.00003    0.00774    0.00071
C3    1    0.722614    1.040218    0.345098    11.00000    0.02277    0.01732 =
         0.02750   -0.00217    0.00350   -0.00208
AFIX  43
H3A   2    0.785751    1.120174    0.357855    11.00000   -1.20000
AFIX   0
C4    1    0.675897    0.880411    0.360200    11.00000    0.02280    0.01845 =
         0.02359    0.00085    0.00245    0.00111
AFIX  43
H4A   2    0.706795    0.853402    0.383098    11.00000   -1.20000
AFIX   0
C12   1    0.247681    0.982977    0.335847    11.00000    0.01552    0.01896 =
         0.02928   -0.00145    0.00565    0.00140
AFIX  43
H12   2    0.333862    1.042705    0.343687    11.00000   -1.20000
AFIX   0
C1    1    0.723412    1.253997    0.294625    11.00000    0.02264    0.02147 =
         0.03011    0.00272    0.00716   -0.00089
C16   1    0.039731    0.950420    0.293874    11.00000    0.02410    0.02331 =
         0.02727    0.00530    0.00111    0.00335
AFIX  43
H16   2   -0.013046    0.988953    0.273557    11.00000   -1.20000
AFIX   0
C6    1    0.536635    0.800987    0.306666    11.00000    0.01929    0.01854 =
         0.02596   -0.00062    0.00239    0.00020
AFIX  43
H6    2    0.475290    0.719796    0.293711    11.00000   -1.20000
AFIX   0
C15   1   -0.009078    0.802038    0.311887    11.00000    0.01791    0.02112 =
         0.03076    0.00147    0.00204   -0.00154
AFIX  43
H15   2   -0.094152    0.740910    0.303684    11.00000   -1.20000
AFIX   0
C10   1    0.215407    1.204729    0.286338    11.00000    0.02143    0.02808 =
         0.03481    0.00886    0.00639    0.00363
H10A  2   -0.095297    0.740319    0.442366    11.00000    0.04653
H9A   2    0.450015   -0.293343    0.439246    11.00000    0.08996
H10B  2   -0.166145    0.591780    0.432366    11.00000    0.05600
H9B   2    0.320574   -0.130742    0.442949    11.00000    0.13154
HKLF 4

REM  2016jrh0001_a.res in P2(1)/n
REM R1 =  0.0418 for    4173 Fo > 4sig(Fo)  and  0.0479 for all    4737 data
REM    395 parameters refined using      0 restraints

END

WGHT      0.0393      3.9611

REM Highest difference peak  0.638,  deepest hole -0.517,  1-sigma level  0.075
Q1    1   0.1600  0.6016  0.4604  11.00000  0.05    0.64
Q2    1   0.6953 -0.1310  0.5109  11.00000  0.05    0.49
Q3    1   0.1605  0.5998  0.5152  11.00000  0.05    0.47
Q4    1   0.5322  0.3322  0.4352  11.00000  0.05    0.46
Q5    1   0.6884 -0.1318  0.4588  11.00000  0.05    0.46
;
_shelx_res_checksum              41399
_shelx_hkl_file
;
   0   0   3-18.3638 71.1696   1
   0   0   4 105140. 1569.17   3
   0   0   4 103957. 1584.92   1
   0   0   5-54.9732 103.387   1
   0   0  -5 15.5251 112.146  18
   0   0   5 137.719 113.086   3
   0   0   6 147328. 2270.01   3
   0   0   6 149869. 2306.07   1
   0   0  -6 152299. 2569.19  18
   0   0  -7 118.231 181.249  18
   0   0   7-190.617 187.373   1
   0   0   7 7.88777 147.313   3
   0   0   8 14112.4 837.820   3
   0   0   8 13414.5 819.594   1
   0   0   9 476.598 311.469   1
   0   0  -9 525.671 390.826  18
   0   0   9 303.900 335.868   3
   0   0  10 5201.28 619.700   1
   0   0 -10 6275.20 709.814  18
   0   0  10 5322.68 616.379   3
   0   0  11 56.3632 254.844   1
   0   0 -11 184.737 277.330  18
   0   0  11 121.226 249.598   3
   0   0  12 502577. 6135.10   3
   0   0 -12 530855. 6872.54  18
   0   0  13 166.699 246.625   3
   0   0 -13 337.064 290.157  18
   0   0 -14 4803.92 721.146  18
   0   0  14 2677.29 567.663   3
   0   0 -15 143.142 285.186  18
   0   0  15-127.270 289.097   3
   0   0  16 5245.57 787.913   3
   0   0 -16 3800.03 731.374  18
   0   0  17 366.056 367.447   3
   0   0 -17 399.200 399.073  18
   0   0  18 11322.2 1225.55   3
   0   0 -18 12018.0 1376.16  18
   0   0 -19-24.0300 273.054  18
   0   0  19-179.658 276.684   3
   0   0 -20 130350. 4549.33  18
   0   0  20 135123. 4375.07   3
   0   0  21-42.2947 296.581   3
   0   0 -21 210.476 435.518  18
   0   0  22 13294.0 1489.10   3
   0   0 -22 11442.9 1435.23  18
   0   0 -23-243.606 297.242  18
   0   0  23 243.327 340.727   3
   0   0  24 51.0832 371.107   3
   0   0 -24-153.861 390.357  18
   0   0  25 135.360 396.969   3
   0   0 -25 386.958 469.038  18
   0   0  26-294.257 402.286   3
   0   0 -26 1290.92 617.917  18
   0   0  27 72.3814 351.495   3
   0   0  27-239.855 367.136  16
   0   0 -27-199.544 411.271  18
   0   0 -28 30612.4 1581.57  14
   0   0  28 29806.6 1821.92  16
   0   0 -28 26916.8 2616.79  18
   0   0  28 29539.7 2606.11   3
   0   0  29-413.011 600.986   3
   0   0 -29-131.027 225.554  14
   0   0 -29 534.859 455.623  18
   0   0  29 314.892 263.534  16
   0   0 -30 52633.1 3788.89  18
   0   0  30 58450.6 2647.48  16
   0   0 -30 58153.6 2255.83  14
   0   0  30 56291.7 3713.07   3
   0   0 -31 160.673 217.289  14
   0   0  31 490.486 508.296   3
   0   0 -31-8.44273 467.056  18
   0   0  31-77.3736 300.724  16
   0   0 -32 47041.0 2065.87  14
   0   0  32 49344.3 2506.03  16
   0   0 -32 49656.8 3528.09   5
   0   0  32 43055.7 3389.65   3
   0   0 -32 39681.0 3300.24  18
   0   0 -33-102.471 244.188  14
   0   0  33 5.54548 294.519  16
   0   0  34 52917.7 2662.40  16
   0   0 -34 52846.8 2222.52  14
   0   0 -35 70.3203 209.536  14
   0   0  35 225.467 319.772  16
   0   0 -36 27776.4 1620.34  14
   0   0  36 30310.1 2054.74  16
   0   0  37 112.145 351.945  16
   0   0 -37 22.6934 214.111  14
   0   0  38 10355.6 1175.63  16
   0   0 -38 10274.8 966.728  14
   0   0 -39-114.451 206.741  14
   0   0  39-18.2136 281.281  16
   0   0 -40 38593.6 1778.75  14
   0   0  40 36981.6 2192.64  16
   0   0  41 132.216 153.297  12
   0   0  41 338.548 395.355  16
   0   0 -41 416.499 274.678  14
   0   0  42 437.087 335.312  16
   0   0  42 1305.91 280.449  12
   0   0 -42 994.767 284.430  14
   0   0  43 395.931 177.199  12
   0   0  43 46.6035 251.035  16
   0   0  44 1823.77 489.184  16
   0   0  45-34.1562 237.108  16
   0   0  46 1034.88 351.040  16
   0   0  47 136.626 188.767  16
   0  -1   0 74.4916 104.772   1
   0  -1   0 25.3286 58.3238   6
   0   1   0-29.5345 97.9076   2
   0  -1   1 14159.3 452.746   6
   0  -1   1 14895.4 625.661   1
   0   1   1 14161.7 623.643   2
   0  -1  -1 14655.4 451.258   6
   0   1  -1 14103.1 616.856   2
   0  -1  -2 64036.4 1561.34  18
   0   1   2 60643.8 1323.75   3
   0  -1   2 61076.3 1059.85   6
   0   1   2 61044.6 1313.01   2
   0   1  -2 60103.4 1394.91   2
   0  -1   2 61875.3 1320.14   1
   0   1  -3-168.474 140.283   2
   0  -1   3 41.9321 116.673   1
   0   1   3-13.8950 124.919   2
   0   1   3-28.4885 140.759   3
   0   1  -3-81.3512 130.996  17
   0  -1  -3 82.4591 129.916  18
   0   1   4 14421.0 735.541   3
   0   1  -4 14361.6 790.560   2
   0  -1   4 13831.6 712.814   1
   0   1  -4 13354.5 371.132   5
   0   1  -4 14945.4 835.554  17
   0  -1  -4 15937.2 866.108  18
   0   1   4 14955.0 738.622   2
   0   1  -5 102445. 2162.44   2
   0  -1  -5 109252. 2370.34  18
   0   1  -5 103490. 2309.82  17
   0  -1   5 94580.2 1960.64   1
   0   1   5 96360.3 1992.14   3
   0   1   6 243777. 3390.65   3
   0  -1   6 246267. 3373.90   1
   0   1  -6 241199. 2194.97   5
   0  -1  -7 125446. 2898.19  18
   0  -1   7 129879. 2595.72   1
   0  -1   7 125330. 2354.22   3
   0   1   7 130251. 2662.88   3
   0  -1  -8 339593. 4976.95  18
   0  -1   8 316138. 3959.89   3
   0   1  -8 322627. 4909.35  17
   0   1   8 330671. 4449.74   3
   0   1  -8 308284. 4144.81  18
   0  -1   8 325316. 4320.67   1
   0  -1   9 187039. 3533.63   1
   0   1   9 195671. 3572.09   3
   0   1  -9 178840. 3351.73  18
   0  -1  -9 191538. 3874.55  18
   0   1  -9 185777. 3884.63  17
   0  -1   9 183549. 3200.53   3
   0   1 -10 49757.9 1901.28  18
   0  -1 -10 53345.2 2137.77  18
   0   1  10 54137.2 1969.09   3
   0  -1  10 49533.5 1751.42   3
   0  -1 -10 47689.5 1249.66   4
   0   1 -10 53563.1 2192.09  17
   0  -1  10 49228.7 1891.12   1
   0  -1 -11 27304.4 923.974   4
   0  -1  11 25644.3 919.860   4
   0  -1  11 26896.2 1493.48   1
   0  -1 -11 29561.3 1701.13  18
   0   1 -11 28624.1 1718.95  17
   0   1  11 31027.6 1574.04   3
   0  -1  11 26819.2 1376.25   3
   0   1 -11 27091.7 1472.96  18
   0   1  12 26262.8 1545.93   3
   0  -1  12 25922.7 1563.27   1
   0   1 -12 24625.6 1473.29  18
   0  -1 -12 25320.8 859.048   4
   0  -1  12 25060.1 1401.60   3
   0  -1 -12 25194.2 1618.70  18
   0   1 -12 25673.3 1667.93  17
   0  -1  12 24291.0 857.891   4
   0  -1  13 109995. 3235.68   1
   0   1 -13 115827. 3687.42  17
   0   1 -13 111855. 3269.47  18
   0   1  13 112841. 3205.19   3
   0  -1  13 97195.6 1655.55   4
   0  -1 -13 103749. 1687.63   4
   0  -1 -13 120343. 3620.26  18
   0  -1  13 108761. 2999.96   3
   0   1 -14 23787.1 1589.00  18
   0  -1 -14 23886.3 1694.48  18
   0  -1  14 21564.8 740.200   4
   0   1  14 26104.3 1625.83   3
   0  -1  14 25638.3 1553.14   3
   0   1 -14 24432.7 1788.87  17
   0  -1  14 27262.4 1701.15   1
   0  -1 -14 21901.9 709.821   4
   0   1  15 4126.39 692.009   3
   0  -1  15 3861.98 717.373   1
   0   1 -15 4045.17 713.351  18
   0  -1 -15 5015.31 870.582  18
   0  -1  15 3899.88 682.702   3
   0   1 -15 4478.19 872.453  17
   0  -1 -16 124442. 4154.89  18
   0  -1  16 122228. 3806.80   1
   0   1 -16 116484. 3806.76  18
   0   1  16 115591. 3650.75   3
   0  -1  16 113696. 3538.24   3
   0   1 -17 732.332 344.590  18
   0  -1 -17 479.729 449.994  18
   0  -1  17 14.9694 250.807   3
   0   1  17 401.060 362.570   3
   0  -1  17 281.852 326.562   1
   0   1 -18 39385.9 2354.23  18
   0  -1  18 39125.6 2311.48   1
   0  -1 -18 44461.3 2617.20  18
   0  -1  18 41545.3 2273.30   3
   0   1  18 39234.7 2317.80   3
   0  -1 -19 5890.71 1039.97  18
   0  -1  19 6116.78 941.508   3
   0   1 -19 5394.17 921.499  18
   0  -1  19 6145.27 1036.43   1
   0   1  19 5453.69 898.294   3
   0  -1  20 56020.6 3033.35   1
   0   1  20 57155.3 2980.57   3
   0   1 -20 59461.3 3086.00  18
   0  -1  20 60378.8 2932.55   3
   0  -1 -20 61138.5 3367.97  18
   0  -1  21 8871.44 1187.86   3
   0  -1 -21 9641.49 1367.60  18
   0   1  21 8451.89 1212.55   3
   0   1 -21 7704.20 1175.66  18
   0   1 -22 23695.0 2076.26  18
   0  -1  22 24227.8 1980.50   3
   0   1  22 25305.5 2104.56   3
   0  -1 -22 24380.6 2221.50  18
   0  -1  23 29754.1 2284.10   3
   0   1  23 29793.8 2403.98   3
   0  -1 -23 26933.9 2374.31  18
   0   1 -23 25617.3 2188.11  18
   0   1  24 12428.0 1613.48   3
   0  -1  24 13472.8 1568.80   3
   0   1 -24 13332.5 1629.84  18
   0  -1 -24 14671.9 1820.18  18
   0   1 -25 6679.76 1193.47  18
   0  -1  25 7092.44 1134.89   3
   0   1  25 6500.36 1218.52   3
   0  -1 -25 7310.76 1315.26  18
   0  -1  26 4769.58 986.344   3
   0   1 -26 5511.89 1122.33  18
   0  -1 -26 5276.65 1148.31  18
   0   1  26 4250.40 1062.15   3
   0  -1 -27 34108.2 1668.51  14
   0   1  27 35883.3 1885.34  16
   0  -1 -27 34814.1 2980.36  18
   0  -1  27 34143.2 2680.82   3
   0  -1 -27 30600.4 2538.05  13
   0  -1  27 39192.2 2096.92  16
   0   1  27 33254.7 2773.31   3
   0   1 -27 32563.7 2710.98  18
   0  -1  28 774.909 221.685   7
   0  -1 -28 355.815 377.555  18
   0   1  28 1164.68 528.371   3
   0  -1  28 1136.97 621.969   3
   0  -1  28 854.591 466.481  16
   0  -1 -28 814.350 306.975  14
   0  -1 -28 521.637 497.794  13
   0   1 -28 749.040 445.232  18
   0   1  28 779.153 358.293  16
   0   1 -28 920.687 316.633  14
   0   1 -29 4169.34 1010.87  18
   0  -1  29 3585.78 953.220   3
   0   1 -29 5441.28 693.853  14
   0  -1  29 3781.13 512.951   7
   0   1  29 4414.65 962.212   3
   0  -1 -29 4769.48 683.952  14
   0  -1 -29 3492.84 1030.32  18
   0   1  29 4875.36 754.601  16
   0  -1 -29 4220.25 1077.15  13
   0  -1  29 5033.89 778.348  16
   0  -1  30 3729.87 508.889   7
   0  -1 -30 6032.16 1260.15  13
   0  -1  30 4164.60 1029.32   3
   0  -1 -30 3951.06 614.056  14
   0  -1 -30 4725.02 1198.81  18
   0   1 -30 4351.28 623.832  14
   0   1  30 4398.88 748.987  16
   0  -1  30 4851.91 827.065  16
   0   1  30 4524.34 1108.74   3
   0  -1  31 63.6402 319.349   3
   0  -1 -31 183.017 180.271  14
   0  -1  31-22.9952 267.505  16
   0  -1 -31 123.157 393.721  18
   0  -1  31 377.757 231.333   7
   0  -1 -31 1006.09 629.565  13
   0   1  31 142.666 246.091  16
   0   1 -31-12.8393 204.834  14
   0   1  31 223.074 314.611   3
   0  -1 -32 2233.85 473.451  14
   0  -1  32 2625.68 619.335  16
   0   1  32 2437.45 577.115  16
   0  -1  32 2433.08 814.967   3
   0  -1 -32 2417.17 908.290  18
   0  -1  32 2326.45 440.027   7
   0   1 -32 2774.00 539.721  14
   0   1  32 1394.83 614.164   3
   0  -1  33 1347.42 337.165   7
   0   1  33 1940.52 569.925  16
   0   1 -33 1959.94 504.914  14
   0  -1  33 754.489 438.630  16
   0  -1 -33 1142.51 411.206  14
   0  -1 -34 544.277 257.723  14
   0  -1  34 408.219 233.925   7
   0  -1  34 567.390 454.915  16
   0   1  34 62.6722 331.952  16
   0   1 -34 656.692 342.341  14
   0  -1  35 1734.38 368.821   7
   0  -1  35 1914.23 574.566  16
   0   1 -35 1636.58 408.787  14
   0   1  35 1688.54 589.337  16
   0  -1 -35 1916.87 411.390  14
   0   1 -36 2094.09 515.528  14
   0  -1 -36 2001.38 482.121  14
   0   1  36 1720.63 514.706  16
   0  -1  36 2014.57 614.893  16
   0  -1 -37 8433.77 891.578  14
   0  -1  37 8108.21 1185.86  16
   0   1  37 9750.36 1158.10  16
   0   1 -37 9839.66 978.002  14
   0  -1 -38 369.762 203.416  14
   0   1  38 212.365 333.379  16
   0   1 -38 548.305 272.221  14
   0  -1  38 928.602 465.930  16
   0  -1  39 1558.83 580.656  16
   0  -1 -39 2123.37 456.852  14
   0   1  39 2082.33 602.338  16
   0   1 -39 1950.63 451.682  14
   0   1  40 1202.49 432.306  16
   0  -1 -40 1395.31 329.095  14
   0  -1  40 1722.09 562.448  16
   0   1 -40 1332.76 370.857  14
   0   1  41 898.186 424.654  16
   0  -1  41 1073.92 469.221  16
   0  -1 -41 768.275 293.753  14
   0  -1  41 902.161 267.428  12
   0   1 -41 1218.82 378.760  14
   0  -1  42 3025.38 632.460  16
   0  -1  42 2829.76 407.242  12
   0  -1 -42 2997.71 455.991  14
   0   1  42 2795.45 611.706  16
   0  -1  43 1391.02 511.499  16
   0  -1  43 1009.56 235.135  12
   0   1  43 663.933 345.758  16
   0  -1  44 237.736 165.981  12
   0   1  44 704.151 339.994  16
   0  -1  44 399.924 341.022  16
   0  -1  45 526.145 170.397  12
   0   1  45 330.999 233.385  16
   0  -1  45 321.629 250.604  16
   0  -1  46 148.385 201.198  16
   0  -1  46 116.823 105.059  12
   0   1  46 297.058 213.727  16
   0   1  47 1257.68 299.718  16
   0  -1  47 1448.10 346.720  16
   0   2   0 30475.5 1267.42   2
   0  -2   0 30472.6 860.770   6
   0  -2   0 32041.6 1298.15   1
   0  -2   1 59952.7 1230.08   6
   0  -2   1 64901.1 1860.25   1
   0   2  -1 64788.5 1914.30   2
   0  -2  -1 65132.0 1275.15   6
   0   2   1 64361.1 1848.11   2
   0  -2  -1 63254.5 1797.06   1
   0   2  -2 38706.7 1522.54   2
   0   2   2 37507.2 1419.81   2
   0  -2   2 35126.7 975.468   6
   0  -2   2 37882.0 1429.53   1
   0  -2  -2 36213.2 1361.59   1
   0  -2   3 334.609 207.868   1
   0   2   3 395.793 218.746   2
   0   2  -3 276.768 284.272   2
   0  -2   3 517.613 153.939   6
   0  -2   4 99480.8 1918.73   6
   0   2  -4 95131.4 2663.63   2
   0   2  -4 112009. 3040.01  17
   0  -2  -4 113956. 2935.53  18
   0  -2   4 107207. 2519.75   1
   0   2   4 105462. 2506.10   2
   0  -2  -5 9464.61 887.122  18
   0  -2   5 8080.72 721.609   1
   0  -2   5 7898.32 585.031   6
   0   2  -5 8284.95 877.973  17
   0   2  -5 7009.62 811.078   2
   0   2   5 7678.96 725.945   2
   0  -2   6 4347.87 471.006   6
   0   2  -6 4562.21 652.914   2
   0   2  -6 5640.78 744.329  17
   0  -2  -6 6124.30 724.130  18
   0   2   6 4564.46 579.746   2
   0  -2   6 4772.92 587.809   1
   0   2   6 4824.15 610.144   3
   0   2  -7 14097.7 1102.46   2
   0   2   7 13825.0 998.084   2
   0  -2   7 13860.4 1009.71   1
   0   2   7 13237.3 1016.36   3
   0   2  -7 13746.7 1175.06  17
   0  -2  -7 15313.3 1209.95  18
   0   2  -8 17185.3 1334.64  17
   0   2   8 16888.9 1147.82   2
   0   2   8 17907.1 1194.23   3
   0  -2   8 17411.6 1166.31   1
   0   2  -8 19264.7 1324.24   2
   0  -2  -8 19097.3 1368.68  18
   0  -2   9 22214.7 1380.27   1
   0   2   9 20912.5 1357.62   3
   0  -2  -9 23021.2 1550.34  18
   0   2   9 22654.2 1385.18   2
   0   2  -9 22384.3 1586.89  17
   0   2 -10 17254.0 609.425   5
   0   2  10 18557.6 1324.44   3
   0   2  10 20282.2 1341.34   2
   0  -2 -10 20085.1 1540.46  18
   0   2 -10 19093.5 1513.35  17
   0  -2  10 19071.9 1204.51   3
   0  -2  10 20228.6 1371.86   1
   0   2  11 256284. 4916.35   3
   0  -2 -11 269084. 5763.06  18
   0  -2  11 260149. 4978.65   1
   0  -2  11 247764. 4471.18   3
   0   2  11 263834. 4952.09   2
   0   2 -11 260638. 5701.57  17
   0   2 -12 65504.7 2540.61  18
   0  -2  12 65594.5 2361.99   3
   0  -2  12 59374.4 2199.90   4
   0   2  12 67951.8 2629.69   3
   0  -2 -12 67045.8 2239.74   4
   0  -2  12 65400.1 2629.80   1
   0   2  12 65219.8 2582.44   2
   0  -2 -12 74461.2 3116.83  18
   0   2 -12 63292.8 1434.05   5
   0   2 -12 70431.2 3114.04  17
   0   2  13 8692.98 1002.32   2
   0   2 -13 6255.44 847.839  18
   0   2 -13 7932.28 542.472   5
   0  -2 -13 6961.81 1027.31  18
   0  -2  13 6994.62 758.932   4
   0  -2  13 8287.94 1003.96   1
   0  -2 -13 8803.81 800.601   4
   0   2 -13 6455.12 1077.74  17
   0  -2  13 8037.32 896.193   3
   0   2  13 8775.18 1020.11   3
   0   2 -14-368.750 360.174  17
   0   2  14 185.783 240.166   3
   0   2 -14-104.525 240.341  18
   0  -2 -14 564.955 375.143  18
   0  -2  14 319.888 332.708   1
   0   2 -14-46.1344 118.012   5
   0  -2 -14 184.699 164.657   4
   0  -2  14-44.4027 223.413   4
   0  -2  14 136.210 305.486   3
   0  -2 -15-212.045 299.066  18
   0  -2  15 288.070 306.307   3
   0  -2  15 207.616 375.163   1
   0   2 -15-31.0345 256.088  18
   0   2  15 389.008 294.966   3
   0   2 -15-34.9952 329.104  17
   0  -2  15 274.983 266.235   4
   0  -2 -15 277.970 165.432   4
   0  -2  16 16576.6 1571.42   1
   0  -2 -16 15958.2 1640.17  18
   0   2  16 17547.0 1548.47   3
   0   2 -16 15031.3 1425.22  18
   0  -2  16 16364.3 1378.81   3
   0   2 -16 15823.3 1700.98  17
   0  -2 -16 17190.6 1057.93   4
   0   2 -17 8712.49 1142.41  18
   0  -2 -17 10776.0 1386.02  18
   0   2  17 11747.8 1319.43   3
   0  -2  17 11433.1 1193.98   3
   0   2 -17 10203.5 1441.45  17
   0  -2  17 10658.6 1279.51   1
   0  -2  18 38019.2 2460.75   1
   0  -2  18 36354.1 2199.51   3
   0   2 -18 32437.3 2569.45  17
   0   2 -18 32237.4 2203.50  18
   0   2  18 34720.2 2351.13   3
   0  -2 -18 36542.1 2587.17  18
   0  -2 -19 648.813 524.272  18
   0  -2  19 187.161 407.793   1
   0   2 -19 124.796 408.998  17
   0   2  19-691.240 499.058   3
   0  -2  19 332.866 231.838   3
   0   2 -19-228.726 310.689  18
   0   2  20 403.169 290.655   3
   0  -2  20 732.782 423.264   1
   0  -2  20 744.869 408.515   3
   0  -2 -20 526.099 482.873  18
   0   2 -20 384.012 339.154  18
   0  -2  21 13396.9 1639.70   1
   0  -2 -21 11779.0 1640.82  18
   0   2  21 14477.5 1644.96   3
   0  -2  21 14485.7 1506.16   3
   0   2 -21 11820.0 1435.56  18
   0   2  22 629.762 490.382   3
   0   2 -22 166.109 270.204  18
   0  -2  22 621.029 366.217   3
   0  -2 -22 163.362 327.287  18
   0  -2  22 752.818 513.085   1
   0   2  23 37843.5 2793.44   3
   0   2 -23 34315.0 2608.25  18
   0  -2 -23 37413.5 3007.24  18
   0  -2  23 42030.8 2971.29   1
   0  -2  23 40056.4 2689.36   3
   0  -2 -24 9244.02 1531.29  18
   0   2  24 7144.49 1240.19   3
   0   2 -24 7579.70 1248.74  18
   0  -2  24 7227.29 1323.17   1
   0  -2  24 7743.23 1227.47   3
   0   2  25 24154.2 1459.23  16
   0  -2  25 29500.7 1864.51  16
   0  -2  25 25066.9 2219.08   3
   0  -2  25 22948.1 1220.58   7
   0   2 -25 22211.9 2170.97  18
   0  -2 -25 24548.8 2637.23  18
   0  -2 -25 21984.3 1783.56  13
   0   2  25 23183.3 2324.32   3
   0   2  26 1294.38 583.421   2
   0  -2 -26 852.652 500.294  13
   0  -2  26 1657.95 403.453   7
   0   2  26 1713.48 472.717  16
   0  -2  26 1403.49 500.355  16
   0  -2 -26 1539.01 739.387  18
   0   2 -26 1621.29 408.274  14
   0  -2  26 2544.71 775.348   3
   0   2  26 1943.73 725.956   3
   0  -2  27 451.801 490.466   3
   0   2  27 194.299 297.661   2
   0  -2 -27 703.988 470.473  13
   0   2  27 547.112 588.490   3
   0  -2  27 405.085 322.954  16
   0   2 -27 1550.21 411.973  14
   0  -2 -27 442.723 508.137  18
   0  -2  27 779.508 308.076   7
   0   2  27 881.903 344.467  16
   0  -2  28 256.156 218.812   7
   0   2  28 634.115 657.191   2
   0  -2 -28 141.605 499.566  13
   0   2 -28 182.475 216.856  14
   0   2  28 204.074 438.048   3
   0  -2  28 29.0937 288.834  16
   0  -2  28 398.848 406.116   3
   0   2  28 256.050 314.144  16
   0  -2 -28 919.317 642.900  18
   0   2  29 4635.89 1157.30   2
   0  -2 -29 5760.90 1376.99  18
   0   2  29 6037.48 824.304  16
   0  -2  29 5137.03 1107.95   3
   0  -2  29 5891.06 907.232  16
   0   2 -29 5785.35 754.057  14
   0  -2  29 4398.02 582.913   7
   0   2  29 4937.53 1286.64   3
   0  -2 -29 3656.34 597.238  14
   0  -2 -29 4341.79 1011.29  13
   0   2 -30 271.656 255.866  14
   0  -2 -30 311.222 218.040  14
   0   2  30 265.693 278.282  16
   0  -2  30 260.047 280.992  16
   0   2  30-359.863 384.183   2
   0  -2 -30-82.4898 430.034  18
   0  -2  30 352.496 399.387   3
   0   2  30-54.1471 333.240   3
   0  -2 -30 1323.80 719.446  13
   0  -2  30 138.208 149.446   7
   0  -2 -31 23273.0 1527.29  14
   0  -2  31 24123.0 2388.37   3
   0   2  31 23012.3 1641.87  16
   0  -2  31 27584.3 1987.68  16
   0  -2  31 23098.3 1312.26   7
   0  -2 -31 21225.8 2606.97  18
   0  -2 -31 19233.0 2178.81  13
   0   2 -31 25677.7 1594.62  14
   0  -2  32-133.619 338.663  16
   0   2  32 259.307 267.185  16
   0  -2 -32 628.296 709.875  13
   0   2 -32 72.4180 213.359  14
   0  -2 -32 113.128 210.869  14
   0   2 -33 19464.5 1420.97  14
   0  -2  33 19992.4 1688.39  16
   0  -2 -33 14240.8 2039.56  13
   0  -2 -33 17135.7 1303.76  14
   0   2  33 16856.1 1460.58  16
   0  -2 -34 1570.11 705.542  13
   0  -2 -34 2091.47 507.736  14
   0   2 -34 2254.40 535.755  14
   0  -2  34 2454.58 689.883  16
   0   2  34 1845.04 592.837  16
   0  -2 -35 6045.93 769.662  14
   0  -2  35 7260.12 1025.16  16
   0   2 -35 6186.85 812.679  14
   0   2  35 5281.21 867.581  16
   0  -2 -35 4486.26 1115.71  13
   0   2  36-279.584 330.416  16
   0   2 -36 434.303 332.370  14
   0  -2  36 415.569 491.631  16
   0  -2 -36 6.59605 246.419  14
   0   2  37 717.499 380.571  16
   0  -2  37 670.102 440.725  16
   0   2 -37 604.916 299.424  14
   0  -2 -37 511.124 284.384  14
   0   2  38 1302.08 460.534  16
   0  -2  38 1313.20 551.338  16
   0  -2 -38 1217.34 353.976  14
   0   2 -38 1495.10 425.433  14
   0  -2  39 3603.37 786.052  16
   0   2  39 2389.82 573.804  16
   0   2 -39 2884.56 519.504  14
   0  -2 -39 2563.54 470.927  14
   0  -2  40 342.170 496.798  16
   0  -2  40 291.639 213.998  12
   0   2  40 373.753 339.026  16
   0  -2 -40 308.712 210.702  14
   0  -2  41 11421.1 826.886  12
   0  -2  41 10682.9 1112.37  16
   0  -2 -41 11436.4 877.706  14
   0   2  41 11616.6 1031.81  16
   0  -2  42 551.747 228.847  12
   0  -2  42 8.16735 264.064  16
   0  -2 -42 602.302 246.139  14
   0   2  42 470.491 319.530  16
   0   2  43 17303.1 1195.44  16
   0  -2  43 18031.4 907.184  12
   0  -2  44 559.966 336.671  16
   0  -2  44 134.264 130.744  12
   0   2  44 560.406 253.679  16
   0   2  45 11695.1 873.111  16
   0  -2  45 12029.4 644.502  12
   0  -2  45 13187.5 957.148  16
   0  -2  46 2434.59 391.435  16
   0  -2  46 2480.55 272.560  12
   0   2  46 2204.01 375.003  16
   0   3   0-296.117 296.034   2
   0  -3   0 269.412 263.979   1
   0   3  -1 222.900 228.311   2
   0  -3  -1 172.665 211.210   1
   0  -3   1 512.047 266.495   1
   0   3   1 228.750 205.791   2
   0  -3   1 501.524 165.765   6
   0  -3   2 2459.09 506.911   1
   0  -3   2 2103.47 275.771   6
   0   3   2 1959.18 436.811   2
   0  -3  -2 2291.94 465.324   1
   0   3  -2 2020.94 535.554   2
   0  -3  -3 17244.7 1190.14   1
   0  -3   3 16725.2 791.993   6
   0   3   3 16463.9 1201.29   2
   0   3  -3 16962.6 1338.01   2
   0  -3   3 17346.4 1227.12   1
   0   3  -3 15943.9 1445.04  17
   0  -3  -4 9020.71 861.000   1
   0   3   4 8707.10 867.966   2
   0   3  -4 7481.53 1000.19   2
   0  -3   4 8021.54 574.569   6
   0   3  -4 7774.02 1024.05  17
   0  -3   4 8685.09 903.991   1
   0   3  -5 44380.5 2277.28   2
   0  -3   5 48896.7 2153.31   1
   0   3  -5 52992.4 2628.15  17
   0  -3  -5 48493.5 2018.84   1
   0  -3   5 45714.0 1449.85   6
   0   3   5 47609.0 2143.32   2
   0  -3  -6 37733.6 1782.86   1
   0  -3   6 35254.9 1327.79   6
   0  -3   6 38535.2 1926.72   1
   0   3   6 38919.3 1941.04   2
   0   3  -6 32399.7 2079.90  17
   0   3  -6 35833.9 2053.54   2
   0   3  -7 95986.8 3431.27   2
   0  -3   7 91086.3 2290.99   6
   0  -3   7 100990. 3185.23   1
   0   3  -7 98102.0 3699.67  17
   0   3   7 101225. 3173.97   2
   0   3  -8 8813.82 1170.63  17
   0   3  -8 11908.8 1242.23   2
   0   3   8 11791.9 1152.63   2
   0  -3   8 10177.1 807.097   6
   0  -3   8 10874.2 1088.71   1
   0  -3   9 45010.7 2254.96   1
   0  -3  -9 44133.0 2485.95  18
   0  -3   9 42235.7 1736.81   6
   0   3  -9 48890.6 2495.75   2
   0   3   9 41076.4 2178.75   2
   0   3  -9 39323.0 2487.15  17
   0   3 -10 147045. 4763.78  17
   0  -3  10 142800. 4091.68   1
   0   3  10 139433. 4036.36   2
   0  -3 -10 150939. 4731.52  18
   0  -3  10 137039. 3255.23   6
   0  -3 -11 21633.2 1592.32   4
   0  -3  11 19770.1 1284.32   6
   0   3  11 19519.1 1555.40   2
   0   3 -11 17351.9 1725.83  17
   0  -3 -11 19008.1 1749.70  18
   0  -3  11 21746.8 1623.06   1
   0   3 -12 25476.6 2110.44  17
   0  -3  12 26860.9 1883.86   4
   0  -3  12 29194.4 1765.01   3
   0   3  12 31402.4 2020.82   2
   0  -3 -12 27046.4 2117.52  18
   0  -3 -12 30437.5 1916.62   4
   0  -3  12 30926.9 2011.65   1
   0  -3  12 28188.5 1611.62   6
   0  -3 -13 64995.0 2785.41   4
   0  -3  13 56633.3 2639.83   4
   0  -3  13 60828.5 2634.38   3
   0   3  13 63819.1 2919.95   2
   0  -3 -13 64161.2 3321.69  18
   0  -3  13 63150.3 2973.21   1
   0  -3  13 59975.4 2460.11   6
   0   3 -13 62115.9 3425.29  17
   0   3 -14 152748. 4663.61  18
   0  -3 -14 175158. 5640.32  18
   0  -3 -14 175677. 4520.73   4
   0   3 -14 170501. 5740.68  17
   0  -3  14 159267. 4186.17   6
   0  -3  14 173008. 4973.35   1
   0   3  14 175938. 5057.08   3
   0  -3  14 164390. 4417.00   4
   0  -3  14 166605. 4411.90   3
   0   3  14 173996. 4939.88   2
   0  -3  15 9745.76 1093.52   6
   0  -3 -15 12778.5 1224.63   4
   0  -3  15 10680.2 1327.52   1
   0   3  15 12576.9 1440.98   3
   0  -3  15 11771.2 1191.87   4
   0   3 -15 11539.4 1572.33  17
   0   3 -15 10130.2 1237.19  18
   0  -3 -15 11142.8 1534.90  18
   0  -3  15 11030.0 1187.95   3
   0   3  15 12391.6 1403.06   2
   0  -3  16 141470. 4274.39   6
   0   3  16 149903. 4893.46   3
   0  -3  16 143883. 4405.21   3
   0  -3 -16 155798. 5551.52  18
   0  -3 -16 159763. 4270.82   4
   0  -3  16 149928. 4230.42   4
   0   3 -16 137568. 4608.50  18
   0   3 -16 153131. 5744.22  17
   0   3  16 146133. 4850.63   2
   0  -3  16 149135. 4908.13   1
   0  -3  17 13113.1 1573.91   1
   0  -3  17 12746.0 1344.17   6
   0   3 -17 14426.4 1560.69  18
   0   3  17 14577.6 1582.54   2
   0  -3  17 13837.8 1431.66   3
   0  -3 -17 15522.5 1847.80  18
   0   3  17 12764.8 1538.51   3
   0   3 -17 16377.6 1968.08  17
   0  -3 -18 24385.3 2370.91  18
   0  -3  18 23152.9 1855.10   3
   0   3  18 24427.8 2075.38   3
   0  -3  18 22399.1 2075.78   1
   0   3 -18 25482.7 2531.18  17
   0   3 -18 21268.7 1921.19  18
   0   3  18 23670.2 2106.28   2
   0   3 -19 55498.9 3168.88  18
   0  -3  19 65987.7 3627.87   1
   0   3  19 65997.1 3609.12   3
   0   3  19 68399.1 3570.96   2
   0  -3 -19 63147.1 3790.77  18
   0  -3  19 66194.5 3216.20   3
   0   3 -19 59351.4 3859.90  17
   0  -3  20 153.576 385.879   1
   0  -3 -20 329.004 345.123  18
   0   3 -20 248.413 183.852  18
   0   3  20 259.162 457.832   3
   0  -3  20 262.758 284.920   3
   0   3  20 337.677 315.209   2
   0   3 -20 586.575 427.915  17
   0  -3 -21 8843.48 1477.22  18
   0  -3  21 10009.8 1503.97   1
   0   3  21 10671.4 1515.28   2
   0   3 -21 9044.19 1614.20  17
   0   3  21 9612.74 1438.81   3
   0   3 -21 7973.63 1265.19  18
   0  -3  21 9748.97 1322.94   3
   0  -3  22 5395.61 823.928  16
   0   3  22 4297.03 593.715  16
   0  -3  22 5726.56 644.400   7
   0   3  22 4475.82 1009.60   3
   0  -3 -22 4428.51 733.392  13
   0  -3 -22 3910.84 982.019  18
   0   3 -22 4189.21 1182.53  17
   0  -3  22 5422.07 1038.74   3
   0   3  22 5599.52 1170.31   2
   0  -3  22 5736.14 1166.11   1
   0  -3 -23 15349.9 1364.08  13
   0  -3  23 15792.3 1741.34   3
   0  -3 -23 15378.2 2105.29  18
   0   3  23 13904.9 1850.73   2
   0   3  23 14449.5 1100.22  16
   0   3 -23 16976.5 1293.55  14
   0   3  23 14940.8 1901.47   3
   0  -3  23 15606.6 1960.77   1
   0  -3  23 18057.1 1489.16  16
   0  -3  24 3696.05 995.170   1
   0  -3  24 4589.95 1042.49   6
   0  -3 -24 4200.45 1068.69  18
   0   3 -24 5447.32 748.527  14
   0  -3  24 5029.63 1066.05   3
   0  -3  24 5731.78 893.266  16
   0   3  24 4045.70 1075.46   2
   0   3  24 4274.39 625.073  16
   0   3  24 5075.60 1132.66   3
   0  -3 -24 4964.73 799.328  13
   0   3  25 5584.28 1211.21   2
   0   3  25 6629.99 798.689  16
   0  -3 -25 6483.60 1422.61  18
   0   3  25 5609.38 1265.92   3
   0  -3 -25 6204.64 937.230  13
   0  -3  25 6490.64 1155.43   3
   0  -3  25 5170.52 1103.99   6
   0  -3  25 4808.48 1209.75   1
   0  -3  25 7050.78 1024.05  16
   0   3 -25 7240.18 879.716  14
   0  -3 -26 404.344 361.359  18
   0  -3 -26 223.785 394.778  13
   0   3  26 375.639 451.038   3
   0   3  26 453.935 280.803  16
   0  -3  26 403.637 407.975  16
   0  -3  26 183.547 281.815   3
   0   3  26-104.107 459.893   2
   0  -3  26 38.6099 386.169   1
   0   3 -26 624.458 359.313  14
   0  -3  26 620.285 420.396   6
   0  -3  27 21770.2 2263.54   6
   0  -3 -27 21184.6 1833.00  13
   0   3 -27 22891.7 1593.97  14
   0   3  27 21202.6 1445.50  16
   0  -3 -27 19101.1 2455.67  18
   0  -3  27 22855.7 1834.44  16
   0   3  27 20366.8 2418.93   3
   0   3  27 21256.0 2367.11   2
   0   3  28 1093.75 611.950   2
   0  -3 -28 2627.80 715.178  13
   0   3  28 2191.72 473.755  16
   0  -3 -28 2416.70 1008.31  18
   0   3 -28 2473.00 555.122  14
   0   3  28 1119.19 486.836   3
   0  -3  28 2690.66 614.581  16
   0  -3  28 1662.88 728.825   6
   0  -3 -29 10242.0 1431.57  13
   0   3  29 11634.3 1148.36  16
   0  -3  29 12761.1 1355.54  16
   0   3 -29 12679.9 1211.07  14
   0   3 -30 61215.1 2665.71  14
   0  -3  30 63048.9 3064.86  16
   0   3  30 53529.0 2401.26  16
   0   3 -31 6420.07 900.682  14
   0  -3 -31 3924.15 1024.93  13
   0   3  31 6545.93 853.331  16
   0  -3  31 6402.62 1001.02  16
   0  -3  32-158.229 433.070  16
   0   3  32-84.7214 344.342  16
   0   3 -32 401.071 385.018  14
   0  -3 -32-610.179 587.216  13
   0  -3 -32 45.5856 232.306  14
   0   3  33 5733.28 828.373  16
   0  -3 -33 4995.92 718.987  14
   0  -3  33 6913.09 1027.49  16
   0   3 -33 6814.22 955.262  14
   0   3 -34 1043.13 423.640  14
   0   3  34 558.870 389.860  16
   0  -3  34 2020.29 690.228  16
   0  -3 -34 1391.75 396.568  14
   0  -3 -34 335.276 720.110  13
   0   3  35 723.518 429.884  16
   0   3 -35 167.095 346.177  14
   0  -3  35 440.637 449.018  16
   0  -3 -35-199.136 631.013  13
   0  -3 -35 99.3788 194.116  14
   0  -3 -36 8826.55 1559.99  13
   0  -3 -36 9792.64 928.936  14
   0   3  36 10036.4 1070.05  16
   0  -3  36 11547.3 1277.22  16
   0   3 -36 10705.9 1121.77  14
   0  -3  37 177.306 337.057  16
   0   3  37 123.082 266.758  16
   0   3 -37 774.597 424.873  14
   0  -3  37 586.835 226.631  12
   0  -3 -37 581.416 265.134  14
   0   3 -38-168.888 300.903  14
   0  -3  38 225.299 305.839  16
   0  -3 -38 71.6776 187.253  14
   0   3  38-227.865 276.011  16
   0  -3  38 120.909 215.254  12
   0  -3  39 1814.56 363.590  12
   0   3  39 1573.80 454.761  16
   0  -3  39 2105.87 591.258  16
   0  -3 -39 1574.54 367.459  14
   0  -3  40 2942.65 596.582  16
   0   3  40 2318.48 435.366  16
   0  -3  40 2932.81 426.336  12
   0  -3 -40 2999.81 465.067  14
   0  -3  41 3786.10 621.109  16
   0  -3  41 3684.40 451.965  12
   0   3  41 3212.77 558.055  16
   0  -3 -41 3629.77 469.783  14
   0   3  42 8279.23 797.204  16
   0  -3 -42 7774.98 602.405  14
   0  -3  42 7664.45 854.859  16
   0  -3  42 9052.80 644.039  12
   0   3  43 335.783 245.504  16
   0  -3  43 339.226 290.290  16
   0  -3  43 270.864 136.498  12
   0  -3  44 1391.29 240.816  12
   0   3  44 854.268 265.745  16
   0  -3  45 2555.31 396.396  16
   0  -3  45 2750.12 285.713  12
   0   4   0 50690.2 2644.13   2
   0  -4   0 52421.0 2482.46   1
   0   4   1 36601.7 2310.11   2
   0  -4  -1 35012.5 2131.57   1
   0   4  -1 35153.6 2331.06   2
   0  -4   1 36661.7 2085.71   1
   0   4  -1 32049.8 2346.35  17
   0  -4  -2 92804.2 3310.64   1
   0   4  -2 94319.9 4051.69  17
   0   4   2 92306.3 3542.75   2
   0   4  -2 85234.7 3570.33   2
   0  -4   2 91357.2 3335.66   1
   0   4  -3 28918.3 2295.23  17
   0  -4   3 33679.1 2086.44   1
   0  -4  -3 34940.1 2043.58   1
   0   4   3 33940.6 2128.95   2
   0   4  -3 31308.2 2287.06   2
   0  -4  -4 28282.3 1819.65   1
   0   4   4 28032.5 1905.90   2
   0  -4   4 27848.1 1901.26   1
   0   4  -4 25250.6 2043.13   2
   0   4  -4 31183.1 2394.51  17
   0  -4  -5 2793.45 590.883   1
   0   4  -5 2907.08 710.900   2
   0   4   5 2388.10 596.525   2
   0   4  -5 1929.42 645.829  17
   0  -4   5 2785.76 631.897   1
   0  -4  -6 3199.74 794.101   1
   0   4   6 3519.35 823.613   2
   0   4  -6 4251.47 929.350  17
   0   4  -6 3504.24 854.374   2
   0  -4   6 3288.04 715.991   1
   0   4   7 152396. 4555.49   2
   0  -4  -7 160503. 5266.00   4
   0   4  -7 152452. 5033.97   2
   0  -4   7 153887. 4624.45   1
   0  -4  -7 156435. 4414.27   1
   0   4  -7 139028. 5194.42  17
   0  -4  -8 5966.94 870.625   1
   0   4  -8 4344.24 991.336  17
   0   4  -8 5820.22 1014.92   2
   0  -4   8 6133.79 1015.09   1
   0  -4   8 5811.25 1053.49   4
   0   4   8 4996.23 883.824   2
   0  -4  -8 6547.07 1102.79   4
   0  -4  -9 953.802 354.392   4
   0  -4   9 1147.70 511.046   1
   0   4   9 1042.65 455.565   2
   0  -4   9 852.025 498.363   4
   0   4  -9 1428.39 543.840   2
   0   4  -9 815.008 434.457  17
   0  -4  -9 1282.14 423.909   1
   0  -4 -10 3191.56 670.674   1
   0  -4 -10 3783.68 836.847   4
   0   4  10 2836.28 649.963   2
   0   4 -10 3073.06 920.274  17
   0  -4  10 3280.58 772.327   4
   0  -4  10 3640.84 831.753   1
   0   4  11 5445.76 962.775   2
   0   4 -11 5453.69 1199.35  17
   0  -4  11 5891.68 1006.33   4
   0  -4  11 5203.53 944.579   1
   0  -4 -11 6299.56 962.316   1
   0  -4 -11 5565.89 1090.38   4
   0   4 -12 5023.96 1097.65  17
   0  -4 -12 4015.98 789.815   1
   0  -4  12 4533.81 957.403   1
   0  -4 -12 4042.87 821.341   4
   0  -4  12 3844.28 842.824   4
   0   4  12 3856.91 846.824   2
   0  -4  12 4419.64 785.819   3
   0  -4 -13 262.990 340.336   4
   0  -4  13 501.027 400.157   1
   0  -4  13 891.963 471.230   3
   0  -4  13 43.1484 329.489   4
   0  -4 -13 351.939 279.822   1
   0   4  13 495.974 399.060   2
   0   4 -13 115.379 337.287  17
   0  -4  14 2894.12 701.952   3
   0  -4  14 2540.24 673.445   4
   0  -4  14 2053.03 637.881   1
   0  -4 -14 2518.21 752.176   4
   0   4 -14 1611.74 742.642  17
   0   4  14 1886.65 642.354   2
   0  -4  15 5371.07 988.334   4
   0   4  15 4947.29 1003.12   2
   0   4 -15 4173.46 1039.53  17
   0  -4 -15 5840.06 1021.64   4
   0  -4  15 4418.34 965.966   1
   0   4 -15 3920.64 887.512  18
   0  -4  15 4275.57 817.602   3
   0  -4  16 5230.78 947.026   3
   0   4 -16 5241.09 1254.90  17
   0   4  16 4426.03 993.128   2
   0  -4  16 5268.00 1102.73   1
   0  -4 -16 5229.67 982.502   4
   0  -4  17 201.277 272.877   3
   0  -4 -17 103.614 153.070  13
   0   4  17 195.360 158.061  16
   0  -4  17-69.7123 391.128   1
   0  -4  17-45.3928 237.996  16
   0   4 -17-35.9680 270.613  14
   0   4  17 115.540 335.932   2
   0   4 -17-171.411 339.227  17
   0   4 -18 111.028 291.632  14
   0  -4  18 84.6508 227.091   3
   0   4  18-236.197 233.721  16
   0  -4  18 253.676 290.212  16
   0  -4 -18 115.455 237.473  13
   0   4 -18-14.2543 374.386  17
   0   4  18 679.081 516.766   2
   0  -4  18 29.8631 430.352   1
   0  -4 -18 80.6548 152.681  10
   0   4  19 1053.08 657.508   2
   0   4 -19 1262.31 679.523  17
   0  -4  19 2312.94 601.538  16
   0  -4 -19 1970.58 441.508  13
   0  -4  19 1775.44 615.688   3
   0  -4  19 2167.88 807.184   1
   0  -4 -19 2116.18 387.696  10
   0   4  19 2165.59 441.011  16
   0   4 -19 2157.54 561.338  14
   0   4  20 18492.6 2078.43   2
   0  -4 -20 22435.8 1414.92  13
   0   4 -20 20165.0 2645.46  17
   0  -4  20 19740.7 2246.02   1
   0  -4  20 25686.5 1858.58  16
   0   4 -20 23334.4 1802.01  14
   0   4  20 21367.9 1291.40  16
   0  -4 -20 20955.6 1173.92  10
   0   4 -21 11669.9 1267.41  14
   0   4  21 10638.9 949.028  16
   0  -4 -21 10843.7 1035.94  13
   0   4  21 11112.8 1566.89   2
   0  -4  21 13119.8 1868.59   1
   0   4 -21 9532.80 1830.72  17
   0  -4  21 12075.6 1272.28  16
   0  -4 -21 11576.5 887.761  10
   0  -4 -22 35973.7 1557.24  10
   0  -4  22 38961.8 2326.48  16
   0   4 -22 32405.7 3448.29  17
   0   4  22 32156.5 1659.22  16
   0  -4  22 33978.4 2960.01   1
   0   4 -22 35466.6 2155.92  14
   0   4  22 31753.2 2822.50   2
   0  -4 -22 35959.3 1914.52  13
   0   4 -23 47082.7 2517.70  14
   0  -4  23 49978.8 2673.74  16
   0  -4 -23 48674.7 2320.95  13
   0   4  23 47848.7 3488.57   2
   0   4  23 44789.9 1989.08  16
   0  -4  23 55117.0 3792.83   1
   0  -4 -23 50303.7 1845.60  10
   0  -4  24 13613.0 1935.03   1
   0   4 -24 12791.3 1340.55  14
   0  -4  24 15595.2 1512.28  16
   0   4  24 12519.1 1079.47  16
   0  -4 -24 11979.0 1251.47  13
   0   4  24 10148.8 1619.89   2
   0   4  25 26346.5 1579.22  16
   0   4 -25 30730.8 2123.22  14
   0  -4  25 30997.8 2140.14  16
   0  -4 -25 28542.9 1974.81  13
   0   4  25 24911.0 2590.71   2
   0  -4 -26 37712.4 2345.77  13
   0  -4  26 41031.7 2461.20  16
   0   4 -26 39806.3 2422.75  14
   0   4  26 35441.8 1873.03  16
   0  -4  26 40411.8 1707.62   8
   0  -4 -27 7993.97 1153.73  13
   0  -4  27 8600.07 1166.55  16
   0   4 -27 7938.48 1113.75  14
   0   4  27 6783.61 858.546  16
   0   4  28 1384.95 411.425  16
   0  -4 -28 1005.06 499.041  13
   0  -4  28 1295.90 516.488  16
   0   4 -28 1687.63 551.559  14
   0   4 -29 7943.13 1103.43  14
   0   4  29 8300.94 936.842  16
   0  -4  29 8392.59 1124.62  16
   0  -4 -29 7690.67 1213.61  13
   0   4  30 35932.4 1974.77  16
   0   4 -30 38819.6 2418.84  14
   0  -4  30 37878.3 2376.41  16
   0  -4 -30 30161.7 2413.58  13
   0  -4  30 36511.7 1662.83  12
   0   4 -31 1565.99 551.591  14
   0  -4 -31 722.441 537.596  13
   0  -4  31 888.384 286.104  12
   0  -4  31 854.459 401.659  16
   0   4  31 780.086 371.673  16
   0   4  32 33788.1 1891.16  16
   0  -4  32 36965.9 2297.81  16
   0  -4  32 34705.0 1569.73  12
   0   4 -32 34632.4 2200.06  14
   0  -4  33 4517.64 583.696  12
   0  -4 -33 3656.95 607.974  14
   0   4  33 3824.03 714.192  16
   0  -4  33 4613.00 903.223  16
   0   4 -33 4120.38 790.811  14
   0  -4 -33 2469.47 894.313  13
   0  -4 -34 27185.7 1581.59  14
   0  -4  34 29012.8 1382.44  12
   0  -4 -34 25988.8 2406.84  13
   0  -4  34 32546.8 2058.19  16
   0   4  34 29570.7 1715.13  16
   0   4 -34 29963.0 2029.83  14
   0  -4  35 7396.80 942.176  16
   0  -4  35 8879.53 732.688  12
   0  -4 -35 8133.93 839.181  14
   0   4 -35 7247.55 1004.96  14
   0   4  35 7449.69 899.090  16
   0  -4 -35 5296.43 1229.41  13
   0  -4 -36 3201.93 920.784  13
   0  -4  36 2801.98 586.206  16
   0  -4  36 2668.63 431.030  12
   0   4 -36 1972.90 538.418  14
   0   4  36 2613.45 502.466  16
   0  -4 -36 2029.48 407.449  14
   0  -4 -37 2352.78 423.241  14
   0  -4  37 2697.09 419.541  12
   0  -4 -37 1738.52 724.002  13
   0  -4  37 2376.73 575.812  16
   0   4  37 1261.59 450.508  16
   0  -4 -38 8746.94 746.459  14
   0   4  38 7037.60 825.774  16
   0  -4  38 7901.95 893.679  16
   0  -4  38 9157.37 713.490  12
   0  -4  39 255.303 175.479  12
   0  -4  39 839.315 350.115  16
   0   4  39 635.442 324.873  16
   0  -4 -39 521.262 190.607  14
   0   4  40 1469.59 373.722  16
   0  -4 -40 1315.96 279.225  14
   0  -4  40 792.221 346.422  16
   0  -4  40 1330.43 277.350  12
   0  -4  41 1507.20 244.698  12
   0  -4 -41 1182.00 247.686  14
   0  -4  41 1270.48 374.330  16
   0   4  41 1744.08 352.830  16
   0  -4  42 153.729 136.283  12
   0   5   0 394.763 428.505   2
   0  -5   0 509.143 531.987   4
   0  -5   0 150.071 293.340   1
   0   5   0-281.562 519.035  17
   0   5  -1-598.286 499.356  17
   0  -5   1-213.877 297.778   1
   0   5   1-95.6910 345.485   2
   0  -5  -1 176.183 608.616   4
   0  -5  -1 351.453 319.088   1
   0  -5   1 161.030 383.304   4
   0   5   1 380.156 492.557  17
   0   5  -1 297.264 385.396   2
   0  -5   2 347.018 407.007   1
   0   5  -2-229.193 368.494  17
   0  -5  -2 126.852 145.302  10
   0  -5  -2 373.357 403.773   1
   0   5  -2 91.1384 482.936  14
   0  -5   2 445.542 496.335   4
   0   5  -2-401.203 378.705   2
   0  -5  -2-101.116 405.253   4
   0   5   2-283.227 281.193   2
   0   5   2 310.780 415.438  17
   0  -5  -3 3475.84 812.428   1
   0  -5  -3 4335.50 1095.57   4
   0  -5  -3 4072.13 520.471  10
   0  -5   3 3651.68 482.209  10
   0  -5   3 3310.74 733.877   1
   0   5  -3 3768.63 999.688  14
   0   5  -3 3570.28 903.682   2
   0   5   3 3877.45 877.255   2
   0   5   3 2529.40 761.523  17
   0  -5   3 3157.35 800.544   4
   0   5  -3 2207.38 783.320  17
   0   5   4 807.482 527.482   2
   0  -5  -4 1226.76 580.435   4
   0  -5  -4 1270.00 624.797   1
   0   5   4 402.770 425.067  17
   0  -5   4 1062.85 473.970   1
   0   5  -4 1183.97 658.152   2
   0   5  -4 587.188 502.258  14
   0  -5   4 555.002 624.793   4
   0  -5  -4 1172.34 318.125  10
   0  -5   4 1043.80 343.356  10
   0   5  -4 1441.88 699.603  17
   0  -5   5 12667.2 913.708  10
   0   5  -5 12583.1 1649.47   2
   0  -5   5 12817.6 1732.22   4
   0  -5  -5 13311.0 1763.06   4
   0  -5  -5 13526.6 1501.74   1
   0  -5  -5 12567.8 852.545  13
   0   5  -5 16041.1 1864.38  14
   0  -5  -5 13824.1 930.295  10
   0   5  -5 11180.3 1664.91  17
   0  -5   5 12742.3 878.188  13
   0  -5   5 13170.3 1524.68   1
   0   5   5 12064.3 1552.30   2
   0  -5  -6 11477.3 853.895  10
   0  -5   6 11140.8 841.056  13
   0  -5  -6 11697.8 1432.62   1
   0  -5   6 10377.8 843.641  10
   0  -5   6 10628.9 1630.97   4
   0  -5  -6 10294.6 784.641  13
   0   5  -6 14642.8 1796.30  14
   0   5  -6 9423.12 1575.43  17
   0   5   6 10185.4 1393.06   2
   0  -5   6 10837.5 1412.12   1
   0  -5  -6 10979.7 1627.31   4
   0   5  -6 12253.5 1602.05   2
   0  -5   7 9088.78 765.428  13
   0  -5  -7 9665.61 1549.35   4
   0  -5   7 8476.49 755.216  10
   0   5  -7 9728.97 1492.64  14
   0  -5  -7 9927.22 818.534  10
   0  -5   7 9312.44 1525.85   4
   0  -5   7 8370.69 1259.35   1
   0  -5  -7 8950.87 732.752  13
   0   5   7 8979.52 1331.36   2
   0   5  -7 7604.91 1431.18  17
   0   5  -7 8604.75 1335.56   2
   0  -5  -7 9330.12 1243.08   1
   0  -5  -8 1256.02 629.009   4
   0   5  -8 1625.24 615.989  14
   0  -5  -8 1363.68 338.812  13
   0  -5   8 1153.43 308.632  10
   0   5  -8 1191.26 709.082  17
   0   5   8 1337.04 587.493   2
   0  -5   8 932.857 502.281   1
   0  -5   8 1842.00 750.206   4
   0  -5  -8 1870.57 396.514  10
   0  -5  -8 1142.18 484.600   1
   0   5  -9 10082.2 1471.18  14
   0   5   9 10723.6 1453.21   2
   0   5  -9 9241.17 1661.49  17
   0  -5  -9 11316.4 866.451  10
   0   5   9 10167.2 801.004  16
   0  -5   9 10245.2 833.529  10
   0  -5  -9 10330.5 1552.01   4
   0  -5   9 8853.15 1367.99   1
   0  -5  -9 9467.31 775.689  13
   0  -5   9 9757.90 1493.98   4
   0   5 -10-271.915 405.907  17
   0   5  10 196.592 243.256   2
   0  -5  10-61.1615 392.316   1
   0   5  10 450.392 227.496  16
   0   5 -10-348.988 443.232  14
   0  -5  10-80.3576 185.782  10
   0  -5 -10 592.016 451.160   4
   0  -5  10 153.962 339.927   4
   0  -5 -10-37.1012 185.223  13
   0  -5 -10 70.0556 164.583  10
   0  -5 -11 13413.5 956.374  10
   0   5  11 11671.2 1515.72   2
   0   5 -11 12768.0 1949.69  17
   0  -5  11 12163.3 924.064  10
   0   5  11 13294.6 941.560  16
   0  -5  11 13066.7 1763.81   4
   0   5 -11 12998.4 1639.43  14
   0  -5 -11 12631.2 910.573  13
   0  -5 -11 12695.7 1808.49   4
   0  -5  11 10491.3 1520.85   1
   0   5  12 693.029 265.132  16
   0   5 -12 1010.30 652.705  17
   0   5  12 1459.60 596.455   2
   0  -5  12 1285.50 353.363  10
   0  -5 -12 976.851 293.979  10
   0  -5  12 629.723 467.892   4
   0   5 -12 791.634 552.073  14
   0  -5 -12 1096.89 483.019   4
   0  -5 -12 673.496 240.322  13
   0  -5  12 1163.27 577.104   1
   0  -5  13 65220.6 2101.65  10
   0   5 -13 60621.8 4353.81  17
   0  -5  13 68665.6 3899.97   1
   0  -5 -13 73947.3 4152.86   4
   0   5  13 72304.3 3861.30   2
   0   5  13 66376.7 2164.53  16
   0   5 -13 72485.2 3823.70  14
   0  -5 -13 70420.6 2202.41  10
   0  -5 -13 69456.2 2169.09  13
   0  -5  13 71637.3 4102.54   4
   0  -5  14 781.988 259.557  10
   0  -5  14 488.580 487.495   1
   0   5  14 1501.69 371.140  16
   0  -5 -14 960.699 288.203  10
   0  -5  14 217.962 493.265   4
   0  -5 -14 1342.68 334.075  13
   0   5 -14 1024.71 670.414  14
   0   5 -14 1680.54 813.840  17
   0   5  14 622.990 540.698   2
   0  -5 -14 54.2943 491.231   4
   0   5  15 4401.24 583.968  16
   0  -5  15 4819.34 576.378  10
   0   5 -15 4942.24 1396.52  17
   0   5 -15 4225.36 973.864  14
   0  -5 -15 5590.98 1227.79   4
   0  -5 -15 5117.66 605.264  10
   0  -5  15 4747.19 1057.83   1
   0  -5 -15 5114.87 643.034  13
   0   5  15 5151.42 1101.49   2
   0   5 -16 70245.3 3709.84  14
   0  -5 -16 71514.8 2237.21  10
   0   5  16 69561.5 2320.74  16
   0   5 -16 61848.7 4635.78  17
   0  -5  16 64575.4 2082.30  10
   0  -5  16 64796.6 3960.80   1
   0   5  16 63977.1 3794.67   2
   0  -5 -16 72165.7 2343.18  13
   0  -5  17 8468.71 751.937  10
   0   5  17 8151.40 1405.88   2
   0   5 -17 8613.16 1442.31  14
   0  -5 -17 9041.36 815.755  10
   0  -5 -17 10419.5 945.214  13
   0  -5  17 8976.95 1516.21   1
   0  -5  17 12371.3 1349.80  16
   0   5 -17 9696.40 1843.12  17
   0   5  17 9380.71 883.149  16
   0  -5  18 98449.5 5073.41   1
   0   5  18 100353. 4876.94   2
   0   5 -18 103869. 4499.51  14
   0  -5  18 97069.3 2551.86  10
   0  -5 -18 114033. 3187.13  13
   0  -5 -18 112191. 2819.91  10
   0   5 -18 99753.6 6050.54  17
   0   5  18 108535. 2953.91  16
   0  -5 -19 5244.80 659.355  10
   0  -5  19 4382.88 503.815  10
   0   5 -19 5374.22 1074.36  14
   0   5  19 4958.81 691.465  16
   0  -5  19 6638.46 1027.19  16
   0  -5 -19 5462.89 726.119  13
   0   5 -19 4818.72 1402.68  17
   0   5  19 4780.36 1090.57   2
   0  -5  19 4060.33 993.844   1
   0   5 -20 7601.26 1207.69  14
   0  -5 -20 7917.26 896.710  13
   0  -5 -20 6818.80 720.904  10
   0   5  20 7831.17 819.823  16
   0  -5  20 10026.2 1197.85  16
   0  -5 -21 2551.66 492.211  10
   0  -5  21 1914.73 566.931  16
   0  -5 -21 1508.72 458.382  13
   0   5  21 1501.91 425.334  16
   0   5 -21 1863.62 647.173  14
   0   5  22 15982.9 1229.27  16
   0  -5  22 18432.2 1621.80  16
   0  -5 -22 17672.9 1403.19  13
   0   5 -22 16871.6 1817.50  14
   0  -5 -22 18754.5 1197.49  10
   0  -5  22 14550.8 975.426  12
   0  -5 -23 4559.17 604.492  10
   0   5 -23 3561.64 851.493  14
   0  -5  23 3943.80 533.537  12
   0   5  23 4534.78 678.321  16
   0  -5  23 4676.18 848.496  16
   0  -5 -23 4406.66 788.875  13
   0  -5 -24 1678.46 542.898  13
   0  -5  24 2288.56 647.194  16
   0  -5  24 849.186 331.076   8
   0  -5 -24 1361.04 376.129  10
   0   5  24 1527.57 424.721  16
   0   5 -24 2413.45 813.009  14
   0  -5  24 998.209 275.558  12
   0   5 -25 1994.52 690.573  14
   0  -5 -25 3065.96 484.307  10
   0  -5  25 3133.99 561.411   8
   0   5  25 2665.46 539.443  16
   0  -5  25 2994.43 713.435  16
   0  -5  25 2966.99 456.924  12
   0  -5 -25 3124.41 738.696  13
   0  -5  26 165.019 200.305   8
   0  -5  26 371.593 297.869  16
   0   5  26 287.594 240.947  16
   0  -5 -26 501.389 412.507  13
   0   5 -26 45.7596 392.734  14
   0  -5  26-103.276 219.429  12
   0  -5  27 4110.16 581.274   8
   0  -5  27 3858.60 783.498  16
   0  -5 -27 3135.48 748.127  13
   0   5  27 3015.54 592.730  16
   0   5 -27 3550.64 940.286  14
   0  -5  27 3545.73 500.186  12
   0  -5  28 5159.40 862.023  16
   0   5  28 4896.62 703.487  16
   0  -5  28 4573.48 570.373  12
   0  -5 -28 3509.61 868.693  13
   0  -5  28 5872.13 625.377   8
   0   5 -28 4207.45 901.519  14
   0  -5  29 3701.06 494.430   8
   0   5  29 3700.28 662.848  16
   0  -5  29 3393.80 483.771  12
   0  -5  29 3562.29 692.016  16
   0  -5 -29 3814.36 840.345  13
   0   5 -29 3375.47 868.286  14
   0   5 -30 18248.3 1772.88  14
   0   5  30 19303.9 1347.42  16
   0  -5  30 19644.2 1576.96  16
   0  -5  30 18390.5 1031.98  12
   0  -5 -30 16320.6 1671.81  13
   0   5  31 17.3369 236.509  16
   0  -5  31 315.622 424.639  16
   0   5 -31 639.277 465.258  14
   0  -5  31 123.839 159.321  12
   0  -5 -31-303.090 459.709  13
   0  -5  32 8913.68 687.815  12
   0   5 -32 7717.53 1127.07  14
   0  -5  32 10902.3 1126.31  16
   0   5  32 8982.26 914.090  16
   0  -5 -32 8322.85 1230.40  13
   0  -5 -33 248.336 219.834  14
   0  -5  33 126.662 159.885  12
   0   5  33 94.5439 192.417  16
   0  -5 -33 758.163 525.425  13
   0   5 -33 1067.37 612.363  14
   0  -5 -34 4171.80 1008.83  13
   0  -5  34 6631.89 578.064  12
   0   5  34 6093.84 728.688  16
   0   5 -34 6742.71 1003.22  14
   0  -5 -34 7175.73 750.075  14
   0   5  35 2696.70 471.831  16
   0  -5  35 3172.74 401.984  12
   0  -5 -35 3097.52 460.967  14
   0  -5  36 625.548 186.884  12
   0  -5 -36 273.464 184.867  14
   0  -5 -36 548.559 424.471  13
   0   5  36 382.552 218.139  16
   0   5  37 959.815 285.924  16
   0  -5  37 1241.99 229.210  12
   0  -5 -37 1186.84 273.298  14
   0   5  38 827.954 235.450  16
   0  -5  38 1190.50 212.447  12
   0  -5 -38 730.934 205.756  14
   0  -6   0 4941.41 589.300  13
   0  -6   0 5768.65 660.623  10
   0  -6   0 5139.04 1324.92   4
   0   6   0 4814.42 1292.70  17
   0  -6   1 1766.96 819.544   4
   0  -6  -1 1061.97 330.409  13
   0   6   1 1152.63 549.317  17
   0  -6   1 1684.51 442.102  10
   0   6  -1 194.592 401.685  17
   0  -6  -1 975.266 521.073   4
   0  -6  -1 1879.81 478.048  10
   0  -6   1 1245.50 321.368  13
   0  -6   2 18.1644 209.468  13
   0   6  -2 76.6253 319.232  17
   0  -6  -2 226.005 517.583   4
   0  -6   2-58.3375 568.085   4
   0  -6   2-7.12742 198.540  10
   0   6   2 54.3539 430.439  17
   0  -6  -2 330.164 240.958  13
   0  -6  -2 80.6846 183.172  10
   0  -6  -3-39.1589 491.982   4
   0  -6  -3 372.956 310.684  10
   0   6   3 905.907 660.727  17
   0  -6   3-69.0482 216.277  10
   0   6  -3 118.448 334.741  17
   0  -6   3 142.899 217.701  13
   0  -6   3 496.449 654.781   4
   0  -6  -3 42.4151 219.226  13
   0  -6   4 2185.10 450.307  10
   0  -6  -4 491.259 570.682   4
   0  -6   4 1884.31 803.726   4
   0  -6  -4 2180.85 450.060  13
   0   6   4 695.791 629.489  17
   0   6  -4 1558.03 760.288  17
   0  -6  -4 1987.87 445.922  10
   0  -6   4 1762.37 530.625  13
   0  -6  -5 6287.08 1300.49   4
   0   6  -5 3738.44 1193.42  17
   0  -6   5 4947.48 624.356  13
   0  -6   5 5804.43 677.139  10
   0  -6  -5 6026.63 722.450  10
   0  -6   5 4953.61 1343.82   4
   0   6   5 3327.36 1050.96  17
   0  -6  -5 5224.68 668.538  13
   0   6  -6 13795.1 2143.55  17
   0  -6  -6 15278.4 1021.45  13
   0  -6   6 16817.5 1168.96  10
   0  -6  -6 17080.9 1156.73  10
   0  -6   6 16573.6 1107.27  13
   0  -6   6 15964.5 2227.29   4
   0  -6  -6 17509.1 2292.31   4
   0   6   7 167.678 221.594  16
   0  -6  -7 252.885 264.496  10
   0  -6   7 501.278 519.511   4
   0   6  -7 504.166 519.334  17
   0  -6   7 859.727 374.444  13
   0  -6  -7 413.156 491.602   4
   0  -6   7 191.437 262.849  10
   0  -6  -7 239.743 248.625  13
   0   6   8 658.290 252.759  16
   0  -6  -8 1080.53 302.806  13
   0  -6   8 935.327 309.914  13
   0  -6   8 660.580 257.049  10
   0  -6  -8 1266.95 400.068  10
   0   6  -9 696.838 539.104  14
   0   6   9 1049.99 305.788  16
   0  -6   9 1249.68 350.986  10
   0  -6  -9 1549.57 412.374  10
   0  -6  -9 1167.04 345.656  13
   0  -6   9 1099.70 322.116  13
   0  -6  10-16.8182 152.706  13
   0  -6 -10-43.7345 150.928  13
   0   6  10-148.049 196.314  16
   0  -6  10-203.781 205.265  10
   0  -6 -10-110.085 216.435  10
   0   6  11 1050.06 380.019  16
   0  -6  11 1216.38 352.226  10
   0  -6 -11 1159.63 356.932  10
   0  -6 -11 940.103 331.102  13
   0  -6  11 646.558 282.045  13
   0   6  12 9963.95 900.051  16
   0  -6  12 8431.26 789.502  10
   0  -6 -12 9511.43 854.194  13
   0  -6  12 8048.91 806.994  13
   0   6 -12 10657.4 1828.05  14
   0  -6 -12 9541.93 866.626  10
   0   6  13 17740.2 1198.37  16
   0  -6  13 17202.9 1160.98  13
   0  -6  13 17278.1 1110.83  10
   0   6 -13 18071.2 2341.62  14
   0  -6 -13 19729.3 1228.33  10
   0  -6 -13 19436.5 1239.43  13
   0   6  14 32806.5 1629.54  16
   0  -6 -14 35962.8 1697.97  13
   0  -6  14 31894.4 1518.50  10
   0  -6  14 30378.4 1537.84  13
   0   6 -14 33970.5 3129.05  14
   0  -6 -14 35478.2 1646.98  10
   0  -6  15 20355.5 1252.89  13
   0   6  15 22526.2 1375.82  16
   0  -6 -15 24361.3 1372.22  10
   0  -6 -15 22976.9 1400.31  13
   0   6 -15 23241.4 2472.97  14
   0  -6  15 21558.2 1239.43  10
   0  -6  16 614.623 267.941  13
   0  -6 -16 764.273 258.949  10
   0   6  16 999.875 396.872  16
   0  -6 -16 694.676 352.060  13
   0  -6  16 690.230 216.537  10
   0   6 -16 345.050 630.122  14
   0  -6 -17 584.077 301.538  13
   0  -6  17 202.332 186.080  13
   0  -6 -17 53.9411 182.156  10
   0   6  17-26.7406 176.740  16
   0  -6  17 80.0181 169.873  10
   0   6 -17 121.293 541.055  14
   0   6 -18 3129.27 1045.26  14
   0  -6 -18 2161.32 517.546  13
   0  -6 -18 2096.79 427.724  10
   0  -6  18 1733.12 357.760  10
   0   6  18 1804.72 444.641  16
   0   6  19 4265.76 640.532  16
   0  -6  19 4223.51 540.422  10
   0  -6 -19 4827.78 612.835  10
   0   6 -19 4171.61 1116.11  14
   0  -6 -19 4457.62 666.416  13
   0   6 -20 115.628 630.551  14
   0  -6 -20-75.7539 220.846  13
   0   6  20 52.2292 187.710  16
   0  -6 -20 125.166 161.008  10
   0  -6  20-250.402 172.972  10
   0  -6  20-17.8047 204.413   8
   0  -6 -21 2568.05 526.181  13
   0   6 -21 2395.04 801.306  14
   0  -6 -21 2927.96 486.361  10
   0   6  21 2832.37 526.186  16
   0  -6  21 3249.46 547.406   8
   0   6  22 777.025 325.772  16
   0   6 -22 1488.11 703.627  14
   0  -6  22 1054.40 299.593   8
   0  -6 -22 991.866 268.184  10
   0  -6 -22 1311.37 462.057  13
   0  -6 -23 783.198 209.196  10
   0  -6  23 1483.88 381.337   8
   0   6 -23 1220.42 629.954  14
   0  -6 -23 893.134 422.929  13
   0   6  23 845.923 354.218  16
   0  -6 -24 1298.03 333.923  10
   0   6  24 1283.58 389.849  16
   0  -6 -24 1760.42 503.222  13
   0   6 -24 2130.91 869.757  14
   0  -6  24 1881.27 406.244   8
   0  -6  25 1296.60 331.877   8
   0  -6 -25 1048.31 455.577  13
   0  -6 -25 623.339 248.257  10
   0   6  25 960.088 350.155  16
   0   6 -25 1792.82 747.790  14
   0   6 -26 12404.9 1641.17  14
   0  -6 -26 11053.9 1125.84  13
   0   6  26 10258.9 927.752  16
   0  -6  26 14338.2 938.618   8
   0   6  27 990.112 367.737  16
   0  -6  27 610.004 222.570   8
   0  -6 -27 373.872 326.718  13
   0   6 -28 15749.8 1671.61  14
   0  -6 -28 16749.1 1449.53  13
   0   6  28 16426.6 1143.50  16
   0   6 -29 3182.32 762.262  14
   0  -6 -29 2629.91 704.884  13
   0  -6  29 3653.19 424.532   8
   0   6  29 2682.15 443.831  16
   0   6 -30-81.8880 414.649  14
   0  -6  30 164.905 123.650   8
   0   6  30 447.360 269.171  16
   0  -6 -30 657.521 504.787  13
   0   6  31 1207.82 301.668  16
   0   6 -31 723.092 380.469  14
   0  -6  31 945.566 227.721  13
   0  -6 -31 1145.10 568.673  13
   0  -6 -32 959.534 520.340  13
   0  -6  32 1454.82 240.971  13
   0  -6 -32 1282.09 299.871  14
   0   6  32 1498.65 334.278  16
   0   6  33 339.231 194.482  16
   0  -6  33 399.363 150.524  13
   0  -6 -33 229.542 161.321  14
   0  -6 -33 118.087 362.834  13
   0  -6 -34 1137.15 449.695  13
   0  -6  34 1587.36 220.894  13
   0  -6 -34 1915.33 320.249  14
   0  -7   0 202.053 242.341   8
   0  -7   0-63.1131 213.156  10
   0  -7  -1 4605.51 569.314   8
   0  -7   1 5326.43 627.268  13
   0  -7   1 4134.78 555.315   8
   0  -7  -1 5308.42 677.774  10
   0  -7   1 4868.97 647.815  10
   0  -7  -1 5500.28 631.161  13
   0  -7   2 7661.75 759.884  13
   0  -7   2 7060.18 795.250  10
   0  -7  -2 6006.55 710.537  10
   0  -7  -2 6332.63 712.555  13
   0  -7  -3 5154.92 653.003  13
   0  -7  -3 3126.41 505.726  10
   0   7   3 3600.68 643.395  16
   0  -7   3 3638.50 585.582  10
   0  -7   3 4106.32 644.340  13
   0  -7  -4 1050.43 345.402  13
   0   7   4 772.508 334.037  16
   0  -7   4 1490.07 371.632  13
   0  -7  -4 1072.80 361.787  10
   0  -7   4 503.902 251.653  10
   0  -7  -5 2188.75 526.663  10
   0  -7  -5 3573.83 608.694  13
   0   7   5 3417.51 688.693  16
   0  -7   5 1774.81 371.245  10
   0   7   6 23987.7 1399.21  16
   0  -7   6 25362.3 1416.46  13
   0  -7  -6 20921.9 1327.09  10
   0  -7  -6 22298.1 1383.32  13
   0  -7  -7 37111.9 1600.41  13
   0  -7  -7 39206.2 1725.53  10
   0  -7   7 33628.2 1516.92  13
   0  -7   7 35526.7 1639.86  10
   0   7   7 33417.4 1573.04  16
   0  -7   8 11363.1 917.028  13
   0  -7  -8 9664.38 868.834  10
   0  -7   8 9626.96 898.797  10
   0   7   8 8804.72 818.062  16
   0  -7  -9 6708.28 731.697  10
   0   7   9 5885.86 706.711  16
   0  -7   9 5698.83 667.466  10
   0  -7   9 7334.44 757.709  13
   0  -7  -9 6972.12 767.075  13
   0  -7 -10 11959.6 946.620  13
   0  -7 -10 11877.5 957.860  10
   0   7  10 11381.9 936.560  16
   0  -7  10 10049.0 870.313  10
   0  -7  10 11594.7 909.134  13
   0  -7  11 12550.0 1025.78   8
   0  -7  11 12522.4 941.836  10
   0  -7  11 12025.2 905.289  13
   0   7  11 12471.3 979.144  16
   0  -7 -11 14236.0 1039.85  10
   0  -7 -11 14169.0 1013.80  13
   0  -7  12 3183.37 579.292   8
   0  -7  12 5552.72 746.695  13
   0  -7 -12 5227.66 677.629  13
   0  -7  12 3128.05 464.318  10
   0  -7 -12 4291.97 591.408  10
   0   7  12 4379.41 658.441  16
   0   7  13 38018.0 1694.36  16
   0  -7  13 34111.5 1482.97  13
   0  -7 -13 42981.2 1787.15  13
   0  -7  13 38180.6 1730.84   8
   0  -7 -13 42146.2 1727.53  10
   0  -7  13 35324.7 1523.17  10
   0   7  14 14782.5 1064.77  16
   0  -7  14 14273.9 1067.65   8
   0  -7 -14 16098.0 1069.96  10
   0  -7  14 12935.4 921.685  13
   0  -7 -14 15414.7 1113.08  13
   0  -7  14 12539.2 909.426  10
   0   7  15 9694.62 873.116  16
   0  -7  15 9393.53 760.532  13
   0  -7  15 9263.03 757.882  10
   0  -7  15 11106.3 964.131   8
   0  -7 -15 12021.0 966.975  13
   0  -7 -15 12699.4 934.011  10
   0  -7  16 3180.33 447.992  13
   0  -7  16 3038.02 438.217  10
   0   7  16 3577.45 538.802  16
   0  -7 -16 3684.42 572.426  13
   0  -7 -16 4057.92 539.326  10
   0  -7  16 3248.14 517.449   8
   0  -7 -17 1379.05 350.133  10
   0  -7 -17 1313.32 371.925  13
   0  -7  17 1377.54 317.846  10
   0  -7  17 962.492 295.633  13
   0   7  17 1078.99 325.938  16
   0  -7  17 1430.85 357.302   8
   0   7  18 9219.06 800.317  16
   0  -7  18 7112.24 641.877  13
   0  -7  18 8606.42 673.546  10
   0  -7 -18 10025.1 941.546  13
   0  -7 -18 9156.54 767.083  10
   0  -7  18 9278.40 817.620   8
   0   7  19 5737.29 688.061  16
   0  -7 -19 5938.91 792.649  13
   0  -7  19 5226.83 557.717  13
   0  -7  19 7623.60 744.332   8
   0  -7 -19 7670.50 703.135  10
   0   7  20 749.008 292.331  16
   0  -7 -20 692.361 361.659  13
   0  -7  20 596.828 272.370   8
   0  -7 -20 875.349 261.520  10
   0  -7  20 576.648 224.557  13
   0  -7 -21 7889.28 672.121  10
   0  -7  21 8167.16 726.421   8
   0  -7 -21 6182.53 776.715  13
   0   7  21 6448.02 680.056  16
   0  -7  21 5093.54 553.205  13
   0  -7  22 2196.71 354.970  13
   0   7  22 2819.88 466.917  16
   0  -7 -22 3551.38 431.041  10
   0  -7 -22 2890.75 593.504  13
   0  -7  22 3521.46 481.345   8
   0  -7  23 5992.57 545.501  13
   0  -7 -23 6735.95 836.933  13
   0  -7  23 8857.62 703.722   8
   0   7  23 6984.84 683.362  16
   0  -7 -23 8150.73 629.329  10
   0  -7  24 1344.48 253.774  13
   0   7  24 2166.01 378.673  16
   0  -7 -24 1978.40 313.753  10
   0  -7 -24 1881.06 484.055  13
   0  -7  24 2164.47 348.491   8
   0  -7 -25 12123.4 1025.32  13
   0  -7  25 14527.0 805.532   8
   0   7  25 12924.8 834.634  16
   0  -7  25 11275.2 646.134  13
   0  -7 -26 123.219 280.393  13
   0  -7  26 108.172 178.784   8
   0   7  26 169.477 150.723  16
   0  -7  26 41.5550 104.484  13
   0  -7  27 15167.6 687.391  13
   0  -7 -27 15196.2 1173.75  13
   0  -7 -28 3989.51 625.233  13
   0  -7  28 4839.39 366.401  13
   0  -7 -29 342.506 171.250  14
   0  -8   0 10847.6 819.223  10
   0   8   0 14090.4 916.753  16
   0   8   1 20812.5 1106.17  16
   0  -8   1 14136.0 921.447  10
   0  -8   1 23629.0 1097.05  13
   0  -8  -1 24904.1 1125.70  13
   0   8  -1 21673.9 1150.44  16
   0  -8  -1 14484.6 951.240  10
   0   8   2 17526.5 1048.22  16
   0  -8  -2 25037.5 1158.92  13
   0  -8   2 26821.0 1194.25  13
   0  -8   2 9970.96 692.670   8
   0   8  -2 16628.8 1032.87  16
   0  -8  -2 11562.2 876.314  10
   0  -8   2 11056.3 818.311  10
   0   8  -3 21444.7 1119.39  16
   0  -8   3 22019.2 1042.99   8
   0  -8   3 23044.6 1158.54  10
   0  -8  -3 23361.3 1173.08  10
   0   8   3 23957.5 1183.28  16
   0  -8   3 25085.1 1118.94  13
   0  -8  -4 12904.3 878.558  13
   0   8  -4 11422.2 997.356  16
   0   8   4 8088.33 761.951  16
   0  -8  -5 15655.0 957.528  10
   0  -8   5 13350.4 837.651   8
   0  -8  -5 16583.7 921.666  13
   0   8  -5 15264.4 930.306  16
   0  -8   5 14756.6 859.260  13
   0   8   5 15051.4 936.970  16
   0  -8   5 14464.6 912.334  10
   0  -8  -6 2807.68 455.553  10
   0   8   6 4246.18 555.733  16
   0  -8  -6 9653.32 797.419  13
   0  -8   6 11656.2 800.453  13
   0  -8   7 12679.0 790.939  13
   0   8   7 12917.3 849.662  16
   0  -8  -7 13461.5 849.452  13
   0  -8   7 11527.9 794.595  10
   0  -8  -7 13439.2 886.325  10
   0  -8   7 10523.6 739.214   8
   0  -8   8 5597.20 570.425  10
   0  -8   8 5683.71 564.265   8
   0   8   8 7798.09 694.545  16
   0  -8  -8 7465.62 674.756  10
   0  -8  -9 27243.6 1230.23  10
   0  -8   9 23614.5 1116.76   8
   0  -8  -9 28423.7 1236.57  13
   0   8   9 25917.9 1162.50  16
   0  -8   9 23613.6 1096.06  10
   0  -8   9 23032.8 1007.52  13
   0  -8  10 1713.36 321.566  10
   0  -8 -10 1486.65 331.378  10
   0   8  10 1761.19 379.930  16
   0  -8  10 1782.23 361.903   8
   0  -8  11 11341.8 730.540  10
   0  -8 -11 12970.5 832.573  10
   0  -8  11 11716.1 778.599   8
   0   8  11 12476.4 799.908  16
   0  -8 -11 11957.4 759.580   9
   0  -8  11 10862.7 664.498  13
   0  -8  12-15.8028 167.079  10
   0  -8  12 756.034 263.765   8
   0  -8 -12 321.929 191.774   9
   0  -8  12 853.746 235.869  13
   0   8  12 66.2519 154.435  16
   0  -8 -12 636.109 277.822  13
   0  -8 -12 404.141 208.741  10
   0  -8  13 243.475 134.710  13
   0  -8 -13-84.0448 180.312  10
   0   8  13 243.909 167.175  16
   0  -8 -13-113.148 189.294  13
   0  -8  13 530.028 217.112   8
   0  -8  13 11.9416 116.345  10
   0  -8  14 254.727 153.883  13
   0  -8  14 394.420 187.518   8
   0  -8  14 59.5587 129.362  10
   0  -8 -14 336.628 184.918  10
   0   8  14 167.146 167.399  16
   0  -8 -14 130.675 189.637  13
   0   8  15 954.231 250.813  16
   0  -8 -15 990.655 290.748  13
   0  -8  15 707.145 151.580  13
   0  -8  15 547.650 140.556  10
   0  -8 -15 679.621 228.692  10
   0  -8  15 810.135 247.695   8
   0  -8 -16 1571.87 358.395  13
   0  -8 -16 1823.16 301.729  10
   0   8  16 1969.97 323.702  16
   0  -8  16 1790.60 251.498  13
   0  -8  16 2250.70 350.935   8
   0  -8  17 34.8625 146.431   8
   0  -8 -17 335.043 167.456  10
   0  -8 -17-96.0251 169.615  13
   0  -8  17 64.6173 93.3382  13
   0  -8 -18 1231.61 352.289  13
   0  -8 -18 1187.59 227.534  10
   0  -8  18 1070.00 193.653  13
   0  -8  18 1411.01 281.964   8
   0  -8 -19 5441.99 438.237  10
   0  -8 -19 4520.18 533.871  13
   0  -8  20-74.4643 122.467   8
   0  -8  21 1201.14 212.404   8
  -1   0  47 18366.8 1023.30  16
   1   0 -46 8.46194 141.406  14
  -1   0  46 163.683 234.214  16
  -1   0  45 2033.67 273.965  12
   1   0 -45 2573.85 414.640  14
  -1   0  45 2226.43 446.790  16
  -1   0  44-105.501 220.452  16
  -1   0  44-31.7623 114.156  12
   1   0 -44 174.436 180.730  14
  -1   0  43 1257.47 411.916  16
   1   0 -43 848.484 269.594  14
  -1   0  42 88.1509 368.668  16
   1   0 -42 230.195 264.916  14
   1   0 -41 138.494 241.699  14
  -1   0  41 382.614 365.514  16
   1   0 -40-161.777 201.186  14
  -1   0  40 35.0134 308.643  16
  -1   0  39 59511.4 2743.80  16
   1   0 -39 61593.1 2373.93  14
  -1   0  38-211.063 281.647  16
   1   0 -38-282.377 256.227  14
   1   0 -37 17215.6 1292.44  14
  -1   0  37 17654.6 1492.49  16
   1   0 -36 92.9397 205.797  14
  -1   0  36-208.756 386.806  16
   1   0 -35 13230.4 1174.03  14
  -1   0  35 13892.2 1375.31  16
  -1   0  34 434.522 314.744  16
   1   0 -34 35.5835 205.216  14
   1   0 -33 1542.67 434.483  14
   1   0 -33 2739.53 916.067   5
  -1   0  33 1512.65 505.242  16
   1   0 -32 111.860 277.242  14
  -1   0  32 297.527 514.397   3
  -1   0  32-96.4962 382.289  16
   1   0 -32-766.476 606.741   5
  -1   0  31 1509.90 663.416   3
   1   0 -31 1333.02 389.212  14
  -1   0  31 1939.82 491.882  16
   1   0 -31 2394.69 843.737   5
  -1   0  30-414.917 590.418   3
   1   0 -30-250.656 438.014   5
   1   0 -30-15.2653 205.723  14
  -1   0  30 26.3753 289.231  16
  -1   0  29 12027.4 1710.79   3
   1   0 -29 12137.9 1045.05  14
  -1   0  29 11385.6 1149.67  16
   1   0 -29 13063.6 1712.10   5
   1   0 -28 95.6826 345.011  18
  -1   0  28 186.223 320.886  16
  -1   0  28 234.502 438.672   3
   1   0 -28 307.514 241.661  14
   1   0 -28-319.611 380.774   5
  -1   0  27 20442.4 2122.13   3
   1   0 -27 17906.1 2010.60   5
   1   0 -27 16236.6 1832.05  18
   1   0 -26 90.4896 337.743  18
  -1   0  26-111.673 334.778   3
   1   0 -25 137710. 5079.20  18
  -1   0  25 173888. 5798.46   3
   1   0 -24 28.8487 442.782  18
  -1   0  24 17.9705 313.989   3
   1   0 -23 16270.7 1654.43  18
  -1   0  23 16230.9 1697.57   3
   1   0 -22 377.235 269.536  18
  -1   0  22-78.6518 352.171   3
  -1   0  21 40085.7 2511.29   3
   1   0 -21 39207.2 2398.41  18
   1   0 -20 754.183 424.865  18
  -1   0  20 810.488 484.294   3
   1   0 -19 20909.6 1658.48  18
  -1   0  19 19576.3 1668.92   3
   1   0 -18 68.2721 325.981  18
  -1   0  18-170.735 350.416   3
  -1   0  17 69153.4 2906.17   3
   1   0 -17 62395.6 2629.98  18
   1   0 -16 212.036 196.786  18
  -1   0  16-6.61614 252.272   1
  -1   0  16 10.1283 270.751   3
  -1   0  15-4.06976 247.327   1
   1   0 -15-65.1873 250.420  18
  -1   0  15 317.092 266.607   3
  -1   0  14 3.94872 213.986   1
  -1   0  14 87.6392 289.265   3
   1   0 -14 25.4013 194.254  18
  -1   0  13 3702.23 581.767   1
   1   0 -13 3287.86 557.520  18
  -1   0  13 4301.10 644.911   3
  -1   0  12 18.4520 219.792   1
   1   0 -12-90.5429 165.648  18
  -1   0  12 102.419 220.663   3
  -1   0  11 537.146 238.378   1
   1   0 -11 660.198 243.558  18
  -1   0  11 525.156 247.930   3
  -1   0  10 184.609 260.254   1
   1   0 -10 63.4561 181.712  18
  -1   0  10 374.059 325.385   3
  -1   0   9 19579.4 1096.37   3
  -1   0   9 20179.2 1033.14   1
   1   0  -9 18821.8 963.417  18
   1   0  -8-24.1504 131.323  18
  -1   0   8 235.206 220.917   1
  -1   0   8-0.91220 180.521   3
   1   0  -7 81.9586 113.666  18
  -1   0   7-86.9465 184.601   3
  -1   0   7-18.6254 143.946   1
  -1   0   6-35.0717 124.420   1
  -1   0   6 35.4147 159.633   3
   1   0  -6-40.2320 100.935  18
  -1   0   5 8646.31 479.119   1
  -1   0   5 8631.22 567.004   3
   1   0  -5 7848.13 437.741  18
  -1   0   4-46.1002 126.822   3
   1   0  -4 82.7890 82.1282  18
  -1   0   4-15.3716 78.1785   1
  -1   0   3 302.081 128.035   3
   1   0  -3 491.335 158.409   6
   1   0  -3 362.570 128.750   2
  -1   0   3 326.851 98.4017   1
  -1   0   2 141.375 80.9003   1
   1   0  -2 43.3171 97.4909   2
   1   0  -2-22.2944 96.4008   6
   1   0  -1 701.760 147.780   6
   1   0  -1 614.774 114.818   2
   1   0   0 123.999 108.567   6
   1   0   0 18.1959 59.5827   2
   1   0   1 252.870 78.8692   2
   1   0   1 264.657 106.212   6
   1   0   1 280.067 128.182   5
   1   0   2 128.875 79.0308   2
  -1   0  -2-163.490 141.143  18
   1   0   2 152.378 121.075   6
   1   0   2 85.3817 104.801   5
  -1   0  -3 1288.16 144.559  17
  -1   0  -3 1431.09 247.875  18
   1   0   3 1829.03 186.190   3
  -1   0  -4 214.562 99.6639  17
   1   0   4 145.645 122.590   3
  -1   0  -4 206.224 172.445  18
   1   0   5 710.218 161.236   3
  -1   0  -5 571.881 128.968  17
  -1   0  -5 506.626 238.515  18
  -1   0  -6-3.02715 107.924  17
   1   0   6-144.306 155.196   3
  -1   0  -6 43.6919 183.361  18
  -1   0  -7 17350.2 1109.76  18
   1   0   7 17299.2 819.677   3
  -1   0  -7 16522.1 791.424  17
   1   0   8-134.490 162.487   3
  -1   0  -8 56.0441 144.841  17
  -1   0  -8 383.238 245.100  18
  -1   0  -9 1409.39 469.586  18
   1   0   9 2158.39 379.450   3
   1   0  10-177.510 178.723   3
  -1   0 -10 17.4906 296.565  18
  -1   0 -11 18117.5 1384.65  18
   1   0  11 18351.4 1107.33   3
  -1   0 -12 11.0449 309.969  18
   1   0  12 400.110 311.474   3
  -1   0 -13 4217.50 776.609  18
   1   0  13 2730.51 495.866   3
   1   0  14 70.1332 238.867   3
  -1   0 -14 570.941 454.788  18
  -1   0 -15 616.610 336.016  18
   1   0  15 431.431 325.325   3
   1   0  16 3.04816 243.527   3
  -1   0 -16-1137.36 483.578  18
  -1   0 -17 17695.8 1734.78  18
   1   0  17 17148.9 1411.50   3
  -1   0 -18-109.068 400.432  18
   1   0  18-383.744 294.489   3
  -1   0 -19 1574.86 585.668  18
   1   0  19 1406.97 500.111   3
   1   0  20-335.058 328.989   3
  -1   0 -20-107.769 300.279  18
   1   0  21 807.202 450.146   3
  -1   0 -21 662.707 492.142  18
   1   0  22 6.68007 266.097   3
  -1   0 -22 231.669 320.308  18
   1   0  23 7070.53 1103.68   3
  -1   0 -23 7779.14 1286.83  18
  -1   0 -24 60.8789 299.604  18
   1   0  24 196.383 329.880   3
  -1   0 -25 12017.0 1716.62  18
   1   0  25 12472.0 1567.15   3
   1   0  26 224.999 312.380   3
  -1   0 -26-348.128 519.640  18
   1   0  27 39982.8 2905.57   3
  -1   0 -27 42206.8 3351.08  18
   1   0  27 44736.0 2183.30  16
   1   0  28 152.121 171.574   7
   1   0  28 401.240 334.718   3
   1   0  28 325.099 323.215  16
   1   0  29 27635.8 1335.08   7
  -1   0 -29 28867.1 2915.73  18
   1   0  29 32383.6 1962.21  16
   1   0  29 30689.0 2665.73   3
   1   0  30 95.6008 294.043  16
   1   0  30 474.003 557.070   3
  -1   0 -30-466.642 441.398  18
   1   0  30-295.057 197.472   7
   1   0  31 1054.24 519.060   3
   1   0  31 839.816 377.909  16
  -1   0 -31 789.773 534.870  18
   1   0  31 934.681 297.923   7
   1   0  32-352.453 605.087   3
   1   0  32-60.5125 140.375   7
   1   0  32-166.618 375.643  16
  -1   0 -32 793.792 680.571  18
   1   0  33 35248.9 2146.47  16
   1   0  33 33701.2 1477.59   7
   1   0  34-82.3106 153.583   7
   1   0  34-45.7530 342.031  16
   1   0  35 4028.08 797.051  16
   1   0  36-470.439 413.596  16
   1   0  37 50302.4 1808.58  12
   1   0  37 59656.5 2784.27  16
   1   0  38 75.3035 385.311  16
   1   0  38 92.0860 174.424  12
   1   0  39 4944.29 538.324  12
   1   0  39 3679.62 824.289  16
   1   0  40 211.390 169.390  12
   1   0  40 85.8267 366.496  16
   1   0  41 21102.3 982.671  12
   1   0  41 21945.5 1598.58  16
   1   0  42 31.0636 306.658  16
   1   0  43 4433.58 653.645  16
   1   0  44 488.271 292.728  16
   1   0  45 1481.28 401.267  16
   1   0  46 176.975 205.045  16
   1   0  47 1987.25 394.822  16
  -1  -1  47 785.883 152.083  12
  -1  -1  47 1298.07 324.218  16
  -1   1  46 1746.41 353.588  16
  -1  -1  46 1815.64 398.231  16
  -1  -1  46 1682.13 250.068  12
   1  -1 -46 1437.39 263.378  14
  -1   1  45 9864.44 877.606  16
  -1  -1  45 8912.01 600.115  12
  -1  -1  45 9386.97 862.713  16
   1   1 -45 10158.0 785.098  14
   1  -1 -45 10542.9 758.924  14
  -1  -1  44 1863.28 301.103  12
  -1   1  44 1096.67 353.373  16
   1  -1 -44 1504.12 334.208  14
  -1  -1  44 1586.69 439.470  16
   1   1 -44 1710.32 381.671  14
   1   1 -43 7444.75 742.055  14
  -1   1  43 6686.15 805.305  16
   1  -1 -43 7208.90 719.237  14
  -1  -1  43 6386.73 826.497  16
  -1   1  42-46.9382 265.057  16
   1  -1 -42-129.039 186.768  14
   1   1 -42-274.100 230.941  14
  -1  -1  42 372.690 362.867  16
  -1   1  41 11356.8 1103.71  16
   1   1 -41 12524.8 1020.83  14
   1  -1 -41 12325.8 993.262  14
  -1  -1  41 11192.9 1163.21  16
  -1  -1  40 2380.31 571.538  16
   1   1 -40 2276.48 500.497  14
  -1   1  40 2264.28 577.436  16
   1  -1 -40 2326.16 478.675  14
   1   1 -39 110.584 268.396  14
  -1  -1  39 125.658 346.945  16
   1  -1 -39 75.2421 247.299  14
  -1   1  39 107.694 344.973  16
  -1  -1  38 4404.60 821.781  16
   1   1 -38 5063.30 715.292  14
   1  -1 -38 5015.34 690.892  14
  -1   1  38 4708.94 773.724  16
  -1  -1  37 1872.44 598.482  16
   1   1 -37 1961.40 488.766  14
   1  -1 -37 2020.19 460.513  14
  -1   1  37 2374.02 598.905  16
  -1   1  36 333.107 277.108  16
   1   1 -36-207.105 266.845  14
  -1  -1  36 38.8946 406.218  16
   1  -1 -36-90.8898 207.765  14
  -1  -1  35 2094.80 634.731  16
   1  -1 -35 1713.90 432.518  14
   1   1 -35 2286.44 520.839  14
  -1   1  35 1682.40 534.515  16
  -1   1  34 9275.57 1091.15  16
   1   1 -34 10407.5 1030.43  14
   1  -1 -34 10428.3 1006.96  14
  -1  -1  34 10182.9 1204.88  16
   1   1 -33 8499.02 922.034  14
  -1  -1  33 9140.91 1134.61  16
   1  -1 -33 8454.47 944.186  14
  -1   1  33 8104.23 1014.51  16
   1  -1 -33 7501.04 1399.54  13
   1  -1 -32 258.800 220.995  14
   1   1 -32 353.947 223.988  14
  -1  -1  32 964.740 452.866  16
  -1  -1  32 598.440 621.730   3
  -1   1  32 186.736 409.642   3
   1  -1 -32 666.749 678.108  13
   1  -1 -32 1029.15 557.962   5
  -1   1  32 319.683 287.691  16
  -1   1  31 20271.9 1545.48  16
   1  -1 -31 21055.5 2493.25   5
   1  -1 -31 17504.1 2122.14  13
   1   1 -31 22310.5 1459.87  14
  -1  -1  31 22734.0 1716.21  16
   1  -1 -31 21919.1 1455.48  14
   1  -1 -31 18585.1 2279.66  18
  -1  -1  31 19940.7 2254.96   3
  -1   1  31 20083.0 2371.55   3
  -1   1  30 1501.21 761.592   3
   1  -1 -30 1756.43 786.218  18
   1  -1 -30 1207.32 796.275  13
  -1   1  30 1760.29 453.871  16
   1  -1 -30 1597.13 416.107  14
  -1  -1  30 1924.77 537.838  16
  -1  -1  30 1372.88 553.367   3
   1   1 -30 1408.59 367.329  14
   1   1 -29 43891.5 1972.34  14
  -1   1  29 39529.6 2046.54  16
   1  -1 -29 38424.3 3128.92  18
  -1   1  29 43854.6 3361.78   3
  -1  -1  29 44540.9 2356.08  16
   1  -1 -29 43432.5 1976.19  14
  -1  -1  29 41696.8 3153.54   3
  -1   1  28 4050.85 659.589  16
  -1  -1  28 4329.02 719.401  16
   1  -1 -28 4119.73 635.713  14
  -1  -1  28 3492.24 920.778   3
   1  -1 -28 2867.49 806.042  13
   1  -1 -28 4534.54 1082.75  18
  -1   1  28 3707.29 1006.01   3
   1   1 -28 4496.88 632.430  14
   1   1 -27 47918.8 1973.06  14
   1  -1 -27 42663.5 3158.46  18
   1   1 -27 49875.3 2908.49   5
   1  -1 -27 43932.0 1927.10  14
  -1  -1  27 48871.6 2348.63  16
  -1  -1  27 45468.9 3201.58   3
  -1   1  27 49069.6 3345.51   3
  -1   1  27 42964.2 2033.27  16
   1  -1 -26 33812.4 2731.79  18
  -1   1  26 36183.0 2799.82   3
   1   1 -26 34920.4 2377.75   5
  -1  -1  26 33086.5 2664.46   3
   1  -1 -25 10628.7 1567.63  18
   1   1 -25 13523.8 1462.49   5
  -1  -1  25 13543.7 1660.75   3
  -1   1  25 13858.3 1725.18   3
   1   1 -24 107317. 4043.28   5
  -1   1  24 115492. 4757.64   3
  -1  -1  24 113392. 4583.44   3
   1   1 -24 100176. 4017.85  18
   1  -1 -24 97848.2 4480.01  18
   1   1 -23 20868.5 1785.41  18
  -1  -1  23 22975.4 2112.18   1
   1   1 -23 25068.5 1900.68   5
  -1  -1  23 26218.4 2151.32   3
  -1   1  23 25371.9 2195.48   3
   1  -1 -23 21053.7 2035.85  18
   1  -1 -22 52745.6 3060.08  18
   1   1 -22 49259.5 2521.20   5
   1   1 -22 51285.3 2718.36  18
  -1  -1  22 49099.9 2953.68   1
  -1   1  22 51997.9 3042.18   3
  -1  -1  22 53663.6 2966.11   3
  -1  -1  21 46.5269 274.066   1
   1  -1 -21 674.269 534.624  18
  -1   1  21-42.4286 363.915   3
   1   1 -21 338.094 192.914  18
   1   1 -21-65.7079 240.827   5
  -1  -1  21 317.327 357.049   3
  -1  -1  20 125527. 4308.22   1
  -1   1  20 128756. 4393.58   3
   1   1 -20 117655. 3651.35   5
  -1  -1  20 121143. 4280.88   3
   1  -1 -20 117763. 4359.81  18
   1   1 -20 113057. 3744.15  18
  -1  -1  19 34064.8 2185.10   1
   1  -1 -19 29225.6 2080.65  18
   1   1 -19 32546.9 1921.83   5
  -1   1  19 35340.7 2264.18   3
  -1  -1  19 33598.2 2179.27   3
   1   1 -19 27242.7 1764.60  18
   1  -1 -18 130137. 4264.66  18
  -1   1  18 138515. 4338.94   3
  -1  -1  18 143314. 4277.81   3
   1   1 -18 135136. 3777.95   5
  -1  -1  18 149026. 4366.15   1
   1   1 -18 124533. 3688.92  18
   1   1 -17 2810.47 552.871   5
  -1   1  17 2888.75 651.205   3
   1  -1 -17 2020.17 605.057  18
   1   1 -17 1840.44 443.367  18
  -1  -1  17 3290.94 713.332   1
  -1  -1  17 2113.65 513.723   3
  -1  -1  16 64497.6 2745.51   3
   1   1 -16 56538.8 2303.99  18
  -1   1  16 66895.3 2776.27   3
  -1  -1  16 62309.9 2647.01   1
   1   1 -16 58485.9 2340.22   5
   1  -1 -16 56411.1 2607.09  18
  -1   1  15 563.971 348.450   3
  -1  -1  15 1147.05 437.614   3
   1   1 -15 391.749 218.565  18
   1  -1 -15 508.198 290.385  18
  -1  -1  15 483.372 314.375   1
   1   1 -15 680.579 326.713   5
   1   1 -14 688.598 320.041   5
  -1  -1  14 256.662 293.610   1
   1   1 -14 529.698 229.024  18
  -1   1  14 445.810 366.213   3
  -1  -1  14 193.190 254.314   3
   1  -1 -14 1019.12 441.343  18
   1   1 -13 14207.9 1032.79   5
   1   1 -13 15853.9 1080.39  18
  -1   1  13 15881.0 1245.44   3
  -1  -1  13 16740.3 1267.65   3
  -1  -1  13 15361.8 1233.40   1
   1  -1 -13 16248.2 1317.78  18
   1   1 -12 72118.3 2190.72  18
   1  -1 -12 78264.0 2705.45  18
  -1   1  12 74472.9 2545.17   3
  -1  -1  12 74165.6 2562.53   1
   1   1 -12 73772.6 2182.67   5
  -1  -1  12 78797.0 2558.60   3
   1  -1 -12 77869.1 1800.84   4
   1   1 -11 36863.2 1504.97   5
   1  -1 -11 37156.4 1783.41  18
   1   1 -11 32375.2 1936.36  17
   1  -1 -11 38020.0 1291.81   4
  -1   1  11 37479.1 1726.53   3
   1   1 -11 32669.6 1384.20  18
  -1  -1  11 39324.7 1775.40   3
  -1  -1  11 38692.4 1741.59   1
  -1   1  10 6258.92 705.383   3
  -1  -1  10 5927.64 701.238   1
   1   1 -10 6134.72 580.539   5
   1   1 -10 7442.43 624.877  18
   1  -1 -10 7527.71 792.407  18
   1  -1 -10 6375.09 540.411   4
  -1  -1  10 6480.76 710.621   3
   1   1 -10 7693.48 937.046  17
   1   1  -9 260.444 148.774   5
   1  -1  -9 112.201 233.526  18
  -1  -1   9-66.1794 194.275   1
   1   1  -9 414.545 239.100  17
  -1  -1   9 258.115 225.180   3
   1  -1  -9 131.059 155.637   4
   1   1  -9 161.090 139.816  18
  -1   1   9-50.3639 208.166   3
   1   1  -8 27760.1 1132.56   5
   1  -1  -8 27305.8 1122.84   4
  -1   1   8 28557.2 1301.02   3
  -1  -1   8 28354.0 1308.17   1
   1  -1  -8 28080.4 1396.71  18
   1   1  -8 27676.1 1531.25  17
   1   1  -8 25891.9 963.843  18
  -1   1   7 27554.5 1193.14   3
   1  -1  -7 27169.2 1294.12  18
  -1  -1   7 27430.8 1215.20   1
   1   1  -7 27410.8 1065.65   5
   1  -1  -7 26916.6 1078.68   4
   1   1  -7 25297.5 1402.60  17
   1   1  -7 23487.5 827.800  18
   1   1  -7 28532.3 1405.08   2
   1   1  -6 45878.4 1344.96   5
   1  -1  -6 47295.7 1435.06   4
   1   1  -6 43806.6 1733.67  17
   1   1  -6 44636.6 1738.15   2
  -1  -1   6 43923.2 1500.58   1
   1   1  -6 40529.0 972.979  18
  -1   1   6 48573.3 1500.26   3
   1  -1  -6 46606.7 1610.32  18
   1  -1  -5 1866.03 303.845   4
  -1  -1   5 2153.65 345.532   1
   1   1  -5 1711.05 261.062   5
   1   1  -5 1984.18 386.415   2
  -1   1   5 1885.01 295.950   3
   1   1  -5 1579.51 327.916  17
   1  -1  -5 1774.88 316.730  18
   1  -1  -4 999.937 212.788   4
  -1  -1   4 1345.09 278.693   1
   1  -1  -4 1238.90 257.513   6
   1   1  -4 1427.03 300.306  17
   1   1  -4 1232.58 225.852   5
   1   1  -4 1105.60 297.416   2
  -1   1   4 1270.32 217.580   3
   1  -1  -3 1477.89 294.136   4
  -1  -1   3 1386.95 287.219   1
   1  -1  -3 1204.80 254.133   6
  -1   1   3 1420.48 230.053   3
   1   1  -3 1419.17 323.946   2
   1   1  -3 1201.51 304.223  17
   1   1  -3 1161.43 212.396   5
   1   1  -2 11305.7 694.368   2
  -1   1   2 10311.9 405.819   2
  -1  -1   2 9920.67 649.177   1
  -1   1   2 10186.6 492.109   3
   1   1  -2 10257.5 586.619   5
   1   1  -2 12063.9 697.636  17
   1  -1  -2 11628.0 707.374   4
   1  -1  -2 9840.04 348.028   1
   1  -1  -2 10164.6 626.497   6
   1  -1  -1 9657.81 665.946   4
   1  -1  -1 8158.91 547.039   6
  -1  -1   1 8214.21 563.072   1
  -1   1   1 8209.98 323.844   2
  -1   1   1 7540.42 385.203   3
   1   1  -1 8852.04 557.989   5
   1  -1  -1 9135.33 343.045   1
   1   1  -1 8463.64 609.434   2
   1  -1  -1 9088.58 481.022   5
  -1  -1   1 7378.78 426.142  18
   1   1  -1 8182.07 534.164  17
   1   1   0 52732.0 1371.93   5
   1  -1   0 51701.9 1025.86   5
   1   1   0 52456.3 1413.00   2
   1  -1   0 53730.0 1520.63   4
   1  -1   0 47531.8 1286.27   6
   1   1   0 53554.4 1238.48  17
  -1   1   0 47136.6 753.142   2
  -1  -1   0 53852.5 1233.19  18
   1  -1   0 53104.0 915.518   1
   1   1   1 2153.03 234.944  17
   1  -1   1 2065.10 295.196   6
   1  -1   1 2355.40 372.001   4
   1   1   1 2127.73 145.200   6
  -1   1  -1 2461.43 196.486   2
   1  -1   1 2328.92 229.321   1
   1   1   1 2185.41 329.782   2
  -1  -1  -1 2014.65 281.788  18
   1  -1   1 2427.86 220.878   5
   1  -1   2 36771.2 1295.27   4
   1   1   2 37540.7 1286.94   2
   1  -1   2 34618.3 722.532   5
   1  -1   2 35575.7 963.367   1
   1  -1   2 36738.3 1184.94   6
  -1  -1  -3 7804.62 626.552  18
   1  -1   3 9097.67 635.895   6
   1   1   3 9302.43 642.438   2
   1  -1   3 8333.20 636.995   4
   1  -1   3 8394.24 531.027   1
   1  -1   4 764.519 130.348   3
   1  -1   4 1034.08 242.483   1
  -1  -1  -4 1459.12 346.220  18
   1   1   4 1320.34 266.859   2
   1  -1   4 987.292 250.082   4
   1  -1   4 993.919 265.909   6
   1  -1   5 542.345 171.178   3
  -1   1  -5 471.356 253.132  17
   1   1   5 181.748 185.397   2
  -1  -1  -5 340.125 219.100  18
   1   1   5 473.091 214.028   3
   1  -1   5 626.348 248.431   1
   1  -1   5 397.553 274.366   4
   1  -1   5 665.873 290.218   6
   1  -1   6 18436.8 745.793   3
   1  -1   6 16039.2 862.396   4
   1   1   6 18023.9 990.191   3
  -1  -1  -6 19250.1 1178.78  18
  -1   1  -6 18207.1 1051.55  17
   1   1   6 18849.0 1036.05   2
   1  -1   6 17273.4 950.760   1
   1   1   7 16040.6 1002.90   2
   1  -1   7 14343.8 720.189   3
   1  -1   7 14154.3 939.890   1
   1  -1   7 14011.3 818.881   4
  -1  -1  -7 14271.1 1089.07  18
   1   1   7 14749.6 926.053   3
  -1   1  -7 13771.5 957.352  17
  -1   1  -8 203310. 3732.80  17
   1  -1   8 199731. 2973.02   4
   1  -1   8 196899. 2943.24   3
   1  -1   8 200927. 3594.68   1
   1  -1   9 17064.8 932.886   3
  -1   1  -9 17909.6 1153.85  17
  -1  -1  -9 18621.8 1315.11  18
   1  -1   9 16806.1 873.657   4
   1   1   9 18913.3 1134.98   3
  -1   1  -9 17795.5 1257.32  18
   1  -1   9 16557.3 1104.75   1
   1  -1  10 204612. 4000.95   1
  -1  -1 -10 217097. 4654.21  18
  -1   1 -10 220175. 4294.16  17
   1  -1  10 202379. 2989.07   4
   1  -1  10 203843. 3380.04   3
   1   1  10 223132. 4027.20   3
  -1   1 -10 219276. 4579.80  18
   1  -1  11 207.965 163.352   3
   1  -1  11 371.412 226.472   4
  -1   1 -11 215.703 226.339  17
   1  -1  11 79.6032 237.610   1
  -1  -1 -11 116.073 280.055  18
  -1   1 -11 234.035 283.182  18
   1   1  11 5.10832 225.983   3
  -1   1 -12 145862. 4026.42  18
   1   1  12 143766. 3503.57   3
  -1  -1 -12 150477. 4127.80  18
   1  -1  12 133248. 3029.07   3
  -1   1 -12 144793. 3811.44  17
   1  -1  12 132847. 3551.54   1
   1   1  13 14500.9 1179.36   3
  -1   1 -13 13275.3 1289.68  18
   1  -1  13 14148.7 1061.13   3
   1  -1  13 15454.0 1263.38   1
  -1   1 -13 12747.7 1185.85  17
  -1  -1 -13 13458.2 1376.86  18
  -1   1 -14 168155. 4442.27  17
   1  -1  14 163083. 4194.49   1
   1  -1  14 163315. 3677.31   3
   1   1  14 164143. 4164.01   3
  -1   1 -14 169344. 4663.52  18
  -1  -1 -14 180345. 4887.22  18
   1  -1  15 4256.67 670.878   3
   1   1  15 4146.09 720.097   3
  -1   1 -15 3632.24 779.192  18
   1  -1  15 4401.38 780.922   1
  -1   1 -15 3878.60 754.018  17
  -1  -1 -15 3831.51 814.578  18
   1   1  16 176251. 4475.16   3
  -1   1 -16 167689. 4766.92  17
   1  -1  16 169427. 4113.91   3
  -1  -1 -16 177066. 5298.12  18
  -1   1 -16 167759. 5043.12  18
  -1  -1 -17 6126.60 1029.78  18
   1   1  17 5923.91 875.766   3
  -1   1 -17 5414.10 984.615  18
   1  -1  17 6213.70 833.497   3
  -1   1 -18 30166.9 2276.91  18
   1   1  18 35302.5 2156.90   3
  -1  -1 -18 33992.2 2443.87  18
   1  -1  18 35261.9 2039.75   3
  -1  -1 -19 2935.49 862.538  18
   1   1  19 2817.98 689.437   3
   1  -1  19 2597.93 584.093   3
  -1   1 -19 2142.65 627.977  18
  -1  -1 -20 3680.67 890.076  18
   1   1  20 4928.51 914.717   3
   1  -1  20 5132.54 817.202   3
  -1   1 -20 3681.40 897.567  18
   1  -1  21 4121.09 781.359   3
   1   1  21 4337.33 855.321   3
  -1   1 -21 4722.44 985.051  18
  -1  -1 -21 5360.86 1097.98  18
   1   1  22 1954.06 612.909   3
   1  -1  22 1703.67 531.334   3
  -1  -1 -22 800.931 383.471  18
  -1   1 -22 946.393 554.187  18
  -1   1 -23 327.045 538.638  18
   1  -1  23 377.424 292.596   3
  -1  -1 -23-325.130 470.058  18
   1   1  23 743.599 564.196   3
  -1   1 -24 592.114 503.057  18
   1   1  24 1629.08 617.663   3
   1  -1  24 596.108 415.541   3
  -1  -1 -24 849.451 611.363  18
  -1  -1 -25 1370.37 678.327  18
  -1   1 -25 880.325 483.462  18
   1   1  25 1361.46 616.033   3
   1  -1  25 1357.50 517.894   3
  -1   1 -26 1590.90 599.820  18
   1  -1  26 2411.09 557.854  16
   1   1  26 2059.60 740.345   3
  -1  -1 -26 2451.09 916.355  18
   1  -1  26 2482.97 741.924   3
   1  -1  26 2526.09 418.152   7
  -1  -1 -26 2276.37 857.221  13
   1   1  26 2123.49 473.544  16
   1  -1  27 5246.01 1091.73   3
   1  -1  27 5162.22 592.959   7
  -1   1 -27 3186.55 908.087  18
  -1  -1 -27 3584.89 1018.35  18
   1   1  27 3412.14 592.846  16
   1   1  27 4672.26 1091.42   3
  -1  -1 -27 2445.23 827.067  13
   1  -1  27 4754.92 727.597  16
   1  -1  28 2090.32 575.162  16
  -1  -1 -28 738.371 555.717  18
  -1  -1 -28 2368.86 994.659  13
   1  -1  28 1162.91 307.158   7
  -1   1 -28 1425.90 728.071  18
   1   1  28 598.971 395.063   3
   1  -1  28 964.299 498.316   3
  -1  -1 -28 1149.47 314.196  14
   1   1  28 1455.22 445.966  16
  -1  -1 -29 10790.5 1833.11  18
   1   1  29 11775.3 1161.98  16
  -1   1 -29 9718.91 1702.51  18
   1  -1  29 11591.0 1611.36   3
   1  -1  29 9702.80 831.495   7
  -1  -1 -29 11526.6 964.727  14
   1   1  29 10613.2 1602.86   3
  -1  -1 -29 9385.35 1567.85  13
   1  -1  29 13223.1 1312.76  16
   1  -1  30 1187.29 622.708   3
   1  -1  30 1494.78 519.965  16
   1   1  30 1004.15 504.708   3
  -1   1 -30 1000.52 719.110  18
  -1  -1 -30 862.356 502.160  18
   1   1  30 1023.34 426.996  16
  -1  -1 -30 944.517 301.179  14
   1  -1  30 1501.97 383.350   7
   1   1  31 21539.5 2360.52   3
  -1  -1 -31 16998.0 2324.95  18
   1  -1  31 20982.1 2198.78   3
   1  -1  31 19752.5 1196.17   7
   1   1  31 20321.7 1571.73  16
   1  -1  31 20473.5 1652.30  16
  -1   1 -31 16034.0 2196.87  18
   1  -1  32 1528.16 376.999   7
   1  -1  32 2106.98 624.771  16
   1   1  32 2023.37 547.182  16
  -1   1 -32 1058.84 644.586  18
   1  -1  33 178.115 197.475   7
   1   1  33 114.739 304.671  16
   1  -1  33 299.918 419.533  16
   1  -1  34 491.041 345.679  16
   1  -1  34 1069.29 307.815   7
   1   1  34 852.697 448.892  16
   1  -1  35 1542.37 380.137   7
   1   1  35 1676.58 454.454  16
   1  -1  35 2156.18 623.254  16
   1  -1  36 1690.11 587.448  16
   1  -1  36 1188.34 313.421   7
   1   1  36 1304.01 439.689  16
   1  -1  37-170.553 420.094  16
   1   1  37 767.047 538.912  16
   1  -1  37 231.418 184.324  12
   1  -1  37 302.471 193.623   7
   1  -1  38 1954.17 402.854  12
   1  -1  38 1507.45 335.489   7
   1   1  38 1713.21 532.635  16
   1  -1  38 2172.04 631.569  16
   1  -1  39 222.406 368.035  16
   1   1  39 853.023 477.675  16
   1  -1  39 349.088 206.220  12
   1   1  40 2.85785 299.903  16
   1  -1  40 166.093 320.293  16
   1  -1  40 567.079 267.492  12
   1   1  41-416.845 344.363  16
   1  -1  41-20.5105 145.128  12
   1   1  42 770.155 467.059  16
   1  -1  42 1729.38 297.644  12
   1  -1  42 2285.02 560.495  16
   1  -1  43 10823.2 680.571  12
   1  -1  43 12688.3 1136.34  16
   1   1  43 10384.0 1052.48  16
   1  -1  44 5420.26 441.691  12
   1  -1  44 4707.17 769.155  16
   1   1  44 3547.99 718.374  16
   1   1  45 363.453 286.663  16
   1  -1  45 847.505 337.287  16
   1  -1  45 123.678 116.223  12
   1   1  46 5389.33 606.611  16
   1  -1  46 5798.71 620.871  16
   1  -1  47 4807.48 523.509  16
   1   1  47 4143.20 478.685  16
  -1  -2  46 1204.40 286.862  16
  -1  -2  46 1284.29 226.907  12
   1  -2 -45 1057.69 241.109  14
  -1  -2  45 594.934 250.537  16
  -1   2  45 785.971 264.888  16
  -1  -2  45 1150.63 230.562  12
  -1  -2  44 1843.53 432.413  16
   1   2 -44 2102.39 400.030  14
   1  -2 -44 1840.28 350.683  14
  -1  -2  44 2304.05 337.336  12
  -1   2  44 2218.71 441.568  16
  -1   2  43 3173.84 561.676  16
   1  -2 -43 3638.58 474.899  14
   1   2 -43 3566.40 526.669  14
  -1  -2  43 3677.91 430.521  12
  -1  -2  43 3159.29 621.108  16
  -1   2  42 9669.00 997.651  16
   1   2 -42 13135.4 1043.15  14
  -1  -2  42 11231.4 1086.53  16
   1  -2 -42 12174.5 904.419  14
   1   2 -41 241.090 238.942  14
  -1  -2  41-97.4337 283.030  16
   1  -2 -41-180.249 241.904  14
  -1   2  41 29.2647 277.629  16
  -1   2  40 17957.7 1355.12  16
   1   2 -40 21420.6 1423.67  14
  -1  -2  40 20088.3 1552.62  16
   1  -2 -40 19443.1 1242.45  14
   1   2 -39 2567.01 510.226  14
  -1   2  39 1823.42 556.424  16
   1  -2 -39 2222.26 481.029  14
  -1  -2  39 2609.88 705.983  16
  -1   2  38 8251.29 959.379  16
   1   2 -38 9836.15 1004.99  14
  -1  -2  38 7870.26 1082.29  16
   1  -2 -38 9599.36 929.048  14
   1  -2 -37 304.037 200.397  14
   1   2 -37 201.527 222.563  14
  -1  -2  37-15.1721 359.136  16
  -1   2  37 642.059 368.802  16
   1  -2 -36 3936.16 1103.70  13
  -1   2  36 5011.94 821.639  16
   1  -2 -36 7216.85 878.470  14
  -1  -2  36 7172.92 1032.31  16
   1   2 -36 6144.65 810.153  14
  -1  -2  35 126.896 406.181  16
   1  -2 -35 472.821 344.956  14
  -1   2  35 233.352 311.662  16
   1  -2 -35 684.324 731.123  13
   1   2 -35-172.046 312.641  14
  -1   2  34 21915.1 1618.22  16
   1   2 -34 25590.9 1695.96  14
   1  -2 -34 24152.8 1570.01  14
  -1  -2  34 26511.8 1999.49  16
  -1   2  33 16032.8 1375.93  16
  -1  -2  33 18781.9 1658.27  16
   1   2 -33 18860.0 1401.17  14
   1  -2 -33 17771.2 1346.42  14
   1  -2 -32 4582.46 681.060  14
  -1  -2  32 5262.07 919.490  16
  -1   2  32 4920.00 805.211  16
   1   2 -32 5516.12 796.763  14
   1  -2 -32 4780.89 1158.63  13
  -1   2  31 16052.8 2080.10   2
  -1   2  31 13648.0 1236.35  16
  -1  -2  31 17900.8 1607.69  16
   1  -2 -31 12936.9 1959.20  18
  -1  -2  31 17206.0 2082.15   3
   1   2 -31 17958.9 1368.97  14
   1  -2 -31 11141.3 1599.81  13
   1  -2 -31 15068.4 1232.95  14
  -1   2  31 15995.8 2113.81   3
   1  -2 -30 2009.22 717.075  13
   1  -2 -30 2882.10 544.493  14
  -1   2  30 3310.63 630.865  16
  -1  -2  30 2879.27 810.946   3
   1  -2 -30 3393.96 1074.24  18
  -1  -2  30 3365.08 750.992  16
  -1   2  30 3577.08 1050.21   3
   1   2 -30 4001.64 668.619  14
  -1   2  29 500.741 479.734   3
   1  -2 -29 67.7476 191.268  14
  -1   2  29 393.729 291.414  16
  -1  -2  29 848.986 538.592   3
   1  -2 -29 201.948 480.351  18
   1   2 -29 476.597 254.405  14
  -1  -2  29 526.310 308.436  16
   1  -2 -29-84.8861 409.461  13
   1  -2 -28 1145.68 701.408  18
  -1  -2  28 734.744 491.110   3
  -1   2  28 824.240 350.984  16
  -1  -2  28 518.200 417.473  16
   1  -2 -28 437.574 431.497  13
   1   2 -28 616.779 317.822  14
  -1   2  28 1030.93 719.964   3
  -1  -2  27 40600.2 2276.82  16
   1   2 -27 40387.5 1909.43  14
   1  -2 -27 31678.3 2258.25  13
  -1  -2  27 40002.3 3197.72   1
  -1  -2  27 39788.6 3008.38   3
  -1   2  27 42735.3 3220.75   3
  -1   2  27 34730.0 1808.53  16
   1  -2 -27 34667.5 3023.02  18
   1   2 -26-25.7931 170.598  14
   1  -2 -26 398.929 367.969  13
  -1  -2  26 752.150 402.654  16
  -1  -2  26 245.666 397.539   1
  -1   2  26 384.518 438.918   3
   1  -2 -26 440.362 332.331  18
  -1  -2  26-267.881 471.801   3
  -1   2  26 36.6762 231.850  16
  -1  -2  25 3456.06 668.520  16
   1  -2 -25 2461.39 828.823  18
  -1  -2  25 3025.64 904.706   1
   1   2 -25 3287.16 552.348  14
   1  -2 -25 2971.33 641.516  13
  -1  -2  25 3516.93 832.445   3
  -1   2  25 3027.23 826.270   3
  -1  -2  24 2347.05 695.815   3
   1  -2 -24 2939.23 868.473  18
  -1  -2  24 2815.99 813.255   1
  -1   2  24 2898.96 840.555   3
   1  -2 -23 2938.59 798.398  18
  -1   2  23 3943.38 957.026   3
  -1  -2  23 3727.33 858.762   3
  -1  -2  23 3251.60 890.669   1
   1  -2 -22 195.929 408.064  18
  -1  -2  22 461.917 534.146   3
  -1  -2  22 167.794 308.133   1
  -1   2  22 474.628 403.449   3
  -1  -2  21 6123.24 1077.11   3
   1  -2 -21 5911.54 1142.03  18
  -1  -2  21 6438.29 1127.49   1
  -1   2  21 6861.18 1206.25   3
  -1  -2  20 5372.99 1014.43   1
  -1   2  20 3951.05 906.669   3
  -1  -2  20 5090.69 967.196   3
   1  -2 -20 2894.92 868.246  18
  -1  -2  19-149.531 301.632   3
   1  -2 -19 385.641 421.336  18
  -1  -2  19-310.861 447.411   1
   1   2 -19 29.6195 140.236  18
  -1   2  19-231.975 315.522   3
  -1  -2  18 29802.9 2067.93   3
   1   2 -18 29115.1 1607.75   5
   1  -2 -18 29395.0 2266.31  18
  -1   2  18 30144.8 2141.33   3
  -1  -2  18 28291.4 2143.68   1
   1   2 -18 27488.0 1796.07  18
   1   2 -17 3781.86 964.533  17
   1   2 -17 3959.46 584.748   5
  -1  -2  17 4297.96 811.571   3
   1  -2 -17 4214.08 854.782  18
   1   2 -17 3224.65 612.856  18
  -1   2  17 4684.60 805.364   3
  -1  -2  17 3539.86 787.814   1
  -1  -2  16 341.994 352.668   1
   1   2 -16 1629.59 669.915  17
   1  -2 -16 253.870 134.013   4
   1   2 -16 355.558 192.871   5
   1  -2 -16 1584.53 516.323  18
   1   2 -16 1475.88 420.537  18
  -1   2  16-112.706 351.800   3
  -1  -2  16 127.471 259.452   3
  -1  -2  15 28252.7 1813.83   3
   1   2 -15 23279.5 1486.18  18
   1  -2 -15 25205.5 1943.12  18
   1   2 -15 27337.4 1411.20   5
   1  -2 -15 28578.5 1489.87   4
  -1   2  15 27451.9 1875.82   3
  -1  -2  15 27458.4 1887.15   1
   1   2 -15 24669.4 2117.76  17
  -1  -2  14 28163.6 1766.81   3
   1   2 -14 27161.4 2178.56  17
   1  -2 -14 29490.8 1502.90   4
  -1   2  14 29016.3 1828.73   3
  -1  -2  14 29075.0 1886.80   1
   1  -2 -14 28259.1 1971.80  18
   1   2 -14 27759.6 1359.19   5
   1   2 -14 25173.9 1490.94  18
  -1  -2  13 16057.3 1396.27   1
  -1  -2  13 15026.8 1293.85   3
   1   2 -13 14804.1 961.163   5
   1  -2 -13 15313.6 1464.91  18
   1   2 -13 14188.5 1536.73  17
   1   2 -13 11711.0 985.901  18
   1  -2 -13 15045.1 1079.12   4
  -1   2  13 15295.8 1344.73   3
   1  -2 -12 25716.4 1435.46   4
   1   2 -12 23843.8 1870.70  17
  -1  -2  12 24203.0 1535.13   3
   1  -2 -12 23565.8 1739.93  18
  -1   2  12 24084.0 1612.50   3
   1   2 -12 23841.0 1181.71   5
  -1  -2  12 27188.6 1680.21   1
   1   2 -12 20906.7 1244.11  18
   1   2 -11 225.545 171.511  18
  -1   2  11 112.765 230.387   3
   1  -2 -11 255.296 291.781  18
   1  -2 -11-147.194 228.879   4
   1   2 -11 211.916 324.771  17
   1   2 -11 125.455 144.173   5
  -1  -2  11 45.7100 230.188   1
  -1   2  10 183403. 3788.33   2
   1  -2 -10 189458. 3867.29   4
   1   2 -10 184578. 4804.05  17
   1  -2 -10 188234. 4635.35  18
  -1   2  10 187514. 3985.97   3
  -1  -2  10 186834. 4173.68   1
   1   2 -10 179220. 2941.31   5
   1   2  -9 33110.2 1925.44   2
  -1   2   9 30729.9 1509.68   2
   1  -2  -9 33821.3 1638.94   4
   1  -2  -9 31622.9 1856.83  18
   1   2  -9 31398.3 1930.45  17
   1   2  -9 31603.9 1198.83   5
  -1  -2   9 33265.6 1719.55   1
  -1   2   9 33002.0 1628.13   3
  -1   2   8 201245. 3814.72   3
   1  -2  -8 206669. 4069.36   4
   1   2  -8 214662. 4838.06  17
   1   2  -8 202572. 2947.57   5
   1   2  -8 199623. 4561.98   2
  -1  -2   8 209124. 4144.57   1
  -1   2   8 201266. 3680.72   2
   1   2  -7 31528.7 1816.27   2
   1  -2  -7 34255.6 1640.80   4
  -1   2   7 33105.1 1406.05   2
   1   2  -7 32661.9 1164.73   5
  -1   2   7 34146.2 1534.33   3
   1   2  -7 32408.7 1816.03  17
  -1  -2   7 33565.6 1640.54   1
  -1   2   6 300092. 4299.92   3
   1   2  -6 285139. 5303.31   2
   1   2  -6 300698. 3473.42   5
   1   2  -6 322529. 5509.00  17
   1  -2  -6 315558. 4952.87   4
  -1   2   6 297184. 4051.74   2
  -1  -2   6 307506. 4757.33   1
   1  -2  -5 217.911 267.377   4
   1   2  -5 430.480 304.740   2
  -1  -2   5-132.138 221.567   1
   1   2  -5 71.6409 242.734  17
  -1   2   5 138.931 201.284   2
   1   2  -5-142.248 175.690   5
  -1   2   5-17.8033 165.453   3
  -1   2   4 581977. 5170.56   2
   1  -2  -4 596050. 5666.70   6
  -1  -2   4 593251. 6417.87   1
   1   2  -4 601211. 7070.56   2
   1   2  -4 605185. 7006.37  17
  -1  -2   3 50011.0 1828.32   1
   1  -2  -3 50641.4 2000.39   4
  -1   2   3 48300.3 1434.67   2
   1  -2  -3 49675.8 1589.30   6
   1   2  -3 47360.7 1910.26  17
   1   2  -3 50379.2 1989.18   2
   1  -2  -3 47787.2 1362.21   1
   1  -2  -2 126481. 3117.09   4
  -1  -2   2 119207. 2816.00   1
   1  -2  -2 118464. 2136.60   1
   1   2  -2 124933. 3020.31   2
   1  -2  -2 118472. 2395.17   6
  -1   2   2 117852. 2135.12   2
   1  -2  -1 43836.2 1308.79   1
  -1   2   1 43460.9 1286.37   2
   1  -2  -1 44272.8 1874.43   4
   1  -2  -1 42598.9 1432.35   6
   1   2  -1 42513.7 1695.90  17
   1   2  -1 44901.5 1774.37   2
  -1  -2   1 44757.8 1714.56   1
  -1   2   0 28627.1 1086.98   2
   1  -2   0 29893.1 892.040   5
  -1  -2   0 28852.2 1360.42   1
   1  -2   0 28566.6 1081.75   1
   1   2   0 33638.0 1463.90  17
   1   2   0 30782.3 1442.52   2
   1  -2   0 29236.3 1523.12   4
   1  -2   0 28644.3 1184.64   6
   1  -2   1 22373.0 654.274   5
  -1  -2  -1 22163.9 1193.56  18
  -1  -2  -1 24266.1 1243.42   1
   1   2   1 24610.1 1282.94   2
   1  -2   1 24093.7 1023.73   1
   1  -2   1 22401.2 1043.97   6
  -1   2  -1 23827.6 1050.52   2
   1  -2   1 23103.3 1361.83   4
  -1   2  -2 30269.2 1243.94   2
  -1  -2  -2 29438.7 1410.62  18
   1  -2   2 29408.9 1541.83   4
   1   2   2 32600.5 1531.34   2
   1  -2   2 32243.5 1250.12   1
   1  -2   2 29258.7 1217.32   6
  -1  -2  -3 7215.65 736.310  18
   1  -2   3 6874.43 598.143   1
   1  -2   3 6690.53 613.874   6
   1   2   3 7892.19 768.222   2
   1  -2   3 6654.65 716.526   4
  -1   2  -3 7101.27 615.415   2
   1   2   4 10834.6 933.750   2
  -1  -2  -4 11439.8 936.445  18
  -1   2  -4 10095.5 754.139   2
   1  -2   4 9407.40 743.914   6
   1  -2   4 8918.86 730.913   1
   1  -2   4 10007.1 903.116   4
   1  -2   5 278.487 196.545   6
   1  -2   5 93.6650 261.155   4
   1   2   5 209.664 221.471   2
   1  -2   5 265.243 197.729   1
   1  -2   6 28655.0 1392.73   6
  -1  -2  -6 32755.4 1736.69  18
  -1   2  -6 31015.5 1728.01  17
   1  -2   6 26967.3 1509.45   4
   1   2   6 31001.3 1588.71   2
   1  -2   6 29561.3 1402.86   1
  -1   2  -7 345.955 277.275  17
   1  -2   7 173.577 226.507   6
   1  -2   7 14.7559 231.212   1
  -1  -2  -7-58.6958 345.601  18
   1  -2   7 3.17025 198.942   4
   1   2   7-118.924 261.983   2
  -1   2  -8 1089.31 446.662  17
   1  -2   8 718.633 331.426   4
   1  -2   8 567.877 173.461   3
   1   2   8 653.626 379.654   2
   1  -2   8 445.329 247.858   6
   1  -2   8 357.731 264.442   1
  -1  -2  -8 352.673 348.151  18
   1  -2   9 40.7632 234.605   6
   1   2   9 201.889 353.255   3
   1   2   9-183.396 239.672   2
   1  -2   9-116.905 188.402   3
  -1  -2  -9 225.496 287.130  18
   1  -2   9-37.9320 225.692   4
  -1   2  -9-152.366 348.431  17
   1  -2   9 106.210 257.495   1
   1  -2  10 33939.5 1650.74   4
  -1   2 -10 29793.0 1873.90  17
   1  -2  10 33177.7 1784.91   1
   1   2  10 35169.2 1936.81   2
   1   2  10 36287.2 1855.33   3
   1  -2  10 32379.8 1760.42   6
  -1  -2 -10 33147.2 2024.26  18
   1  -2  10 32289.4 1472.42   3
   1  -2  11-27.0760 248.796   1
   1   2  11 261.276 329.469   2
   1  -2  11 86.9105 279.152   6
  -1  -2 -11-51.2876 335.498  18
  -1   2 -11 423.471 393.567  17
   1   2  11-66.8897 230.529   3
   1  -2  11-64.8983 181.967   3
   1  -2  11 50.7733 214.001   4
   1  -2  12 70172.1 2331.11   3
  -1  -2 -12 68037.8 3072.69  18
  -1   2 -12 69325.4 2980.62  18
   1  -2  12 69845.3 2754.95   1
   1   2  12 78265.7 3035.43   2
  -1   2 -12 70825.1 3018.92  17
   1  -2  12 69733.0 2357.17   4
   1   2  12 76233.7 2844.23   3
   1  -2  13 20855.3 1280.60   4
   1  -2  13 21157.8 1323.16   3
  -1   2 -13 17560.7 1579.00  18
  -1  -2 -13 18755.4 1694.50  18
   1   2  13 20683.9 1581.43   3
   1   2  13 21563.8 1696.14   2
  -1   2 -13 16841.9 1597.73  17
   1  -2  13 19987.5 1536.73   1
   1  -2  14 37105.7 1726.14   4
  -1   2 -14 35812.6 2353.57  17
   1  -2  14 35442.9 2118.82   1
  -1  -2 -14 37688.5 2433.77  18
   1  -2  14 36665.6 1801.10   3
   1   2  14 36238.3 2253.10   2
  -1   2 -14 34698.9 2262.03  18
   1   2  14 37370.4 2131.62   3
   1   2  15 43278.3 2357.89   3
  -1   2 -15 37597.7 2411.07  18
  -1   2 -15 39009.6 2520.51  17
   1   2  15 44024.7 2491.88   2
   1  -2  15 42572.9 2026.96   3
  -1  -2 -15 38332.6 2524.21  18
   1  -2  15 43647.7 1803.53   4
   1  -2  15 42576.9 2362.89   1
  -1   2 -16 14019.3 1535.52  18
   1   2  16 13304.7 1399.01   3
   1  -2  16 13741.0 1218.82   3
  -1  -2 -16 15531.9 1681.91  18
   1   2  16 13873.5 1486.05   2
   1  -2  16 14184.9 1436.36   1
  -1   2 -16 14108.6 1562.37  17
   1   2  17 43860.3 2505.51   3
   1  -2  17 42711.9 2181.87   3
  -1   2 -17 33935.5 2458.57  18
  -1   2 -17 35593.4 2555.45  17
   1  -2  17 44689.1 2575.42   1
   1   2  17 43170.9 2645.66   2
  -1  -2 -17 37719.5 2669.51  18
  -1   2 -18 332.442 388.481  18
  -1   2 -18 300.623 460.117  17
   1   2  18 700.084 432.109   2
   1  -2  18 668.745 329.684   3
   1  -2  18 439.151 437.107   1
   1   2  18 653.073 425.381   3
  -1  -2 -18 3.89830 365.591  18
  -1  -2 -19 10264.4 1507.33  18
   1   2  19 10596.9 1367.41   3
  -1   2 -19 9478.57 1347.68  18
   1  -2  19 11127.0 1411.83   1
   1  -2  19 11802.9 1238.70   3
   1   2  19 11444.0 1470.43   2
  -1   2 -19 9913.01 1463.53  17
   1  -2  20 5436.96 1059.84   1
   1   2  20 5540.57 1011.02   2
  -1   2 -20 5365.56 1123.94  18
   1   2  20 4112.04 865.549   3
   1  -2  20 5652.36 864.426   3
  -1  -2 -20 5462.96 1121.28  18
  -1   2 -20 5201.17 1079.99  17
  -1  -2 -21 62.7296 482.925  18
   1  -2  21 24.2745 220.344   3
   1  -2  21-177.374 385.640   1
  -1   2 -21-370.520 444.667  17
   1   2  21-213.156 498.328   2
  -1   2 -21-147.285 289.467  18
   1   2  21-126.195 345.039   3
  -1   2 -22 32344.1 2706.23  18
   1   2  22 39408.6 2868.29   2
   1   2  22 37382.9 2735.32   3
  -1  -2 -22 39455.0 3109.73  18
   1  -2  22 44447.6 2607.86   3
   1   2  23 5505.94 1055.39   3
   1   2  23 5245.17 1103.63   2
   1  -2  23 5697.12 942.698   3
  -1   2 -23 4883.07 1111.52  18
  -1  -2 -23 5951.01 1307.15  18
   1   2  24 39748.2 3052.96   2
   1   2  24 40347.6 1853.68  16
  -1   2 -24 38707.2 3100.74  18
   1  -2  24 46400.1 2273.83  16
  -1  -2 -24 42124.8 3442.55  18
   1   2  24 40183.0 2928.42   3
   1  -2  24 43884.2 2720.90   3
   1  -2  24 43746.2 1652.74   7
   1  -2  25 23219.1 1233.51   7
  -1  -2 -25 20589.7 2416.87  18
   1  -2  25 25488.6 1731.01  16
  -1  -2 -25 19411.0 1815.90  13
   1   2  25 22022.7 2263.36   3
   1   2  25 21904.2 2259.50   2
   1   2  25 21893.8 1392.94  16
  -1   2 -25 18924.6 2233.17  18
   1  -2  25 24135.8 2056.73   3
   1  -2  26 138404. 4115.18  16
   1   2  26 132056. 5523.23   3
   1   2  26 128820. 5693.30   2
  -1  -2 -26 99737.1 4312.04  13
   1  -2  26 134712. 5009.26   3
   1  -2  26 130828. 2975.97   7
  -1  -2 -26 121565. 5928.60  18
   1   2  26 124401. 3417.89  16
  -1   2 -26 109947. 5426.00  18
  -1  -2 -27-5.37634 400.216  18
  -1   2 -27 1527.74 749.896  18
   1   2  27 453.980 355.630   3
   1   2  27 695.493 547.749   2
   1  -2  27 823.243 415.566  16
   1   2  27 609.753 306.512  16
  -1  -2 -27 282.921 512.369  13
   1  -2  27 699.702 315.490   7
  -1  -2 -28 14737.1 2166.57  18
  -1   2 -28 12170.4 1811.85  18
   1  -2  28 12715.4 973.551   7
  -1  -2 -28 10570.0 969.725  14
   1   2  28 11026.3 1846.91   2
   1   2  28 11173.8 1668.76   3
  -1  -2 -28 10393.3 1564.62  13
   1   2  28 14302.5 1232.27  16
   1  -2  28 17418.2 1498.71  16
   1   2  29 4255.77 1299.28   2
  -1  -2 -29 5002.14 1356.04  18
   1   2  29 3871.87 1067.20   3
   1   2  29 4685.45 762.592  16
   1  -2  29 5192.22 890.329  16
  -1   2 -29 3955.98 1103.93  18
  -1  -2 -29 4733.71 648.006  14
   1  -2  29 4526.30 592.050   7
  -1  -2 -29 3531.82 1093.12  13
  -1  -2 -30 41694.1 3214.60  13
   1  -2  30 57046.1 2827.48  16
  -1  -2 -30 47803.3 2082.51  14
   1  -2  30 49889.6 3786.26   6
   1   2  30 51419.7 2383.77  16
  -1  -2 -30 46043.4 3932.25  18
   1  -2  30 49003.3 1919.26   7
   1   2  30 43740.3 3801.97   2
   1   2  30 49414.7 3632.96   3
   1   2  31 1688.01 522.486  16
   1  -2  31 1384.61 584.040  16
   1  -2  31 1299.73 349.312   7
  -1  -2 -31 1588.65 411.477  14
  -1  -2 -31 711.910 589.894  13
   1   2  32 17127.3 1416.06  16
   1  -2  32 18496.5 1654.12  16
   1  -2  32 15157.8 1080.84   7
  -1  -2 -32 15138.2 2096.88  13
  -1  -2 -32 16791.0 1225.63  14
   1   2  33 8546.21 1066.20  16
  -1  -2 -33 8809.79 891.904  14
   1  -2  33 10589.1 1291.19  16
  -1  -2 -33 6762.62 1406.68  13
   1  -2  33 8798.84 819.821   7
  -1  -2 -34 1211.68 364.287  14
   1  -2  34 1082.12 335.550   7
   1   2  34 863.212 333.724  16
   1  -2  34 2166.26 613.153  16
   1  -2  35 2363.00 482.497  12
   1   2  35 3693.96 734.998  16
   1  -2  35 1916.78 424.303   7
   1  -2  35 2540.05 693.499  16
  -1  -2 -35 2460.28 493.333  14
   1   2  36 684.182 401.500  16
   1  -2  36 570.751 278.118  12
   1  -2  36 1023.98 537.133  16
   1   2  37 10076.3 1218.76  16
   1  -2  37 12827.9 1325.26  16
   1  -2  37 12303.4 928.629  12
   1   2  38 1824.45 532.201  16
   1  -2  38 1185.74 550.228  16
   1  -2  38 1770.61 442.724  12
   1  -2  39 948.585 317.787  12
   1   2  39 757.004 366.581  16
   1  -2  39 1603.79 497.740  16
   1  -2  40 1077.43 415.825  16
   1  -2  40 1278.99 289.413  12
   1   2  40 1722.58 516.145  16
   1  -2  41 1802.85 329.040  12
   1  -2  41 1530.54 483.722  16
   1   2  41 756.960 441.070  16
   1   2  42 106.632 275.664  16
   1  -2  42 137.490 168.249  12
   1  -2  42 144.501 323.586  16
   1  -2  43 1181.85 273.576  12
   1   2  43 1531.73 442.767  16
   1  -2  43 699.875 344.873  16
   1   2  44 389.198 341.362  16
   1  -2  44-179.930 278.882  16
   1  -2  44 120.267 117.731  12
   1  -2  45 341.165 234.962  16
   1  -2  45 321.607 131.915  12
   1   2  45 316.548 246.000  16
   1   2  46 6781.13 581.597  16
   1  -2  46 6889.37 610.286  16
  -1  -3  45 104.531 116.742  12
  -1  -3  45 241.713 198.973  16
   1  -3 -44 17.0251 111.611  14
  -1  -3  44 155.136 230.385  16
  -1  -3  44 251.800 142.080  12
  -1   3  43 3063.91 434.913  16
   1  -3 -43 2951.99 394.448  14
  -1  -3  43 2708.47 468.527  16
   1   3 -43 2729.81 454.882  14
  -1  -3  43 3351.83 386.406  12
  -1  -3  42 1061.04 269.251  12
   1  -3 -42 1218.09 301.971  14
  -1  -3  42 369.327 291.625  16
  -1   3  42 976.130 339.034  16
   1   3 -42 699.946 336.415  14
  -1  -3  41 5516.41 547.823  12
  -1   3  41 3869.61 594.059  16
  -1  -3  41 4001.84 721.874  16
   1  -3 -41 4961.27 577.122  14
   1   3 -41 5243.22 700.885  14
  -1  -3  40 2164.32 384.092  12
  -1  -3  40 1688.16 503.597  16
   1   3 -40 2277.93 485.848  14
   1  -3 -40 1960.02 388.553  14
  -1   3  40 1488.86 434.729  16
  -1   3  39 1952.21 594.873  16
  -1  -3  39 504.994 308.948  16
   1   3 -39 1143.64 440.455  14
   1  -3 -39 1138.40 311.244  14
  -1  -3  38-365.248 386.522  16
   1   3 -38 19.1682 253.702  14
   1  -3 -38-99.4386 233.860  14
  -1   3  38 331.182 231.922  16
  -1  -3  37 865.487 483.032  16
   1  -3 -37 203.930 249.264  14
  -1   3  37 152.405 214.198  16
   1   3 -37-34.5163 251.408  14
   1   3 -36 799.723 427.703  14
  -1   3  36 694.513 359.850  16
   1  -3 -36 663.935 292.126  14
  -1  -3  36 640.763 446.810  16
   1  -3 -36 213.406 675.680  13
   1   3 -35 1271.21 425.088  14
   1  -3 -35 659.469 773.471  13
  -1   3  35 1087.03 353.434  16
  -1  -3  35 2355.73 639.550  16
   1  -3 -35 1036.15 368.578  14
   1   3 -34 2971.80 629.368  14
   1  -3 -34 2238.52 524.952  14
  -1   3  34 2624.35 602.823  16
  -1  -3  34 2904.46 680.640  16
   1  -3 -34 3447.47 1127.49  13
  -1   3  33 7153.03 929.566  16
   1   3 -33 8446.43 1009.44  14
   1  -3 -33 6056.11 821.333  14
   1  -3 -33 6449.15 1265.51  13
  -1  -3  33 8103.36 1161.65  16
   1  -3 -32 4996.86 737.645  14
  -1   3  32 5774.96 815.134  16
  -1  -3  32 6162.77 955.700  16
   1   3 -32 6743.84 895.877  14
   1  -3 -32 5174.93 1040.67  13
   1   3 -31 15879.9 1388.48  14
  -1   3  31 13310.2 1205.54  16
  -1  -3  31 14747.9 1467.28  16
   1  -3 -30 2247.15 783.556  13
  -1  -3  30 3189.53 737.710  16
  -1   3  30 2783.92 579.485  16
   1   3 -30 3502.05 679.591  14
   1  -3 -29 333.246 450.664  13
   1   3 -29 521.197 308.166  14
  -1  -3  29 325.379 411.262   3
  -1   3  29 1310.23 602.196   2
  -1  -3  29 852.843 475.536  16
  -1   3  29 676.458 380.564  16
  -1   3  28 17212.5 2213.38   3
   1  -3 -28 17264.6 2322.80  18
  -1  -3  28 19842.9 1726.27  16
  -1   3  28 16767.2 1330.05  16
  -1   3  28 14849.4 1978.10   2
  -1  -3  28 13961.5 2155.81   1
   1   3 -28 19572.9 1512.56  14
   1  -3 -28 15913.4 1553.77  13
  -1  -3  28 16834.6 2034.61   3
   1  -3 -27-470.995 495.931  13
   1  -3 -27-464.498 681.146  18
  -1   3  27-1000.37 651.137   3
  -1  -3  27 167.086 509.445   1
  -1  -3  27-255.909 386.687  16
  -1  -3  27 100.055 356.229   3
  -1   3  27-133.394 208.430  16
  -1   3  27 433.607 542.077   2
   1  -3 -27-110.104 152.741  10
   1   3 -27 31.8271 280.841  14
  -1   3  26 18199.8 2069.84   2
  -1  -3  26 17567.4 2226.48   1
   1   3 -26 21872.5 1551.08  14
   1  -3 -26 19716.3 1639.46  13
   1  -3 -26 18962.0 1140.76  10
   1  -3 -26 17663.8 2285.71  18
  -1   3  26 18355.9 1306.55  16
  -1  -3  26 22140.1 1773.75  16
  -1  -3  26 19725.5 2187.72   3
  -1   3  26 19244.2 2270.91   3
  -1  -3  25 8507.34 1074.42  16
  -1   3  25 4946.08 1099.29   2
   1  -3 -25 5988.41 921.089  13
  -1   3  25 6656.49 1271.94   3
   1  -3 -25 5951.39 1408.33  18
  -1  -3  25 6442.73 1369.75   1
  -1   3  25 6028.15 747.443  16
   1   3 -25 7608.91 900.302  14
   1  -3 -25 5817.71 649.871  10
  -1  -3  25 5248.44 1080.30   3
   1  -3 -24 20526.1 1497.78  13
   1  -3 -24 22071.5 2444.90  18
   1  -3 -24 20399.8 1162.92  10
  -1  -3  24 20271.3 2049.51   3
  -1   3  24 18337.0 2118.72   3
  -1   3  24 19078.6 1271.24  16
  -1  -3  24 25357.7 1837.58  16
  -1  -3  24 21395.3 2332.00   1
   1   3 -24 23585.0 1551.12  14
  -1   3  24 17422.7 2053.08   2
   1   3 -23 15679.0 1250.68  14
  -1  -3  23 15066.2 1935.84   1
   1  -3 -23 13527.3 931.929  10
  -1  -3  23 14205.4 1724.12   3
  -1  -3  23 17283.8 1504.45  16
  -1   3  23 13203.7 1772.37   3
  -1   3  23 13022.6 1011.65  16
  -1   3  23 12972.4 1745.26   2
   1  -3 -23 15277.9 2048.19  18
   1  -3 -23 14803.4 1229.35  13
  -1   3  22 13852.3 1737.77   3
  -1  -3  22 14722.8 1721.89   3
   1  -3 -22 17448.9 1281.95  13
   1  -3 -22 17579.5 2127.38  18
   1   3 -22 19211.6 1350.57  14
  -1  -3  22 21656.9 1648.48  16
  -1   3  22 11632.8 1688.58   2
  -1  -3  22 13555.2 1779.89   1
  -1   3  21 10264.8 1470.75   2
  -1  -3  21 14513.1 1785.21   1
   1  -3 -21 12353.3 1781.62  18
  -1   3  21 12584.6 1622.73   3
  -1  -3  21 12785.0 1590.12   3
   1  -3 -20 39242.5 3022.83  18
  -1   3  20 36728.9 2701.95   3
  -1  -3  20 35390.7 2539.95   3
  -1  -3  20 37495.1 2758.52   1
  -1   3  20 32559.3 2523.56   2
   1   3 -20 35642.3 3182.70  17
  -1   3  19 5820.84 1028.70   3
  -1   3  19 5227.68 937.704   2
   1   3 -19 5091.50 1196.14  17
  -1  -3  19 7110.59 1131.77   3
   1  -3 -19 4888.08 1107.45  18
  -1  -3  19 6206.09 1108.78   1
  -1  -3  18 1346.15 508.793   3
  -1   3  18 1239.59 465.262   2
  -1   3  18 1417.03 550.770   3
   1   3 -18 2509.54 868.566  17
   1  -3 -18 2285.82 806.206  18
  -1  -3  18 2017.04 605.625   1
  -1  -3  17 5982.81 1003.53   3
  -1   3  17 6627.84 1087.16   3
   1   3 -17 6183.64 1233.92  17
   1  -3 -17 6563.64 1175.36  18
  -1  -3  17 6117.84 1123.75   1
  -1   3  17 5268.77 968.941   2
   1  -3 -16 5459.75 813.842   4
  -1   3  16 5317.82 946.398   2
   1   3 -16 4407.35 1056.62  17
  -1  -3  16 5674.74 951.617   3
  -1  -3  16 5714.27 1000.03   1
   1  -3 -16 3832.46 948.529  18
  -1   3  16 6411.82 1045.07   3
  -1  -3  15 6007.37 1053.76   1
  -1  -3  15 5642.57 933.399   3
  -1   3  15 4568.37 871.088   2
  -1   3  15 5153.94 866.927   3
   1  -3 -15 6419.32 933.113   4
   1   3 -15 5011.28 1073.00  17
  -1  -3  14 1007.48 468.217   3
   1   3 -14 2016.54 675.238  17
  -1   3  14 1084.98 432.587   2
  -1  -3  14 713.554 442.687   1
  -1   3  14 1101.46 457.329   3
   1   3 -14 2132.03 500.487  18
   1  -3 -14 872.995 412.831   4
  -1  -3  13 6572.83 924.730   3
   1   3 -13 6080.17 790.864  18
   1  -3 -13 6650.11 903.393   4
  -1  -3  13 7016.22 1062.61   1
  -1   3  13 6371.50 912.537   3
  -1   3  13 6157.91 902.261   2
   1   3 -13 6459.32 1127.86  17
  -1   3  12 19793.9 1565.89   3
  -1  -3  12 19690.1 1660.76   1
   1   3 -12 20931.6 1968.64  17
  -1   3  12 18918.6 1513.00   2
   1  -3 -12 20349.5 1596.01   4
  -1  -3  11 87233.1 3421.61   1
   1  -3 -11 93308.1 3393.64   4
  -1   3  11 88634.5 3244.95   3
   1   3 -11 83793.2 3818.36  17
  -1  -3  11 85128.8 2424.31   6
  -1   3  11 85459.4 3055.44   2
   1   3 -10 17678.5 1725.61  17
  -1  -3  10 18087.0 1542.81   1
   1   3 -10 20547.3 1747.76   2
  -1   3  10 17059.6 1352.33   2
   1  -3 -10 19913.3 1578.88   4
   1   3  -9-8.54210 279.810   2
  -1   3   9 441.913 340.884   2
  -1  -3   9-91.5714 239.143   1
   1  -3  -9 173.466 364.185   4
   1   3  -9-200.412 383.872  17
   1   3  -8 8228.26 1113.04   2
   1  -3  -8 7532.48 984.708   4
  -1  -3   8 7622.13 974.398   1
  -1   3   8 7949.80 862.039   2
   1  -3  -8 7042.06 756.203   1
   1   3  -8 8947.66 1183.45  17
   1   3  -7 1208.87 525.483  17
   1  -3  -7 661.042 338.704   4
  -1  -3   7 807.620 377.917   1
   1  -3  -7 417.098 232.704   1
   1   3  -7 771.500 430.220   2
  -1   3   7 376.138 225.864   2
   1  -3  -6 1429.00 486.050   4
  -1   3   6 1826.97 455.585   2
   1   3  -6 1232.33 435.890  17
   1  -3  -6 1496.15 348.258   1
   1   3  -6 1477.00 519.740   2
  -1  -3   6 1555.04 432.444   1
   1   3  -5 20557.1 1642.48   2
   1   3  -5 20492.0 1612.54  17
  -1  -3   5 22598.7 1523.75   1
  -1   3   5 21383.2 1291.46   2
   1  -3  -5 22028.2 1231.03   1
   1  -3  -5 22804.8 1647.35   4
   1  -3  -4 312.042 316.349   4
  -1  -3   4 179.454 250.563   1
   1  -3  -4 454.595 214.374   1
   1   3  -4 219.281 315.236  17
   1   3  -4 129.651 286.225   2
  -1   3   4 88.7247 171.151   2
   1  -3  -3 7977.41 743.124   1
   1   3  -3 7794.76 968.135  17
  -1   3   3 8510.57 780.860   2
   1   3  -3 8835.76 1041.14   2
   1  -3  -3 8353.78 1040.92   4
  -1  -3   3 8953.42 936.357   1
   1  -3  -3 8222.77 746.553   6
   1  -3  -2 2063.30 617.437   4
   1   3  -2 1286.58 444.368   2
   1  -3  -2 1666.47 343.290   1
  -1  -3   2 1505.66 456.157   1
  -1   3   2 1481.38 380.321   2
   1  -3  -2 1698.20 347.228   6
   1   3  -2 1990.55 532.440  17
   1   3  -1 323.836 269.428  17
   1  -3  -1 563.374 232.954   1
  -1  -3   1 354.136 336.518   1
   1  -3  -1 736.269 364.095   4
  -1   3   1 493.394 221.988   2
   1   3  -1 419.514 266.848   2
   1  -3  -1 264.453 154.887   6
   1  -3   0 18459.7 1084.37   6
   1   3   0 19633.2 1412.94   2
   1  -3   0 19828.2 1186.33   1
  -1  -3   0 20008.4 1380.97   1
   1  -3   0 19165.0 1561.00   4
  -1   3   0 18930.5 1222.41   2
   1  -3   0 18760.7 762.341   5
   1   3   0 17615.9 1380.97  17
   1   3   1-178.063 331.537   2
  -1  -3  -1 585.848 382.372   1
   1  -3   1 381.385 355.624   4
   1   3   1 317.820 338.844  17
   1  -3   1 121.917 202.754   1
  -1   3  -1 153.012 212.236   2
   1  -3   1 364.065 200.060   6
   1   3   2 6800.44 830.395   2
  -1  -3  -2 6605.98 829.414   1
   1  -3   2 6017.25 891.410   4
   1  -3   2 6284.80 642.801   6
   1  -3   2 6389.61 698.719   1
  -1   3  -2 5542.69 708.511   2
   1   3   3 14424.5 1251.40   2
   1  -3   3 15583.3 1099.50   1
  -1   3  -3 14203.0 1139.47   2
  -1  -3  -3 14797.8 1205.58   1
   1  -3   3 13314.2 937.031   6
   1  -3   3 13003.9 1281.99   4
  -1  -3  -4 11326.8 1088.87   1
   1  -3   4 10204.6 853.623   6
  -1   3  -4 10517.7 979.219   2
   1  -3   4 10370.2 910.965   1
   1  -3   4 8399.24 1035.27   4
   1   3   4 10558.2 1092.33   2
   1  -3   5 21102.3 1634.64   4
  -1  -3  -5 25755.9 1618.51   1
   1   3   5 22935.9 1600.88   2
   1  -3   5 23842.7 1326.00   6
   1  -3   5 26394.8 1499.89   1
  -1  -3  -5 24321.5 1648.70  18
  -1   3  -5 26737.2 1593.29   2
  -1   3  -6 13362.4 1413.09  17
   1  -3   6 9076.02 824.400   6
  -1  -3  -6 13972.1 1317.31  18
  -1   3  -6 11374.5 1075.67   2
   1  -3   6 10061.6 965.493   1
   1   3   6 10112.3 1082.43   2
   1  -3   6 8972.19 1089.24   4
   1   3   7 1485.71 468.731   2
  -1   3  -7 716.289 405.538  17
   1  -3   7 1036.65 330.205   1
   1  -3   7 1035.17 325.780   6
   1  -3   7 921.240 426.739   4
  -1  -3  -7 800.877 423.988  18
  -1   3  -8 25434.9 1989.89  17
   1   3   8 18570.7 1506.41   2
   1  -3   8 17749.0 1250.51   6
   1  -3   8 18797.6 1509.25   4
  -1  -3  -8 26113.2 1879.45  18
   1  -3   8 18048.6 1382.62   1
   1  -3   9 12350.6 1248.51   4
   1  -3   9 11687.3 1052.10   6
  -1  -3  -9 13139.4 1388.11  18
   1  -3   9 12277.3 1173.70   1
   1   3   9 13204.6 1350.70   2
   1  -3   9 12068.5 979.537   3
  -1   3  -9 12217.1 1388.88  17
   1  -3  10 89984.4 2715.14   3
  -1  -3 -10 98198.8 3879.20  18
   1  -3  10 88219.6 3221.85   1
   1   3  10 93104.5 3546.53   2
   1  -3  10 89975.1 3369.47   4
   1  -3  10 83452.1 2910.04   6
  -1   3 -10 93969.6 3859.39  17
   1  -3  11 473.964 329.778   1
  -1  -3 -11 448.428 388.483  18
   1   3  11 383.234 408.114   2
   1  -3  11 267.587 248.201   6
  -1   3 -11 1092.36 565.895  17
   1  -3  11 28.6548 398.515   4
   1  -3  11 120.309 201.739   3
   1  -3  12 103609. 3445.79   6
  -1   3 -12 119500. 4603.21  17
   1  -3  12 109800. 3749.48   4
   1  -3  12 113208. 3234.30   3
   1   3  12 112788. 4062.45   2
   1  -3  12 109026. 3799.49   1
  -1  -3 -12 124073. 4582.02  18
   1  -3  13 17258.9 1468.42   6
   1  -3  13 18052.1 1335.62   3
   1  -3  13 17584.7 1624.06   1
  -1   3 -13 17345.5 1914.53  17
   1  -3  13 17971.8 1545.46   4
   1   3  13 18962.8 1736.27   2
  -1  -3 -13 17914.4 1843.90  18
   1  -3  14 53656.5 2624.49   6
  -1  -3 -14 59337.6 3353.26  18
   1   3  14 59055.5 3104.74   2
  -1   3 -14 57540.8 3346.06  17
   1  -3  14 54897.4 2921.25   1
   1  -3  14 56813.3 2664.79   4
   1  -3  14 56898.6 2443.39   3
  -1  -3 -15 5640.72 1115.74  18
   1  -3  15 5324.54 888.167   6
   1   3  15 5458.49 1016.91   2
   1  -3  15 5790.38 808.852   3
   1  -3  15 5369.14 956.643   1
   1  -3  15 5764.41 906.586   4
  -1   3 -15 4754.15 971.711  18
  -1   3 -15 5854.59 1149.86  17
   1  -3  16 15971.0 1529.85   6
   1   3  16 16796.4 1775.11   2
   1  -3  16 16290.0 1374.02   3
  -1   3 -16 21145.2 2146.81  17
   1  -3  16 16918.1 1720.69   1
  -1  -3 -16 19773.1 2046.27  18
  -1   3 -16 16761.7 1816.72  18
  -1  -3 -17 3181.26 898.597  18
  -1   3 -17 3050.48 846.088  17
   1  -3  17 3813.18 868.255   1
   1   3  17 3424.84 824.851   2
  -1   3 -17 2473.25 690.205  18
   1  -3  17 3761.36 789.373   6
   1  -3  17 4119.15 718.789   3
   1   3  18 8046.35 1314.51   2
  -1   3 -18 6995.33 1249.21  18
   1  -3  18 7559.61 1238.41   1
   1  -3  18 8469.36 1198.73   6
   1  -3  18 8023.56 1020.06   3
  -1  -3 -18 6756.84 1279.19  18
  -1   3 -18 8141.42 1428.21  17
   1  -3  19 8981.53 1384.25   1
  -1   3 -19 6559.35 1226.82  18
   1  -3  19 7661.44 1208.03   6
   1   3  19 9192.68 1388.92   2
  -1   3 -19 7967.20 1476.26  17
  -1  -3 -19 7646.47 1421.15  18
  -1  -3 -20 74.5526 408.272  18
   1  -3  20 398.392 475.416   1
   1  -3  20 112.570 272.877   6
   1   3  20-322.050 489.188   2
  -1   3 -20 260.083 398.620  17
  -1   3 -20-29.4359 340.288  18
  -1   3 -21-56.3900 551.978  17
  -1  -3 -21 1384.59 733.213  18
   1  -3  21 308.103 253.605   7
   1   3  21 534.107 219.696  16
   1   3  21 624.240 520.781   2
   1  -3  21-57.2261 365.846   1
   1  -3  21-146.668 361.851   6
  -1   3 -21 717.206 499.415  18
   1  -3  21 1121.76 426.641  16
   1  -3  22 6147.52 900.561  16
   1  -3  22 5059.07 1170.32   1
  -1  -3 -22 5459.65 835.033  13
   1  -3  22 4974.49 1047.23   6
   1  -3  22 4795.78 586.755   7
  -1  -3 -22 5597.10 1277.19  18
   1   3  22 5583.25 1180.43   2
  -1   3 -22 5407.30 1227.36  18
   1   3  22 6257.46 736.036  16
  -1   3 -22 5434.85 1317.93  17
  -1  -3 -23 4407.45 1163.79  18
   1  -3  23 3497.36 882.891   6
  -1  -3 -23 4299.53 751.493  13
   1   3  23 4506.20 1067.39   2
   1  -3  23 3980.80 564.317   7
   1  -3  23 4645.72 806.982  16
  -1   3 -23 2991.32 963.536  17
  -1   3 -23 3532.37 958.862  18
   1   3  23 4556.13 631.496  16
   1  -3  23 3537.37 1031.31   1
   1   3  24 24915.8 2551.49   2
   1  -3  24 23611.0 2321.97   6
   1   3  24 24469.8 1496.72  16
  -1  -3 -24 25878.0 2822.71  18
   1  -3  24 29368.3 1999.96  16
   1  -3  24 26371.9 1420.00   7
  -1   3 -24 24131.0 2508.48  18
  -1  -3 -24 24940.5 1830.77  13
   1  -3  25 1347.67 763.974   6
   1   3  25 1368.99 412.136  16
  -1  -3 -25 933.389 475.756  13
  -1  -3 -25 1954.73 780.750  18
   1  -3  25 1743.19 558.927  16
   1  -3  25 817.892 310.779   7
   1   3  25 917.817 585.188   2
  -1   3 -25 1596.89 775.748  18
  -1  -3 -26 544.753 380.103  13
   1  -3  26 413.111 322.410  16
  -1  -3 -26 8.11952 379.830  18
   1  -3  26 338.680 238.448   7
   1   3  26 472.749 577.453   2
   1  -3  26 363.723 388.733   6
   1   3  26 3.38651 209.175  16
   1  -3  27 11953.5 1758.41   6
   1   3  27 13152.1 1168.34  16
  -1  -3 -27 10124.6 1344.80  13
   1  -3  27 13055.1 1343.51  16
   1   3  27 12630.4 1914.58   2
  -1  -3 -27 13034.2 2141.06  18
   1  -3  27 13027.0 1026.36   7
  -1  -3 -28 545.580 502.243  13
   1  -3  28 660.656 286.345   7
   1  -3  28 274.935 286.783  16
   1   3  28 52.5114 321.707  16
   1  -3  28 122.306 330.237   6
   1  -3  29 708.075 319.953   7
   1  -3  29 16.6956 328.700  16
  -1  -3 -29 221.616 446.311  13
   1   3  29 471.562 356.523  16
  -1  -3 -30 1684.81 750.751  13
   1  -3  30 3445.43 803.622  16
   1   3  30 3412.34 732.412  16
   1  -3  31 498.072 295.754  12
   1  -3  31 424.879 316.623  16
  -1  -3 -31 123.250 230.300  14
  -1  -3 -31 368.659 734.457  13
   1   3  31 359.489 282.024  16
   1   3  32 12474.8 1187.35  16
   1  -3  32 12043.5 1003.96  12
   1  -3  32 11387.6 1294.43  16
  -1  -3 -32 10578.6 994.981  14
  -1  -3 -32 9410.81 1715.15  13
   1  -3  33 2642.53 494.614  12
   1  -3  33 2504.68 656.004  16
   1   3  33 2468.92 566.072  16
  -1  -3 -33 2862.03 533.778  14
  -1  -3 -33 1520.49 1064.96  13
   1  -3  34 12282.3 984.248  12
  -1  -3 -34 9727.11 1597.82  13
   1   3  34 10939.5 1112.65  16
  -1  -3 -34 11466.7 993.503  14
   1  -3  34 11221.1 1240.57  16
   1   3  35 1183.90 489.228  16
   1  -3  35 1989.49 421.847  12
  -1  -3 -35 2052.31 452.907  14
  -1  -3 -35 1474.54 760.339  13
   1  -3  35 2266.44 624.378  16
   1   3  36 2318.95 555.784  16
   1  -3  36 1424.26 519.462  16
   1  -3  36 2225.99 452.512  12
  -1  -3 -36 1592.29 375.606  14
   1   3  37 874.524 405.081  16
   1  -3  37 811.081 450.367  16
   1  -3  37 1332.40 379.811  12
   1   3  38 3.01793 248.209  16
   1  -3  38-75.5374 189.148  12
   1  -3  38-288.406 395.243  16
   1   3  39 1767.38 494.582  16
   1  -3  39 2514.89 397.434  12
   1  -3  39 1330.63 506.486  16
   1  -3  40 3070.15 576.346  16
   1  -3  40 3551.96 447.887  12
   1  -3  41 582.959 231.853  12
   1  -3  41 569.125 327.388  16
   1   3  41 445.089 279.076  16
   1  -3  42 6797.14 711.840  16
   1   3  42 7258.30 744.290  16
   1  -3  42 8008.66 585.390  12
   1  -3  43 2202.83 402.866  16
   1   3  43 2025.49 379.657  16
   1  -3  43 2359.77 310.687  12
   1  -3  44 7399.55 472.993  12
   1   3  44 6488.12 604.451  16
   1  -3  44 5748.19 581.065  16
  -1  -4  43 67.5705 105.226  12
   1  -4 -42 3888.34 394.341  14
  -1  -4  42 3749.40 354.289  12
   1   4 -41 19.6032 237.514  14
   1  -4 -41-66.4387 148.149  14
  -1  -4  41-6.37796 209.943  16
  -1  -4  41 41.2137 133.746  12
   1  -4 -40 8192.76 675.007  14
  -1  -4  40 7549.70 573.486  12
   1   4 -40 6999.23 836.938  14
  -1   4  40 7802.62 693.439  16
  -1  -4  40 7893.37 790.845  16
  -1   4  39 1929.20 377.689  16
   1   4 -39 1618.43 468.553  14
  -1  -4  39 1539.71 288.793  12
   1  -4 -39 1827.05 386.176  14
  -1  -4  39 931.355 432.149  16
   1  -4 -38 288.235 498.103  13
   1   4 -38 213.843 253.222  14
   1  -4 -38 296.993 230.755  14
  -1  -4  38-73.8304 278.421  16
  -1  -4  38 99.8122 172.679  12
  -1   4  38 398.211 274.124  16
   1  -4 -37 2641.19 506.588  14
  -1   4  37 2584.38 496.837  16
  -1  -4  37 3085.86 573.833  16
   1  -4 -37 1206.23 654.893  13
  -1  -4  37 2627.16 418.580  12
   1   4 -37 2678.07 576.169  14
  -1   4  36 2048.12 452.301  16
   1  -4 -36 2388.07 466.060  14
  -1  -4  36 2230.77 541.050  16
   1   4 -36 1414.07 443.437  14
  -1  -4  36 2070.63 373.872  12
   1  -4 -36 1757.07 858.809  13
   1   4 -35 1828.74 591.040  14
  -1  -4  35 1123.82 334.782  12
   1  -4 -35 1352.09 388.237  14
  -1  -4  35 1251.71 484.332  16
  -1   4  35 1057.74 343.940  16
   1  -4 -35 245.346 603.052  13
  -1   4  34 3304.68 600.052  16
   1  -4 -34 4218.29 655.711  14
   1  -4 -34 3205.47 939.115  13
  -1  -4  34 4236.95 774.748  16
   1   4 -34 4747.16 876.776  14
  -1   4  33 102.215 259.117  16
   1  -4 -33 323.039 534.543  13
   1   4 -33-246.730 352.421  14
   1  -4 -33 313.973 248.731  14
  -1  -4  33 88.9756 314.364  16
  -1  -4  32 40254.3 2432.65  16
   1   4 -32 43471.4 2524.26  14
  -1   4  32 36518.0 1925.12  16
   1  -4 -31 2243.34 740.870  13
   1   4 -31 4401.55 853.731  14
  -1  -4  31 4458.34 797.256  16
  -1   4  31 3856.45 653.253  16
   1   4 -30 2319.11 647.446  14
  -1  -4  30 1892.82 569.400  16
   1  -4 -30 2334.72 749.119  13
  -1   4  30 2031.56 476.544  16
   1  -4 -29 19264.7 1167.71  10
  -1  -4  29 20591.9 1727.01  16
  -1   4  29 18022.5 1370.71  16
   1   4 -29 20201.6 1733.50  14
   1  -4 -29 17172.7 1713.63  13
  -1   4  28 1693.48 449.367  16
   1  -4 -28 1534.85 360.667  10
  -1  -4  28 1820.50 630.150  16
   1  -4 -28 1096.62 490.220  13
   1   4 -28 1520.74 571.846  14
   1   4 -27 11617.4 1298.38  14
  -1  -4  27 11943.5 1356.76  16
   1  -4 -27 9061.09 847.061  10
  -1   4  27 9521.92 998.538  16
   1  -4 -27 10511.4 1233.28  13
  -1  -4  26 2489.25 681.425  16
  -1   4  26 1908.76 443.238  16
   1  -4 -26 1875.01 554.186  13
   1   4 -26 1562.24 526.165  14
   1  -4 -26 1486.07 352.584  10
   1  -4 -25 438.621 389.836  13
  -1  -4  25 141.368 311.173  16
   1  -4 -25-157.684 210.365  10
  -1   4  25-429.210 271.347  16
  -1  -4  25-280.910 460.855   3
   1   4 -25 239.192 365.742  14
   1  -4 -24 3258.57 522.419  10
   1   4 -24 3629.33 740.709  14
  -1  -4  24 3624.23 1132.84   1
  -1   4  24 2377.72 742.282   2
  -1  -4  24 3944.58 852.397  16
  -1  -4  24 3511.01 470.095  10
  -1  -4  24 4348.58 1027.30   3
   1  -4 -24 2999.77 596.471  13
  -1   4  24 3335.41 588.263  16
   1  -4 -23 8689.82 818.155  10
  -1  -4  23 7885.77 1373.80   3
  -1   4  23 6876.60 1291.92   2
   1  -4 -23 9985.18 1030.15  13
  -1   4  23 7999.49 835.881  16
   1   4 -23 9201.38 1122.43  14
  -1  -4  23 7893.40 1551.86   1
  -1  -4  23 9431.36 1205.91  16
  -1  -4  22 10732.2 1260.51  16
  -1  -4  22 9735.01 1727.44   1
  -1   4  22 8756.74 1403.99   2
  -1  -4  22 10056.8 1459.03   3
   1  -4 -22 9824.97 850.798  10
  -1   4  22 9217.27 890.045  16
   1  -4 -22 10436.6 1034.72  13
   1   4 -22 10498.5 1190.75  14
   1  -4 -21 606.771 230.336  10
  -1  -4  21 773.535 348.887   3
  -1  -4  21 947.333 507.966  16
   1  -4 -21 902.670 331.489  13
  -1   4  21 513.590 257.207  16
   1   4 -21 828.962 589.425  17
  -1   4  21 891.463 454.823   2
   1   4 -21 840.332 370.166  14
  -1  -4  21 825.738 634.381   1
  -1   4  20 25124.9 2307.37   2
   1   4 -20 22264.1 2772.00  17
   1  -4 -20 26297.3 1494.76  13
  -1  -4  20 26099.2 2343.50   3
   1  -4 -20 25338.3 1352.71  10
  -1   4  20 23838.9 1346.66  16
  -1  -4  20 25687.9 2535.14   1
   1   4 -20 29141.4 1923.91  14
  -1  -4  20 29955.4 2015.76  16
  -1   4  19 4215.28 565.108  16
  -1   4  19 3315.80 873.965   2
  -1  -4  19 3404.96 832.675   3
  -1  -4  19 5144.98 850.867  16
   1  -4 -19 3877.78 576.319  13
   1   4 -19 2986.03 1019.15  17
   1   4 -19 4894.19 806.058  14
   1  -4 -19 3778.93 516.853  10
  -1  -4  19 2021.40 778.633   1
  -1  -4  18 28217.1 2546.90   1
  -1  -4  18 30112.0 2398.19   3
  -1   4  18 24893.9 1313.57  16
  -1   4  18 29517.6 2379.07   2
  -1  -4  18 32217.4 2047.34  16
   1   4 -18 31696.1 2030.06  14
   1  -4 -18 27391.7 1357.91  10
   1  -4 -18 26420.6 1405.60  13
   1   4 -18 22645.2 2705.90  17
   1   4 -17 25374.2 1778.57  14
   1   4 -17 19950.3 2491.62  17
  -1  -4  17 20114.9 1939.35   3
   1  -4 -17 20786.4 1173.00  10
   1  -4 -17 22176.5 1252.74  13
  -1   4  17 21134.1 1938.44   2
  -1  -4  17 22726.4 2200.75   1
  -1  -4  17 27646.4 1866.51  16
  -1  -4  16 3591.21 860.125   4
   1  -4 -16 3567.18 759.598   4
  -1  -4  16 3859.58 971.064   1
  -1   4  16 3066.07 774.141   2
   1   4 -16 3405.02 1078.64  17
  -1  -4  16 6412.67 925.926  16
   1  -4 -16 3872.20 516.208  13
  -1  -4  16 3458.92 805.202   3
   1  -4 -15 21250.7 1917.93   4
  -1  -4  15 19508.8 1977.56   1
   1   4 -15 18139.6 2249.80  17
  -1   4  15 19622.4 1877.16   2
  -1  -4  15 18790.9 1799.79   3
  -1  -4  14 26811.0 2118.78   3
   1   4 -14 23208.8 2484.55  17
  -1  -4  14 27375.8 2289.31   1
   1  -4 -14 28362.5 2226.08   4
  -1   4  14 26959.1 2083.03   2
   1  -4 -13 740.602 428.854   4
  -1   4  13 674.602 347.218   2
  -1  -4  13 887.104 489.309   1
   1   4 -13 1441.72 747.254  17
   1  -4 -12 950.621 464.795   4
  -1  -4  12 944.953 468.267   1
  -1   4  12 1071.41 504.304   2
   1   4 -12 1972.66 809.620  17
  -1  -4  11 17781.6 1752.32   1
   1  -4 -11 18498.0 1851.05   4
  -1   4  11 18053.5 1600.93   2
   1   4 -11 21078.6 2009.16   2
   1   4 -11 14512.9 1798.31  17
  -1  -4  10 5821.32 1016.89   1
   1  -4 -10 5208.97 956.780   4
   1   4 -10 5431.72 1104.62  17
   1   4 -10 5761.96 1052.46   2
  -1   4  10 4989.55 802.149   2
   1  -4  -9 4061.84 902.362   4
  -1   4   9 4004.36 735.854   2
   1   4  -9 3189.98 760.552   2
   1   4  -9 3903.13 897.948  17
  -1  -4   9 4380.34 886.515   1
   1  -4  -8 2627.69 554.146   1
  -1   4   8 2399.04 589.420   2
   1  -4  -8 2306.15 655.450   4
   1   4  -8 1704.28 616.312  17
  -1  -4   8 2591.82 672.567   1
   1   4  -8 2064.10 671.204   2
   1  -4  -7 17709.3 1776.51   4
   1   4  -7 12598.6 1567.54  17
   1  -4  -7 18225.8 1380.22   1
   1   4  -7 17111.8 1768.12   2
  -1   4   7 18486.8 1457.34   2
  -1  -4   7 18383.0 1640.33   1
   1  -4  -6 317.026 300.427   1
   1   4  -6 317.208 317.941  17
  -1  -4   6 89.4310 318.098   1
   1  -4  -6 172.391 370.161   4
   1   4  -6 150.242 378.006   2
  -1   4   6-186.891 248.858   2
  -1   4   5 30582.6 1871.46   2
   1   4  -5 29020.2 2287.75   2
  -1  -4   5 28978.0 2040.41   1
   1  -4  -5 31569.2 1762.47   1
   1  -4  -5 29875.5 2276.69   4
   1   4  -5 24989.0 2124.61  17
   1  -4  -4 2312.15 765.891   4
  -1  -4   4 1912.98 574.295   1
   1  -4  -4 2218.31 555.186   1
  -1   4   4 2422.09 619.723   2
   1   4  -4 2289.01 690.078   2
   1   4  -4 1290.59 465.162  17
   1   4  -3 619.246 357.877   2
   1   4  -3 1106.43 546.932  17
   1  -4  -3 1350.88 353.391   1
  -1   4   3 1677.82 471.247   2
  -1  -4   3 1613.45 566.010   1
   1  -4  -3 1660.48 549.247   4
   1  -4  -2 44.3441 446.330   4
  -1   4   2-732.751 342.234   2
   1   4  -2 355.327 398.923  17
  -1  -4   2 74.4670 282.738   1
   1   4  -2-133.347 298.620   2
   1  -4  -2 62.3267 176.462   1
   1  -4  -1 428.067 205.419   1
  -1   4   1 1133.64 420.491   2
  -1  -4   1 952.704 392.462   1
   1   4  -1 841.771 509.523  17
   1  -4  -1 523.053 338.692   4
   1   4  -1 1048.83 538.231   2
   1  -4   0 1145.12 591.780   4
  -1   4   0 981.994 450.759   2
   1   4   0 772.388 474.135   2
   1   4   0 1435.47 506.649  17
  -1  -4   0 1041.65 420.123   1
   1  -4   0 1115.93 416.221   1
   1   4   1 2469.20 655.334  17
  -1   4  -1 3667.27 754.503   2
  -1  -4  -1 3512.45 702.973   1
   1  -4   1 4154.32 669.876   1
   1   4   1 3591.55 808.956   2
   1  -4   1 3179.67 757.526   4
   1  -4   2 9233.06 1009.07   1
   1   4   2 6357.08 974.174  17
  -1   4  -2 8704.29 1079.45   2
  -1  -4  -2 9687.98 1138.62   1
   1   4   2 9222.59 1183.37   2
   1  -4   2 8250.72 1221.66   4
   1  -4   3 413.903 359.508   4
   1   4   3 724.135 557.921   2
   1   4   3 693.244 416.941  17
  -1  -4  -3 776.490 594.677   1
  -1   4  -3 478.098 380.444   2
   1  -4   3-123.184 273.088   1
   1   4   4 31957.6 2195.67  17
  -1  -4  -4 38922.1 2331.11   1
  -1   4  -4 39628.1 2280.81   2
   1  -4   4 37426.7 2560.63   4
   1  -4   4 40414.6 2155.36   1
  -1   4  -4 32272.8 2537.80  17
   1   4   4 41043.2 2441.72   2
   1  -4   5 6180.28 1067.37   4
   1   4   5 7171.35 1074.37   2
  -1   4  -5 7215.70 1018.03   2
  -1   4  -5 6619.42 1214.59  17
   1  -4   5 7398.57 1003.94   1
  -1  -4  -5 7424.50 1014.62   1
   1   4   6 1474.34 610.259   2
   1  -4   6 1192.23 409.356   1
  -1   4  -6 2004.50 630.054  17
   1  -4   6 1600.91 618.086   4
  -1  -4  -6 1624.09 620.880   1
  -1   4  -7 39011.3 2873.28  17
   1  -4   7 43083.8 2389.04   1
  -1  -4  -7 44234.5 2501.59   1
   1  -4   7 44143.3 2814.32   4
   1   4   7 45573.6 2608.82   2
  -1   4  -8 8379.22 1348.63  17
   1  -4   8 9690.75 1337.45   4
   1   4   8 9815.18 1211.33   2
   1  -4   8 9561.63 1190.74   1
  -1  -4  -8 9565.34 1181.10   1
   1  -4   9 3305.37 794.065   4
  -1   4  -9 1819.11 661.252  17
  -1  -4  -9 3367.79 702.792   1
   1   4   9 3763.34 834.409   2
   1  -4   9 3221.94 728.213   1
   1  -4  10 6590.96 1118.95   4
   1  -4  10 6104.71 977.362   1
   1   4  10 6470.92 1036.90   2
  -1   4 -10 4740.18 1056.14  17
  -1  -4 -10 6613.62 1028.40   1
   1  -4  11 3511.52 804.270   4
   1   4  11 3636.84 845.113   2
  -1  -4 -11 3460.86 818.966   1
  -1   4 -11 3162.01 933.695  17
   1  -4  11 4224.48 857.181   1
   1  -4  12 174.430 400.982   4
  -1   4 -12-85.5297 365.751  17
   1  -4  12 118.090 296.829   1
   1   4  12-116.530 286.768   2
   1  -4  13 1459.99 604.699   4
   1   4  13 2079.52 711.183   2
  -1   4 -13 1467.43 696.023  17
   1  -4  13 1825.87 644.025   1
   1  -4  14 2122.22 678.221   1
  -1   4 -14 1464.64 675.212  17
   1  -4  14 2316.84 709.953   4
   1   4  14 2550.55 795.358   2
  -1   4 -15 349.569 634.621  17
  -1  -4 -15 314.596 356.678   4
   1  -4  15 193.143 293.862   4
   1   4  15 429.101 375.055   2
  -1  -4 -15 32.2224 313.725  18
  -1   4 -15-60.1947 412.433  18
   1  -4  15 250.617 444.499   1
   1  -4  16 6444.84 1233.79   1
   1   4  16 5893.19 659.723  16
  -1   4 -16 5933.24 1315.16  17
  -1   4 -16 5006.00 1112.74  18
  -1  -4 -16 6386.72 1279.30  18
   1  -4  16 7245.50 926.821  16
   1   4  16 6754.96 1279.14   2
  -1  -4 -17 460.711 252.001  13
   1  -4  17 282.200 355.935  16
   1   4  17 631.458 503.981   2
  -1  -4 -17 215.855 334.411  18
  -1   4 -17 352.142 381.386  17
   1   4  17 275.569 189.488  16
  -1   4 -17 199.868 275.551  18
   1  -4  17 321.028 453.563   1
  -1   4 -17-421.862 364.853  14
   1  -4  17 232.121 155.797  12
  -1  -4 -18 12291.5 1885.51  18
   1  -4  18 11661.1 1664.33   1
  -1   4 -18 11706.9 1694.27  18
   1   4  18 13519.2 1022.54  16
   1  -4  18 12643.7 885.855  12
  -1  -4 -18 13056.3 1069.71  13
   1  -4  18 14852.5 1369.12  16
   1   4  18 13901.4 1851.29   2
  -1   4 -18 12903.0 1374.34  14
  -1   4 -18 12682.3 1974.40  17
   1  -4  19 3719.91 501.348  12
  -1  -4 -19 4171.50 630.387  13
   1   4  19 3070.81 959.728   2
  -1   4 -19 4302.97 1020.23  18
   1  -4  19 4791.45 800.727  16
  -1  -4 -19 3630.29 1042.41  18
   1   4  19 4368.94 612.619  16
   1  -4  19 3978.05 1015.56   1
  -1   4 -19 4365.94 760.156  14
  -1   4 -19 5088.33 1287.23  17
   1  -4  20 10040.0 1150.35  16
   1   4  20 10240.1 922.318  16
   1  -4  20 11574.7 1729.51   1
  -1   4 -20 9199.22 1761.78  17
  -1  -4 -20 8302.66 1603.92  18
   1   4  20 11364.9 1738.11   2
  -1   4 -20 8704.96 1541.98  18
   1  -4  20 9114.52 799.591  12
  -1  -4 -20 10740.0 1019.57  13
  -1   4 -20 10009.0 1186.17  14
  -1  -4 -21 6918.16 1548.46  18
   1  -4  21 6125.30 660.069  12
   1  -4  21 7677.00 1333.31   1
  -1  -4 -21 6963.75 839.298  13
  -1   4 -21 6115.40 1389.00  17
   1   4  21 6662.98 781.507  16
   1   4  21 7292.56 1447.00   2
   1  -4  21 7608.86 750.939   8
   1  -4  21 6947.28 975.166  16
  -1   4 -21 7171.80 1033.48  14
  -1  -4 -22 19416.8 2478.07  18
  -1   4 -22 20636.9 1741.87  14
   1  -4  22 19177.5 1179.84  12
   1   4  22 21618.4 2406.32   2
  -1  -4 -22 21562.7 1644.83  13
  -1   4 -22 18103.5 2556.79  17
   1   4  22 19097.9 1296.41  16
   1  -4  22 23373.4 2442.71   1
   1  -4  22 20878.5 1733.19  16
   1  -4  22 23082.9 1363.94   8
  -1  -4 -23-89.0040 275.785  13
  -1   4 -23 577.917 694.440  17
   1   4  23 308.515 294.851  16
   1   4  23 95.0705 451.895   2
   1  -4  23 55.2798 368.681   1
   1  -4  23 70.2391 217.173  12
  -1   4 -23-150.060 379.338  14
   1  -4  23 619.773 502.222  16
   1  -4  23 91.5908 194.606   8
  -1  -4 -23-296.103 557.473  18
  -1  -4 -24 30458.8 3179.53  18
   1  -4  24 33893.5 2186.58  16
  -1  -4 -24 35161.1 2210.90  13
   1  -4  24 32828.8 1571.88  12
   1   4  24 32923.5 1797.02  16
   1  -4  24 36175.8 3097.83   1
   1   4  24 36072.9 3175.53   2
  -1   4 -24 33935.6 2200.92  14
   1  -4  24 39474.6 1710.43   8
  -1   4 -24 28248.9 3240.10  17
   1  -4  25 937.967 303.121  12
   1  -4  25 412.410 319.343  16
  -1   4 -25 1357.01 573.495  14
   1   4  25 850.927 338.111  16
   1  -4  25 1571.03 352.297   8
  -1  -4 -25 1203.71 542.852  13
  -1  -4 -26 185.383 469.646  13
   1   4  26 693.133 410.863  16
   1  -4  26 445.045 279.781  12
   1  -4  26 371.448 351.641  16
   1  -4  26-47.3077 189.932   8
  -1  -4 -27 5293.90 983.806  13
   1  -4  27 5512.07 683.661  12
   1  -4  27 6169.55 976.623  16
   1  -4  27 6320.67 674.064   8
   1   4  27 5959.60 849.131  16
   1   4  28-4.95250 221.532  16
  -1  -4 -28 39.0449 464.004  13
   1  -4  28-107.161 216.273  12
   1  -4  28 114.385 371.287  16
  -1  -4 -29 1464.72 681.863  13
   1  -4  29 2706.21 667.882  16
   1  -4  29 2704.77 489.561  12
   1   4  29 2591.79 582.225  16
  -1  -4 -30 930.157 658.231  13
   1  -4  30 1408.89 404.602  12
   1  -4  30 1763.30 525.344  16
   1   4  30 1863.28 488.837  16
   1  -4  31 2596.26 712.241  16
   1  -4  31 2153.74 413.979  12
   1   4  31 2522.26 588.667  16
  -1  -4 -31 767.446 568.483  13
  -1  -4 -32 181.605 585.157  13
   1  -4  32 638.902 256.544  12
  -1  -4 -32 687.670 294.198  14
   1  -4  32-84.8828 363.001  16
   1   4  32 231.157 246.784  16
  -1  -4 -33 2187.38 477.170  14
   1  -4  33 3298.84 714.195  16
   1  -4  33 2472.13 438.350  12
  -1  -4 -33 1223.84 741.975  13
   1   4  33 2502.65 602.975  16
  -1  -4 -34 7836.95 808.441  14
   1   4  34 7992.56 948.088  16
   1  -4  34 9551.83 774.138  12
   1  -4  34 8264.00 993.703  16
  -1  -4 -34 7870.19 1396.70  13
   1  -4  35 5767.84 831.163  16
   1  -4  35 5300.66 601.818  12
  -1  -4 -35 5023.52 606.909  14
  -1  -4 -35 3725.51 960.128  13
   1   4  35 5435.13 772.624  16
   1  -4  36 4226.59 525.173  12
  -1  -4 -36 4236.44 524.714  14
   1   4  36 3577.96 645.197  16
   1  -4  36 3795.16 696.821  16
   1  -4  37 5270.93 528.450  12
   1  -4  37 4777.23 726.328  16
   1   4  37 5127.85 715.677  16
   1  -4  38 5339.93 521.196  12
   1   4  38 4704.95 601.296  16
   1  -4  38 4362.60 610.016  16
   1  -4  39 7856.69 823.454  16
   1  -4  39 7497.93 573.484  12
   1   4  39 6909.70 720.932  16
   1   4  40 1937.95 368.871  16
   1  -4  40 2025.39 382.442  16
   1  -4  40 2701.76 347.073  12
   1  -4  41 3899.63 374.015  12
   1  -4  41 3857.91 513.242  16
   1   4  41 3408.05 469.854  16
   1   4  42 2413.95 362.384  16
   1  -4  42 2958.45 302.169  12
   1  -5 -39 1991.61 308.635  14
  -1  -5  38 13287.9 639.179  12
   1  -5 -38 14646.5 845.383  14
   1   5 -37 1038.17 476.707  14
   1  -5 -37 769.035 532.471  13
   1  -5 -37 1030.03 264.315  14
  -1  -5  37 1215.42 212.660  12
   1   5 -36 3779.98 759.808  14
   1  -5 -36 3309.71 863.209  13
  -1  -5  36 3471.81 388.526  12
   1  -5 -36 4072.11 526.089  14
   1   5 -35 5342.62 908.392  14
  -1  -5  35 5480.02 492.080  12
   1  -5 -35 7251.84 732.057  14
  -1  -5  34 3093.15 394.062  12
   1  -5 -34 3224.92 534.492  14
   1   5 -34 2150.49 622.280  14
  -1   5  34 2959.20 474.664  16
   1  -5 -34 2234.06 740.234  13
   1   5 -33 4556.48 911.647  14
  -1  -5  33 4815.90 495.468  12
  -1   5  33 5319.65 645.641  16
   1  -5 -33 4080.17 622.558  14
   1  -5 -33 3872.04 882.325  13
   1   5 -32 651.702 523.420  14
  -1  -5  32 487.702 217.254  12
   1  -5 -32 336.214 484.540  13
  -1   5  32-120.573 251.496  16
   1   5 -31 17713.9 1762.23  14
   1  -5 -31 15215.9 1626.56  13
  -1   5  31 17275.3 1223.04  16
  -1  -5  31 17531.6 989.035  12
   1  -5 -30 118.985 184.602  10
  -1  -5  30 292.640 193.490  12
   1  -5 -30 266.067 467.980  13
   1   5 -30-223.801 423.822  14
  -1   5  30 280.275 274.402  16
  -1  -5  30-140.174 458.541  16
   1  -5 -29 4461.28 921.762  13
  -1  -5  29 6035.74 945.271  16
   1  -5 -29 5103.49 594.795  10
   1   5 -29 4708.39 927.694  14
  -1   5  29 4174.98 638.662  16
  -1  -5  29 5276.21 594.651   8
  -1  -5  29 4276.35 526.139  12
  -1  -5  28 1386.26 573.225  16
  -1  -5  28 1168.17 350.685   8
   1  -5 -28 936.909 295.637  10
  -1  -5  28 1108.12 273.528  12
  -1   5  28 754.278 230.868  16
   1   5 -28 726.673 508.697  14
   1  -5 -28 550.876 479.746  13
   1   5 -27 9295.32 1318.19  14
  -1  -5  27 8634.79 732.042  12
   1  -5 -27 8816.45 838.197  10
  -1   5  27 8834.86 919.243  16
  -1  -5  27 10909.4 1288.04  16
   1  -5 -27 8773.87 1203.51  13
  -1  -5  26 328.936 232.507  12
  -1   5  26 127.972 241.572  16
  -1  -5  26 626.528 444.280  16
   1   5 -26 382.977 469.550  14
   1  -5 -26 616.672 382.310  13
   1  -5 -26 406.243 222.775  10
  -1  -5  25 251.083 170.611  12
   1  -5 -25-156.663 275.683  13
   1  -5 -25-28.8164 226.278  10
   1   5 -25 346.124 443.196  14
  -1  -5  25-78.9036 321.246  16
  -1   5  25-428.824 327.163  16
  -1   5  24 1666.88 490.634  16
  -1  -5  24 1995.94 657.413  16
   1  -5 -24 1681.63 386.989  10
  -1  -5  24 2078.79 384.989  10
   1   5 -24 1986.96 745.394  14
   1  -5 -24 1596.19 425.524  13
   1  -5 -23 1245.62 462.123  13
  -1  -5  23 1896.55 624.412  16
   1   5 -23 824.834 431.564  14
  -1   5  23 650.615 273.187  16
  -1  -5  23 1117.21 323.508  10
   1  -5 -23 1099.24 319.386  10
  -1   5  22 148.379 171.655  16
  -1  -5  22 79.9006 182.380  10
   1   5 -22 677.682 587.252  14
  -1  -5  22 579.075 473.546  16
   1  -5 -22 165.727 246.685  13
   1  -5 -22 175.497 202.059  10
   1  -5 -21 9344.69 896.283  10
  -1  -5  21 8598.52 760.427  10
   1   5 -21 8728.39 1315.59  14
  -1   5  21 9190.65 897.637  16
  -1  -5  21 11687.6 1288.12  16
   1  -5 -21 10110.4 1037.37  13
  -1  -5  20 14509.0 1014.32  10
   1  -5 -20 17001.1 1163.38  10
  -1   5  20 14595.3 1130.59  16
   1   5 -20 17234.5 1784.40  14
   1  -5 -20 15724.7 1243.74  13
  -1  -5  19 16942.6 1106.23  10
   1  -5 -19 19700.4 1232.66  10
   1   5 -19 16928.9 1866.31  14
  -1   5  19 15725.2 1142.39  16
   1  -5 -19 18181.8 1287.14  13
  -1   5  18 34228.2 1650.78  16
  -1  -5  18 37623.3 2883.31   3
   1  -5 -18 41343.8 1855.33  13
  -1  -5  18 39592.9 3228.41   1
   1  -5 -18 43018.2 1795.46  10
   1   5 -18 38170.7 2729.34  14
  -1  -5  18 37032.5 1615.86  10
   1   5 -18 33370.2 3484.90  17
   1   5 -17 27951.1 2331.87  14
   1  -5 -17 26131.9 1493.56  13
   1  -5 -17 29848.8 1486.86  10
  -1  -5  17 27228.4 2422.38   3
  -1   5  17 25656.1 1412.47  16
   1   5 -17 24790.8 3028.96  17
  -1  -5  17 28153.1 2714.55   1
  -1  -5  17 25426.9 1333.65  10
  -1  -5  16 6734.14 1335.88   1
   1   5 -16 4427.54 1365.94  17
   1   5 -16 6212.16 1180.19  14
  -1  -5  16 4956.95 606.781  10
   1  -5 -16 6527.25 693.818  10
  -1   5  16 4952.94 603.141  16
   1  -5 -16 6377.52 699.502  13
  -1  -5  16 5260.67 1016.56   3
  -1  -5  15 6073.48 1275.20   4
   1  -5 -15 5833.06 1197.92   4
   1  -5 -15 5797.94 637.040  13
  -1  -5  15 5107.43 603.654  10
   1   5 -15 4098.80 1137.46  17
  -1   5  15 4525.13 575.823  16
  -1  -5  15 5306.07 1047.99   3
   1  -5 -15 6057.68 688.477  10
   1   5 -15 4960.68 996.292  14
  -1  -5  15 6279.04 1227.31   1
   1  -5 -14 19824.8 1193.57  10
  -1  -5  14 18038.9 1926.48   3
   1   5 -14 16881.6 2414.80  17
  -1  -5  14 17716.8 1128.62  10
  -1  -5  14 18269.1 2053.55   4
  -1   5  14 16680.1 1089.52  16
   1  -5 -14 18145.0 1137.09  13
  -1  -5  14 19815.9 2155.46   1
   1   5 -14 19997.9 1979.53  14
   1  -5 -14 22914.4 2340.24   4
  -1  -5  13 37426.5 3032.03   4
   1  -5 -13 39695.9 1669.47  10
   1   5 -13 38876.7 2810.88  14
  -1  -5  13 37647.9 2698.51   3
  -1   5  13 33204.3 1495.29  16
  -1  -5  13 37074.8 1605.89  10
  -1  -5  13 38470.0 2996.19   1
   1  -5 -13 35551.3 1554.48  13
   1   5 -13 31417.4 3162.68  17
   1  -5 -13 41286.1 3148.07   4
   1   5 -13 34638.4 1689.13  15
   1   5 -12 16123.4 1813.77  14
   1  -5 -12 17480.7 2059.20   4
   1  -5 -12 17680.3 1112.32  10
   1   5 -12 14585.4 1088.56  15
   1   5 -12 13436.6 1998.87  17
  -1  -5  12 17367.7 2029.28   1
  -1  -5  12 15240.7 1033.96  10
   1  -5 -12 15367.4 1015.85  13
  -1  -5  12 16898.1 2067.20   4
  -1   5  12 14215.0 979.028  16
   1   5 -11 1096.66 636.591  17
   1  -5 -11 1675.56 355.339  10
  -1   5  11 1787.12 358.483  16
   1  -5 -11 1537.22 348.415  13
   1   5 -11 1820.33 692.018  14
   1  -5 -11 2581.07 792.270   4
   1   5 -11 1537.08 338.347  15
  -1  -5  11 1621.82 697.456   1
  -1  -5  11 697.295 389.553   4
  -1  -5  11 1768.93 371.946  10
   1  -5 -10 2535.60 417.423  10
  -1  -5  10 2764.82 896.928   4
   1  -5 -10 2569.00 871.962   4
  -1   5  10 2212.81 392.966  16
   1   5 -10 2914.29 897.141  14
  -1  -5  10 2318.71 438.851  10
   1  -5 -10 2492.59 405.281  13
   1   5 -10 1881.56 809.665  17
   1   5 -10 2643.07 874.054   2
   1   5 -10 1970.72 402.965  15
  -1  -5  10 2518.40 776.995   1
  -1  -5   9 10278.4 1485.64   1
  -1  -5   9 11232.8 929.863  10
   1   5  -9 11949.1 1730.81   2
   1   5  -9 11158.5 1509.58  14
   1   5  -9 10763.5 972.882  15
   1  -5  -9 10934.9 854.513  10
   1   5  -9 9570.71 1588.92  17
   1  -5  -9 11863.5 1694.26   4
  -1  -5   9 9581.31 776.532  13
  -1   5   9 10386.1 797.879  16
   1  -5  -9 10980.6 834.576  13
   1  -5  -8 592.445 270.253  13
  -1  -5   8 368.790 228.441  13
   1  -5  -8-19.0608 367.571   4
  -1  -5   8 44.8915 314.425   1
  -1  -5   8 719.834 242.170  10
   1   5  -8 554.248 285.492  15
   1   5  -8-18.4049 386.227   2
   1   5  -8 449.219 487.088  17
   1   5  -8 1176.96 646.896  14
   1  -5  -8 413.878 204.341  10
  -1  -5   7 7890.70 1304.01   1
   1  -5  -7 8157.25 1437.99   4
   1  -5  -7 7476.03 656.890  13
  -1  -5   7 7539.06 707.247  13
   1  -5  -7 8562.32 751.466  10
  -1  -5   7 8255.54 756.029  10
   1   5  -7 7694.69 790.923  15
   1   5  -7 6864.57 1333.69  17
   1   5  -7 8130.09 1366.61  14
   1   5  -7 7252.59 1405.23   2
   1   5  -6 12150.5 1585.41  14
   1   5  -6 10096.5 1607.03  17
  -1  -5   6 13635.4 1650.84   1
   1   5  -6 12972.5 1029.30  15
   1   5  -6 13939.4 1860.50   2
   1  -5  -6 16190.1 1950.26   4
  -1  -5   6 13391.3 952.120  10
   1  -5  -6 14286.4 963.746  10
   1  -5  -6 11746.0 850.141  13
   1  -5  -5 69.1935 176.794  13
   1   5  -5-455.706 583.179  17
   1   5  -5 384.897 471.978  14
   1  -5  -5 527.869 633.668   4
   1  -5  -5 110.010 249.165  10
   1   5  -5 123.041 371.752   2
  -1  -5   5 262.646 238.484  10
  -1  -5   5-36.2203 361.199   1
   1   5  -4 3828.18 1049.23  14
   1  -5  -4 2038.11 348.367  13
   1  -5  -4 1959.75 382.371  10
   1   5  -4 1333.40 683.803   2
  -1  -5   4 1859.09 362.041  10
   1   5  -4 1204.86 503.655  17
  -1  -5   4 1558.68 596.106   1
   1  -5  -4 1875.56 872.361   4
  -1  -5   3 5427.93 1007.61   1
   1  -5  -3 6815.50 673.590  10
  -1  -5   3 6619.05 673.335  10
   1   5  -3 6203.26 1157.80  14
   1   5  -3 4911.71 1110.23  17
   1  -5  -3 6664.44 1300.77   4
   1   5  -3 4931.80 1101.09   2
   1  -5  -3 6027.53 605.182  13
   1   5  -2 2625.22 816.567  17
   1  -5  -2 2082.84 425.885  13
  -1  -5   2 2910.66 884.161   1
  -1  -5   2 2433.38 440.191  10
   1  -5  -2 2070.18 846.318   4
   1   5  -2 1992.77 1077.89   2
   1  -5  -2 2385.79 412.358  10
   1   5  -2 2842.51 1024.99  14
   1  -5  -1 24228.5 2394.61   4
   1   5  -1 23593.2 2319.18   2
  -1  -5   1 24509.2 2098.79   1
  -1  -5   1 24967.2 1252.96  10
   1   5  -1 22037.9 2212.81  14
   1  -5  -1 24334.6 1254.53  10
   1   5  -1 19181.4 2082.03  17
   1  -5  -1 21409.5 1143.34  13
   1  -5   0-52.1531 394.709   4
  -1  -5   0 527.424 263.059  10
   1   5   0-570.290 317.918  17
   1  -5   0 2768.24 470.498  13
   1   5   0 1872.36 1125.18   2
  -1  -5   0 1634.20 782.581   1
   1  -5   0 309.290 303.107  10
  -1   5   0 595.412 570.320  17
   1  -5   1 20184.0 2220.39   4
  -1  -5  -1 22260.6 1202.71  10
  -1   5  -1 19136.6 2248.38  17
   1   5   1 18144.2 1987.97  17
   1   5   1 22154.8 2222.69   2
   1  -5   1 20205.3 1120.07  10
   1  -5   1 22376.5 1175.14  13
  -1  -5  -1 23265.8 2093.00   1
   1  -5   2 20427.3 1137.04  10
  -1  -5  -2 23545.6 2256.05   1
   1   5   2 16092.7 1906.07  17
   1  -5   2 18464.8 2128.67   4
  -1  -5  -2 20537.0 1183.32  10
   1   5   2 23462.2 2338.23   2
  -1   5  -2 17171.4 2177.61  17
   1  -5   2 24507.7 1338.05  13
   1   5   3 47237.8 3182.56  17
   1  -5   3 55717.3 3646.10   4
  -1   5  -3 50516.5 3660.06  17
  -1  -5  -3 60979.1 1961.70  10
   1  -5   3 58239.3 1915.29  13
  -1  -5  -3 61221.5 3337.72   1
   1  -5   3 58695.5 1915.34  10
   1   5   3 60665.5 3646.77   2
  -1   5  -4 4631.30 1153.22  17
   1  -5   4 7161.60 746.526  13
   1  -5   4 4667.13 619.742  10
  -1  -5  -4 6000.37 1387.74   1
   1   5   4 4684.71 1059.56  17
   1  -5   4 3770.30 1113.39   4
   1   5   4 5480.93 1401.80   2
  -1  -5  -4 4373.38 565.646  10
   1  -5   5 35691.3 1536.91  13
  -1  -5  -5 39149.5 2678.81   1
   1  -5   5 38357.5 1549.36  10
  -1  -5  -5 40811.5 1610.96  10
  -1   5  -5 34618.0 3060.90  17
   1   5   5 33953.8 2648.18  17
  -1   5  -5 40233.9 2942.77  14
   1   5   5 40111.5 2862.86   2
   1  -5   5 34450.8 2901.61   4
   1  -5   6 1250.13 335.897  10
   1  -5   6 1685.45 502.512  13
   1  -5   6 507.887 642.898   4
  -1  -5  -6 988.054 300.012  10
  -1  -5  -6 918.550 649.141   1
   1   5   6 1035.20 499.217  17
   1   5   6 1012.96 677.596   2
  -1   5  -6 2024.89 824.451  17
  -1  -5  -6 1490.96 326.045  13
  -1   5  -6 1140.59 661.062  14
   1  -5   7 16078.3 1664.39   1
   1  -5   7 15161.7 1966.67   4
   1  -5   7 14308.5 957.181  10
  -1  -5  -7 15893.8 1017.99  10
   1   5   7 15832.1 1867.11   2
  -1  -5  -7 15383.8 1760.96   1
  -1   5  -7 11688.6 1812.69  17
  -1   5  -7 14528.7 1838.77  14
  -1  -5  -7 13047.6 877.769  13
   1   5   8 43536.9 3081.81   2
   1  -5   8 42700.5 2731.19   1
  -1   5  -8 39405.0 3359.23  17
   1  -5   8 42204.6 3196.76   4
  -1  -5  -8 40728.7 1551.65  13
   1  -5   8 41501.7 1618.29  10
  -1   5  -8 45760.9 3139.60  14
  -1  -5  -8 45235.5 2982.95   1
  -1  -5  -8 45407.6 1714.14  10
   1   5   9 29294.3 2521.91   2
  -1   5  -9 22447.1 2544.99  17
  -1  -5  -9 31325.5 2484.42   1
  -1  -5  -9 26506.0 1269.61  13
   1  -5   9 30004.7 2727.05   4
  -1  -5  -9 29574.9 2702.93   4
  -1  -5  -9 29879.3 1397.49  10
  -1   5  -9 30408.2 2620.33  14
   1   5   9 27300.2 1368.78  16
   1  -5   9 28516.4 2277.47   1
   1  -5   9 27897.1 1321.70  10
  -1  -5 -10 24366.1 1269.96  10
   1   5  10 24786.6 1329.20  16
   1  -5  10 22168.1 2345.10   4
  -1  -5 -10 23329.7 2176.07   1
  -1   5 -10 21934.5 2547.13  17
   1  -5  10 21371.3 2007.23   1
  -1  -5 -10 24857.8 2485.60   4
   1  -5  10 22230.4 1213.35  10
  -1  -5 -10 22814.7 1201.52  13
   1   5  10 23459.2 2259.63   2
   1  -5  11-92.0960 416.134   1
   1   5  11 844.533 320.521  16
  -1  -5 -11 393.446 468.001   1
  -1  -5 -11 367.420 218.915  13
   1  -5  11-328.249 549.634   4
  -1   5 -11 323.623 504.796  17
   1   5  11-126.666 363.258   2
   1  -5  11 376.370 238.016  10
  -1   5 -11 362.041 539.984  14
  -1  -5 -11 460.999 176.843  10
  -1  -5 -11 135.597 566.381   4
   1   5  12 25651.1 1381.39  16
   1  -5  12 24637.5 2253.58   1
  -1   5 -12 23753.1 2731.78  17
  -1  -5 -12 25301.4 2429.11   4
  -1  -5 -12 27283.0 2377.07   1
   1   5  12 26242.6 2435.94   2
  -1  -5 -12 26626.8 1327.74  10
   1  -5  12 24469.5 2458.64   4
  -1   5 -12 24751.9 2325.92  14
  -1  -5 -12 24188.4 1299.49  13
   1  -5  12 25055.7 1256.71  10
   1  -5  13 178.356 506.666   4
  -1  -5 -13 499.338 349.088   4
  -1   5 -13 447.883 458.033  17
   1  -5  13-215.133 510.933   1
  -1  -5 -13 360.918 360.879   1
  -1   5 -13 894.758 600.699  14
  -1  -5 -13 988.159 299.379  10
   1   5  13 502.605 405.479   2
   1   5  13 789.517 319.509  16
  -1  -5 -13 660.102 258.914  13
   1  -5  13 483.980 244.825  10
   1  -5  14 779.147 559.592   1
  -1   5 -14 1188.56 538.720  14
  -1  -5 -14 1955.41 702.379   4
  -1  -5 -14 2206.05 443.216  13
   1   5  14 1640.90 576.298   2
   1   5  14 2089.84 424.236  16
  -1  -5 -14 2162.36 400.331  10
   1  -5  14 1383.00 577.561   4
  -1  -5 -14 2182.56 693.318   1
  -1   5 -14 1764.39 872.989  17
  -1  -5 -15 50359.9 2014.35  13
   1  -5  15 56260.0 3654.55   1
  -1   5 -15 47592.9 3255.07  14
  -1  -5 -15 60217.3 3647.41   1
  -1  -5 -15 56250.9 1975.12  10
   1   5  15 50621.9 2013.66  16
  -1   5 -15 46323.3 3960.28  17
   1   5  15 55931.4 3656.56   2
  -1   5 -16 5685.04 1486.92  17
   1   5  16 5815.91 1223.96   2
  -1  -5 -16 6142.74 655.736  10
   1   5  16 6265.23 721.222  16
   1  -5  16 5396.75 1164.94   1
  -1   5 -16 4727.28 1079.06  14
  -1  -5 -16 5900.50 1184.36   1
  -1  -5 -16 5209.01 702.672  13
   1  -5  17 16579.7 1451.56  16
  -1  -5 -17 15250.1 1192.02  13
   1   5  17 14676.8 1129.83  16
  -1  -5 -17 14122.4 995.863  10
   1   5  17 13113.2 1815.58   2
  -1   5 -17 13627.9 1731.42  14
   1  -5  17 12507.9 1861.74   1
  -1   5 -17 13639.2 2219.29  17
  -1  -5 -17 14203.3 1830.01   1
  -1  -5 -18-55.8098 226.597  13
  -1  -5 -18 88.0420 200.773  10
  -1   5 -18-720.955 611.256  17
   1  -5  18-611.915 560.683   1
   1   5  18 213.166 511.264   2
  -1   5 -18 103.987 373.712  14
   1   5  18-99.7648 268.214  16
   1  -5  18-34.1490 269.920  16
   1  -5  19 3974.51 753.204  16
  -1  -5 -19 3431.58 630.570  13
   1   5  19 3403.45 562.597  16
  -1  -5 -19 3877.87 520.446  10
   1  -5  19 3197.66 470.904  12
  -1   5 -19 3964.02 1011.52  14
   1  -5  19 3716.69 587.607   8
   1   5  20-57.0492 201.502  16
  -1  -5 -20-91.8952 211.483  10
   1  -5  20 12.0980 230.987   8
  -1   5 -20-782.387 553.011  14
   1  -5  20-97.9392 182.596  12
  -1  -5 -20 485.994 384.508  13
   1  -5  20 73.3295 306.111  16
   1  -5  21 4257.18 543.073  12
   1  -5  21 4640.75 820.607  16
  -1   5 -21 3883.31 978.204  14
  -1  -5 -21 4114.63 729.935  13
   1   5  21 4188.02 673.678  16
   1  -5  21 5424.15 708.071   8
   1  -5  22 1576.47 405.707   8
   1   5  22 1652.98 423.674  16
   1  -5  22 1505.90 373.322  12
   1  -5  22 1297.53 474.231  16
  -1  -5 -22 1309.89 411.273  13
  -1   5 -22 1332.18 585.035  14
   1  -5  23 12481.0 1051.51   8
   1   5  23 11862.2 1076.88  16
   1  -5  23 11112.8 1240.95  16
  -1   5 -23 10560.1 1435.56  14
   1  -5  23 9744.14 827.263  12
  -1  -5 -23 11489.0 1244.49  13
  -1  -5 -24 6254.60 952.869  13
   1  -5  24 5979.64 942.676  16
   1  -5  24 5248.02 599.529  12
   1  -5  24 6311.83 742.208   8
   1   5  24 5546.25 787.723  16
  -1   5 -24 4970.04 1070.10  14
  -1  -5 -25-18.9188 390.672  13
   1  -5  25 741.365 455.971  16
   1   5  25 503.909 297.812  16
   1  -5  25 426.670 246.912  12
   1  -5  25 722.235 331.641   8
  -1   5 -25 668.478 573.761  14
  -1  -5 -26 877.139 495.788  13
   1   5  26 1267.14 425.694  16
   1  -5  26 1034.25 293.802  12
   1  -5  26 899.852 284.419   8
   1  -5  26 491.387 325.247  16
   1  -5  27 4783.00 578.914  12
   1  -5  27 4127.65 763.716  16
   1   5  27 4946.89 730.946  16
  -1  -5 -27 4716.64 892.413  13
   1  -5  27 4996.58 632.697   8
   1  -5  28 8843.70 1045.47  16
   1   5  28 8133.42 954.777  16
   1  -5  28 8117.05 729.592  12
   1  -5  28 9342.22 804.511   8
  -1  -5 -28 6573.43 979.119  13
   1  -5  29 875.789 274.988  12
   1   5  29 1433.10 441.324  16
   1  -5  29 1040.46 417.958  16
   1  -5  29 1568.95 344.243   8
  -1  -5 -29 1858.94 599.002  13
   1   5  30 7822.17 879.626  16
   1  -5  30 7538.38 673.840  12
  -1  -5 -30 7077.04 1176.29  13
   1  -5  30 7865.97 962.815  16
   1  -5  31 5167.09 545.519  12
   1   5  31 5589.46 726.842  16
   1  -5  31 4176.32 704.591  16
  -1  -5 -31 3268.83 850.485  13
   1  -5  32 2140.11 374.032  12
   1  -5  32 1798.29 443.409  16
   1   5  32 1674.99 424.996  16
  -1  -5 -32 1120.32 314.602  14
   1  -5  33 1727.81 321.332  12
  -1  -5 -33 1518.10 365.511  14
   1   5  33 1921.88 431.109  16
   1  -5  34-5.32080 137.368  12
  -1  -5 -34 215.427 195.836  14
   1   5  34 89.7909 203.811  16
   1  -5  35 1318.50 259.632  12
  -1  -5 -35 1119.45 273.212  14
   1   5  35 431.189 209.128  16
   1   5  36 2320.20 427.011  16
   1  -5  36 3006.06 359.007  12
   1  -5  37 489.306 171.575  12
   1   5  37 1102.84 320.008  16
   1  -5  38 2983.06 301.635  12
   1   5  38 3187.62 428.379  16
   1  -6 -35 1541.37 577.682  13
   1  -6 -35 1807.70 289.753  14
   1  -6 -34 4299.33 809.046  13
   1   6 -34 4210.14 692.330  14
   1  -6 -34 6174.34 549.545  14
   1  -6 -33 4451.91 515.626  14
   1  -6 -33 3189.96 699.262  13
  -1  -6  33 3647.08 332.368  13
   1   6 -33 3892.87 761.832  14
   1   6 -32 3112.84 712.245  14
  -1  -6  32 2521.71 288.012  13
   1  -6 -32 3073.78 455.676  14
   1  -6 -32 3130.06 668.877  13
   1  -6 -31 1376.53 551.640  13
   1   6 -31 1718.94 716.008  14
  -1  -6  31 1466.88 243.231  13
   1  -6 -30 512.570 257.025  15
  -1  -6  30 763.116 207.320   8
   1   6 -30-43.4491 555.878  14
  -1  -6  30 567.776 188.628  13
  -1  -6  29 2251.63 353.640   8
   1  -6 -29 2390.07 361.851  10
   1   6 -29 1930.71 693.573  14
   1  -6 -29 1218.71 535.789  13
  -1  -6  29 1877.05 326.959  13
  -1  -6  28-210.718 154.071  13
   1  -6 -28-107.043 310.867  13
   1   6 -28 136.973 448.313  14
   1  -6 -28-45.2668 148.627  10
  -1  -6  28-104.762 167.568   8
   1  -6 -27 6098.98 620.760  10
  -1   6  27 5058.24 608.331  16
   1   6 -27 5009.17 1012.42  14
  -1  -6  27 6869.32 633.968   8
   1  -6 -27 5906.66 872.504  13
   1  -6 -26 656.008 405.483  13
  -1  -6  26 286.329 188.493   8
   1   6 -26 70.9015 598.852  14
   1  -6 -26 180.213 193.634  10
  -1   6  26 408.028 245.117  16
  -1  -6  26 87.6434 166.120  13
   1  -6 -25 92.5836 295.388  13
  -1  -6  25 157.624 203.219   8
   1  -6 -25 509.600 268.585  10
  -1   6  25 185.730 193.677  16
   1  -6 -24 2267.48 577.219  13
   1  -6 -24 3129.48 502.462  10
  -1  -6  24 2790.23 433.328  10
   1   6 -24 2270.33 829.032  14
  -1   6  24 2433.85 435.673  16
   1  -6 -23 649.478 334.945  13
  -1   6  23 456.316 290.296  16
   1  -6 -23 522.185 231.045  10
  -1  -6  23 749.206 219.547  10
  -1  -6  23 561.770 210.124  13
   1   6 -23-73.4712 498.301  14
   1   6 -22 1051.82 553.462  14
  -1   6  22 1148.41 344.931  16
  -1  -6  22 1369.38 303.607  10
   1  -6 -22 1146.10 420.279  13
  -1  -6  22 1314.76 333.006  13
   1  -6 -22 1400.49 380.899  10
  -1   6  21 869.960 294.948  16
   1  -6 -21 1530.51 373.973  10
  -1  -6  21 1052.97 315.697  10
   1  -6 -21 904.793 416.287  13
  -1  -6  21 580.385 256.901  13
   1   6 -21 1262.61 720.910  14
  -1  -6  20 413.238 242.811  13
  -1  -6  20-141.409 182.457  10
   1  -6 -20 163.442 218.521  10
  -1   6  20 167.042 207.659  16
   1   6 -20 571.721 550.578  14
   1  -6 -20 162.861 323.063  13
  -1  -6  19 4455.67 569.522  10
   1  -6 -19 5243.33 744.349  13
  -1  -6  19 3832.74 553.118  13
  -1   6  19 4508.86 603.882  16
   1   6 -19 4231.48 1142.05  14
   1  -6 -19 5202.31 664.532  10
   1  -6 -18 839.196 367.729  13
  -1   6  18 455.813 243.023  16
   1  -6 -18 778.768 271.998  10
  -1  -6  18 464.805 226.107  10
   1   6 -18-135.428 526.563  14
  -1  -6  18 477.147 198.973  13
  -1   6  17 549.136 249.717  16
  -1  -6  17 1184.61 356.924  10
   1  -6 -17 889.213 330.398  10
  -1  -6  17 656.746 248.385  13
   1  -6 -17 534.683 261.597  13
   1   6 -17 861.082 734.095  14
  -1   6  16 22.9251 221.456  16
  -1  -6  16 191.492 205.850  13
   1   6 -16-216.964 549.585  14
   1  -6 -16-42.2281 209.044  10
   1  -6 -16-163.027 221.739  13
  -1  -6  16-34.2760 198.097  10
  -1   6  15 1370.16 355.495  16
   1   6 -15 1115.62 869.043  14
   1  -6 -15 1507.23 383.224  10
  -1  -6  15 1772.92 403.363  10
   1  -6 -15 1384.90 372.708  13
  -1  -6  15 1419.52 373.717  13
   1  -6 -14 101.259 223.132  13
   1  -6 -14 28.6268 263.340  10
  -1   6  14-57.3688 156.718  16
  -1  -6  14 2.29140 187.936  10
   1   6 -14 617.514 588.827  14
  -1  -6  14 365.169 265.540  13
  -1  -6  13 33368.8 1507.24  13
   1  -6 -13 36599.4 1702.78  13
  -1   6  13 34968.7 1629.76  16
  -1  -6  13 35764.4 1661.77  10
   1  -6 -13 37331.4 1729.56  10
  -1   6  12 4419.15 599.329  16
   1  -6 -12 4296.41 655.880  13
  -1  -6  12 4448.77 654.275  10
  -1  -6  12 6394.07 764.784  13
   1  -6 -12 4560.99 639.168  10
   1   6 -12 6260.28 1587.93  14
  -1  -6  11 104104. 2834.49  10
   1  -6 -11 110100. 2927.26  10
   1  -6 -11 100375. 2712.15  13
   1   6 -11 111648. 5502.22  14
  -1  -6  11 94190.1 2558.57  13
  -1   6  11 96149.0 2673.18  16
  -1  -6  10 15787.2 1160.64  10
  -1   6  10 17830.8 1182.24  16
   1  -6 -10 18180.6 1224.70  13
   1   6 -10 19375.5 2424.52  14
  -1  -6  10 17968.5 1190.84  13
   1  -6 -10 17798.1 1246.80  10
   1  -6  -9 34903.8 1579.77  13
  -1   6   9 32171.9 1522.72  16
  -1  -6   9 38586.2 1685.55  13
   1   6  -9 36601.7 3268.70  14
   1  -6  -9 37477.0 1708.97  10
  -1  -6   9 36354.3 1714.02  10
  -1   6   8 60140.3 2089.36  16
  -1  -6   8 58222.9 2147.39  10
   1  -6  -8 64160.3 2243.37  10
   1   6  -8 65622.6 4214.69  14
   1  -6  -8 60764.5 2087.29  13
  -1  -6   8 60847.1 2048.79  13
  -1  -6   7 4504.89 692.030  10
   1   6  -7 6276.78 1685.80  14
   1  -6  -7 5713.89 854.498  13
  -1   6   7 2782.05 1019.25  17
  -1  -6   7 4787.95 1342.28   1
   1  -6  -7 3965.74 730.128  10
  -1   6   7 3450.65 633.877  16
   1   6  -7 2787.33 991.329  17
  -1  -6   6 41128.7 3499.29   4
   1  -6  -6 48697.6 1947.92  10
  -1  -6   6 45822.5 1900.70  10
  -1  -6   6 39035.1 3037.61   1
   1   6  -6 41585.4 3670.16  17
  -1  -6   6 43261.5 1707.19  13
  -1   6   6 43140.0 3636.20  17
  -1   6   6 46858.0 1807.69  16
   1  -6  -6 47669.9 1826.65  13
  -1  -6   5 1245.78 750.841   4
   1  -6  -5 270.782 658.389   4
   1   6  -5 886.183 726.586  17
  -1  -6   5 2718.10 645.537  10
  -1   6   5 821.447 740.866  17
   1  -6  -5 2532.05 589.509  10
   1  -6  -5 4934.18 862.724  13
  -1  -6   5 6036.60 1542.24   1
  -1  -6   4 48441.0 3817.14   4
   1   6  -4 53963.8 4076.61  17
  -1  -6   4 50167.3 3405.76   1
  -1  -6   4 54896.8 1885.88  13
  -1  -6   4 59350.6 2147.58  10
   1  -6  -4 59470.3 2133.04  10
   1  -6  -4 57077.0 1972.67  13
   1  -6  -4 51827.2 3966.35   4
  -1   6   4 52583.4 4098.39  17
   1  -6  -3 8686.75 1664.62   4
  -1  -6   3 11696.1 998.911  10
  -1   6   3 8755.58 1731.53  17
  -1  -6   3 11554.6 1755.19   1
   1   6  -3 7170.64 1568.36  17
   1  -6  -3 10795.9 988.176  10
  -1  -6   3 7658.78 1582.52   4
   1  -6  -3 14913.4 1208.10  13
   1  -6  -2 44773.8 1746.02  13
  -1  -6   2 36432.2 3437.84   4
  -1   6   2 37997.4 3500.84  17
   1  -6  -2 41677.8 1794.44  10
   1  -6  -2 34110.2 3238.93   4
   1  -6  -2 33283.9 1570.10   8
   1   6  -2 38316.6 3423.66  17
  -1  -6   2 46052.4 3296.56   1
  -1  -6   2 44423.5 1869.44  10
  -1  -6   2 50643.0 1836.97  13
   1   6  -1 60244.5 4211.32  17
   1  -6  -1 81378.9 2473.41  10
  -1   6   1 60621.9 4453.98  17
  -1  -6   1 94476.9 4603.85   1
  -1  -6   1 70704.4 4675.66   4
  -1  -6   1 79166.3 2497.07  10
   1  -6  -1 72246.1 4708.32   4
   1  -6  -1 83899.1 2498.77  13
  -1  -6   1 83257.6 2307.11  13
  -1  -6   0 61206.7 4319.97   4
  -1   6   0 59071.2 4380.48  17
  -1  -6   0 69719.5 3956.88   1
   1  -6   0 74391.8 2373.32  10
  -1  -6   0 71093.8 2340.53  10
   1  -6   0 78034.0 2419.39  13
   1  -6   0 64758.0 4463.76   4
  -1  -6   0 77499.4 2219.23  13
   1  -6   1 26883.2 2924.44   4
  -1  -6  -1 29089.5 2849.51   1
   1  -6   1 29143.5 1527.22  10
  -1  -6  -1 26366.9 1426.32  10
  -1  -6  -1 32296.0 1449.15  13
  -1  -6  -1 22755.7 2670.21   4
  -1   6  -1 24047.9 2883.88  17
  -1  -6  -2 3572.39 764.649  10
   1  -6   2 1378.33 903.417   4
  -1  -6  -2 3505.07 1385.61   4
   1  -6   2 1686.31 516.670  10
  -1   6  -2 1114.47 933.123  17
   1  -6   3 113845. 5890.72   4
  -1  -6  -3 126605. 3103.73  10
  -1   6  -3 99421.7 5710.19  17
  -1  -6  -3 108558. 2640.31  13
  -1  -6  -3 122680. 6106.85   4
  -1  -6  -3 128344. 5295.90   1
   1  -6   3 117780. 2950.14  10
   1  -6   3 110434. 2826.90  13
  -1  -6  -4 1248.34 767.852   4
   1  -6   4 3459.79 1399.01   4
  -1   6  -4 1781.42 1343.10  17
   1  -6   4 4914.70 773.946  10
  -1  -6  -4 1439.63 459.456  10
  -1  -6  -4 6614.80 999.415  13
   1  -6   5 7203.77 754.620  13
  -1  -6  -5 5367.27 1243.76   4
   1  -6   5 5938.38 657.975  10
   1  -6   5 5619.28 1420.34   4
  -1  -6  -5 7055.23 762.517  10
  -1   6  -5 7361.93 1563.46  17
  -1  -6  -5 6946.82 676.707  13
   1  -6   6 657.814 322.005  10
  -1  -6  -6 1106.05 415.307  13
  -1  -6  -6 557.342 373.265  10
   1  -6   6 1882.41 598.739  13
   1  -6   7 16295.0 1112.54  10
  -1  -6  -7 15282.7 1014.84  13
  -1  -6  -7 17615.8 1172.87  10
   1  -6   7 16094.8 1121.73  13
   1   6   7 16015.4 1130.20  16
   1  -6   8 203.314 284.319  10
  -1  -6  -8-314.961 200.924  13
  -1  -6  -8-5.39993 200.958  10
   1   6   8 251.818 270.002  16
   1  -6   8 766.467 548.266  13
  -1  -6  -9 164.691 235.321  13
   1  -6   9 203.960 252.848  10
   1   6   9 190.345 200.515  16
  -1  -6  -9-40.2355 197.554  10
  -1  -6 -10 19561.0 1210.75  10
   1  -6  10 17516.2 1127.71  10
   1   6  10 18276.0 1216.21  16
  -1  -6 -10 17796.1 1124.30  13
   1  -6  10 17177.7 1181.18  13
   1  -6  11 459.109 348.235  13
   1  -6  11-37.1744 187.103  10
  -1  -6 -11 145.649 169.644  10
  -1  -6 -11 53.3554 197.937  13
   1   6  11 135.242 210.845  16
   1   6  12-148.670 264.455  16
  -1  -6 -12 270.655 221.431  10
   1  -6  12 150.533 284.403  13
  -1  -6 -12-225.083 237.244  13
   1  -6  12-261.847 228.044  10
   1  -6  13 4765.90 633.092   8
   1  -6  13 4160.68 595.079  13
  -1  -6 -13 5415.59 671.242  10
   1   6  13 4347.93 618.964  16
   1  -6  13 4366.74 576.477  10
  -1  -6 -13 5015.95 667.687  13
  -1  -6 -14 552.510 260.524  10
  -1  -6 -14 814.096 313.198  13
  -1   6 -14 947.649 761.293  14
   1  -6  14 779.827 258.469  10
   1   6  14 586.649 282.111  16
   1  -6  14 893.888 314.053  13
   1  -6  14 588.293 308.726   8
   1  -6  15 2888.72 497.090  13
   1  -6  15 3273.32 559.216   8
  -1  -6 -15 3401.46 581.694  13
   1   6  15 3596.47 591.437  16
   1  -6  15 2752.32 447.909  10
  -1  -6 -15 3346.81 507.755  10
  -1   6 -15 2149.17 904.708  14
   1   6  16 4185.98 639.901  16
  -1  -6 -16 3946.45 565.789  10
   1  -6  16 3898.60 622.693   8
  -1   6 -16 2880.15 803.428  14
  -1  -6 -16 3193.11 592.084  13
   1  -6  16 3895.98 591.446  13
  -1  -6 -17 7978.98 775.218  10
  -1  -6 -17 7155.79 861.855  13
  -1   6 -17 7138.87 1450.92  14
   1  -6  17 8073.53 863.244   8
   1   6  17 7615.69 824.637  16
   1  -6  18 1268.71 359.227   8
  -1  -6 -18 968.516 299.336  10
   1   6  18 674.834 281.366  16
  -1  -6 -18 997.180 358.258  13
  -1   6 -18 978.542 472.503  14
  -1  -6 -19 16847.9 1345.78  13
  -1  -6 -19 17383.0 1117.75  10
  -1   6 -19 13621.0 1872.88  14
   1   6  19 15936.1 1204.69  16
   1  -6  19 19731.1 1265.80   8
  -1  -6 -20 1425.77 381.273  10
   1   6  20 966.248 358.915  16
   1  -6  20 1605.40 428.135   8
  -1   6 -20 1295.34 771.489  14
  -1  -6 -20 761.538 381.672  13
  -1  -6 -21 4305.96 534.500  10
   1   6  21 3309.92 546.996  16
   1  -6  21 5067.80 672.395   8
  -1  -6 -21 3948.01 712.938  13
  -1   6 -21 2698.33 825.484  14
  -1  -6 -22 2892.99 606.052  13
   1  -6  22 3826.75 574.975   8
   1   6  22 2794.44 571.596  16
  -1   6 -22 2625.62 909.699  14
  -1   6 -23 8277.64 1353.07  14
  -1  -6 -23 10552.6 1131.40  13
   1   6  23 9380.61 932.762  16
   1  -6  23 12593.2 987.658   8
  -1  -6 -24 14043.4 1307.69  13
   1  -6  24 17028.3 1077.53   8
   1   6  24 15382.9 1184.03  16
   1  -6  25 10243.5 804.094   8
   1   6  25 9262.17 905.379  16
  -1  -6 -25 8330.65 1037.13  13
   1  -6  26 15746.0 976.913   8
   1   6  26 13744.6 1097.23  16
   1  -6  27 2978.75 431.064   8
  -1  -6 -27 2688.37 705.795  13
   1   6  27 3481.89 566.760  16
   1   6  28 21705.1 1341.13  16
   1  -6  28 23519.6 1055.04   8
   1  -6  29 1115.94 242.816   8
   1   6  29 842.134 292.638  16
   1   6  30 10369.8 865.570  16
   1  -6  30 10055.8 612.729   8
   1   6  31 1072.10 314.191  16
   1  -6  31 1447.62 277.609  13
  -1  -6 -31 1392.44 519.537  13
  -1  -6 -31 902.419 238.605  14
   1  -6  32 4698.50 427.633  13
  -1  -6 -32 4667.93 472.298  14
  -1  -6 -32 4035.61 791.519  13
   1   6  32 5262.29 575.895  16
   1   6  33 2226.38 367.517  16
   1  -6  33 2112.30 274.340  13
   1   6  34 978.689 237.926  16
   1  -6  34 1533.06 228.732  13
   1  -7 -30 878.993 215.232  14
   1  -7 -29 1166.71 263.929  14
   1  -7 -29 1631.56 459.534  13
  -1  -7  28 241.804 125.388   8
   1  -7 -28 275.826 149.224  15
   1  -7 -27 4308.26 643.897  13
   1  -7 -27 3995.40 481.483  15
  -1  -7  27 5727.29 455.510   8
   1  -7 -26 3135.70 566.898  13
  -1  -7  26 2938.66 358.806   8
   1  -7 -26 3060.38 355.833  10
   1  -7 -25 337.246 287.169  13
   1  -7 -25 109.224 165.565  10
  -1  -7  25 26.2165 145.369   8
   1  -7 -24 15221.2 870.629  10
  -1  -7  24 16535.3 915.106   8
   1  -7 -24 15005.1 1220.56  13
  -1  -7  23-117.572 132.894  13
  -1  -7  23 111.180 170.750   8
   1  -7 -23-78.9410 210.798  10
   1  -7 -23 62.5955 253.097  13
   1  -7 -22-2.89848 172.819  10
  -1  -7  22 24.0378 109.447  10
   1  -7 -22 121.587 249.861  13
  -1  -7  22 201.700 225.779   8
  -1  -7  22-67.7209 119.445  13
   1  -7 -21-36.0208 239.347  13
  -1  -7  21 41.2991 198.303   8
  -1  -7  21-104.050 142.497  10
   1  -7 -21 171.637 185.745  10
  -1  -7  21 210.264 145.390  13
  -1  -7  20 358.526 221.781  10
  -1  -7  20 370.946 183.055   8
  -1  -7  20 151.400 138.506  13
   1  -7 -20 472.988 334.026  13
   1  -7 -20 257.329 206.461  10
  -1  -7  19 2072.93 319.541  13
  -1  -7  19 2408.64 372.417  10
   1  -7 -19 2830.53 470.765  10
   1  -7 -19 2083.13 440.188  13
  -1  -7  19 2772.14 472.061   8
  -1  -7  18 1872.01 382.022  10
   1  -7 -18 1862.84 437.263  13
  -1  -7  18 1510.31 267.319  13
   1  -7 -18 2279.31 422.138  10
  -1  -7  17 7496.86 638.741  13
   1  -7 -17 9717.94 825.696  10
  -1  -7  17 8937.57 737.737  10
   1  -7 -17 9993.10 906.521  13
   1  -7 -16-498.182 282.465  13
  -1  -7  16-33.7864 191.271  10
  -1   7  16 282.162 166.337  16
   1  -7 -16 41.8017 302.181  10
  -1  -7  16 233.732 177.009  13
   1  -7 -15 16638.3 1094.96  10
  -1   7  15 15738.6 1043.55  16
  -1  -7  15 12995.9 854.996  13
  -1  -7  15 14381.3 978.914  10
   1  -7 -15 16420.6 988.160   9
   1  -7 -15 16381.1 1165.48  13
   1  -7 -14 116.612 195.251  13
  -1  -7  14 360.359 213.119  13
  -1   7  14 492.990 249.765  16
   1  -7 -14 464.706 231.413  10
  -1  -7  14 432.747 169.453  10
  -1   7  13 1115.43 320.962  16
  -1  -7  13 548.276 250.718  10
   1  -7 -13 1039.79 385.753  13
   1  -7 -13 1074.63 301.933  10
  -1  -7  13 910.976 259.095  13
  -1   7  12 588.699 241.130  16
  -1  -7  12 818.449 283.656  13
  -1  -7  12 349.581 256.183  10
   1  -7 -12 672.086 356.005  13
   1  -7 -12 666.817 252.548  10
  -1  -7  11 6439.79 701.545  10
  -1   7  11 6715.97 688.559  16
   1  -7 -11 6480.49 687.203  10
  -1  -7  11 5423.33 580.121  13
   1  -7 -11 6132.75 699.956  13
   1  -7 -10 282.288 321.311  13
  -1  -7  10 208.574 252.689  10
  -1  -7  10 676.622 347.835  13
  -1   7  10 26.4913 187.239  16
   1  -7 -10 153.099 297.393  10
   1  -7  -9 13.0616 169.734  13
  -1   7   9 320.350 224.707  16
   1  -7  -9 639.731 321.091  10
  -1  -7   9 488.006 290.362  10
  -1  -7   9 460.671 246.296  13
  -1   7   8 3099.17 478.447  16
   1  -7  -8 4383.41 606.704  10
  -1  -7   8 4502.69 671.075  10
  -1  -7   8 5307.38 694.824  13
   1  -7  -8 4200.48 564.337  13
  -1  -7   7 27320.7 1443.72  10
  -1   7   7 25368.3 1314.94  16
   1  -7  -7 28521.4 1485.02  10
   1  -7  -7 26582.5 1353.25  13
  -1  -7   7 23588.0 1203.30  13
   1  -7  -6 4037.13 616.888  10
  -1  -7   6 2496.72 488.038  10
   1  -7  -6 3510.42 624.734  13
  -1   7   6 3811.29 632.303  16
   1  -7  -5 768.595 444.825  13
  -1   7   5 106.162 165.527  16
  -1  -7   5 130.272 258.747  10
   1  -7  -5 200.284 213.162  10
   1  -7  -4 1971.25 386.191  13
   1  -7  -4 1968.02 423.055  10
  -1  -7   4 2110.46 464.531  10
  -1   7   4 2307.16 421.676  16
  -1  -7   4 3465.77 501.304  13
  -1  -7   3 6011.48 634.908  13
  -1  -7   3 6190.14 713.501  10
   1  -7  -3 6180.51 676.830  10
  -1   7   3 5671.80 626.534  16
   1  -7  -3 6573.42 693.882  13
  -1   7   2 878.072 363.866  16
   1  -7  -2 978.605 374.955  10
  -1  -7   2 585.930 307.452  10
   1  -7  -2 1848.02 602.754  13
  -1  -7   1 1471.20 404.007  10
   1  -7  -1 1278.45 352.339  10
   1  -7  -1 1224.48 356.531   8
  -1  -7   1 2185.35 432.593  13
   1  -7  -1 2039.75 412.120  13
   1  -7   0 3040.37 491.206   8
  -1  -7   0 4625.98 569.964  13
   1  -7   0 3695.47 542.818  10
  -1  -7   0 3569.83 585.551  10
   1  -7   0 3921.13 611.078  13
   1  -7   1 2363.92 444.565   8
  -1  -7  -1 3685.57 599.481  10
  -1  -7  -1 9480.69 912.912  13
   1  -7   1 8092.85 838.562  13
   1  -7   1 2394.17 432.115  10
  -1  -7  -2 21197.3 1290.25  10
   1  -7   2 19907.3 1221.63  10
   1  -7   2 18214.8 1177.75  13
   1  -7   2 17965.6 1131.17   8
  -1  -7  -2 19636.1 1097.44  13
   1  -7   3 3750.82 577.356   8
   1  -7   3 4596.13 631.245  10
   1   7   3 4532.31 875.000  16
  -1  -7  -3 4308.30 563.439  13
  -1  -7  -3 2989.32 530.595  10
   1   7   4 1971.75 725.306  16
  -1  -7  -4 2293.52 530.061  10
   1  -7   4 1651.55 379.465   8
   1  -7   4 1561.24 370.315  10
   1  -7   4 6393.60 781.405  13
  -1  -7  -4 5116.43 828.345  13
   1  -7   5 15072.6 1066.33   8
  -1  -7  -5 17607.4 1046.36  13
   1   7   5 16619.1 1147.01  16
   1  -7   5 16872.9 1111.77  10
  -1  -7  -5 18131.7 1186.29  10
   1  -7   5 15362.3 1064.25  13
   1  -7   6 542.888 302.638   8
   1  -7   6 720.109 335.062  10
   1   7   6-80.1637 325.135  16
  -1  -7  -6 57.4378 216.623  10
   1  -7   7 3778.33 536.156  10
  -1  -7  -7 4254.75 593.323  10
  -1  -7  -7 3919.28 525.897  13
   1  -7   7 3455.54 542.762   8
   1   7   7 5045.78 623.814  16
   1  -7   7 4599.41 563.675  13
   1  -7   8 846.000 338.695   8
  -1  -7  -8 2048.77 597.048  10
   1   7   8 2135.62 663.700  16
   1  -7   8 752.325 313.222  10
  -1  -7  -8 2012.09 567.307  13
   1  -7   9 63616.0 2101.25  13
  -1  -7  -9 74364.8 2342.16  10
   1  -7   9 65398.1 2104.70  10
   1   7   9 70589.1 2334.44  16
   1  -7   9 66125.5 2278.53   8
  -1  -7  -9 68770.9 2179.25  13
   1  -7  10 1842.23 540.926   8
   1  -7  10 1972.53 470.902  10
  -1  -7 -10 1065.21 336.350  10
   1   7  10 2453.44 598.950  16
  -1  -7 -11 416.811 237.752  13
   1  -7  11-11.8629 246.608   8
  -1  -7 -11 169.640 210.185  10
   1   7  11 348.200 322.138  16
   1  -7  11 168.826 176.927  13
   1  -7  11 1.28244 157.906  10
   1  -7  12 1226.56 316.584  13
   1   7  12 2209.08 496.076  16
  -1  -7 -12 1050.22 300.655  10
   1  -7  12 1046.38 259.991  10
   1  -7  12 970.467 347.251   8
  -1  -7 -12 1777.28 366.252  13
  -1  -7 -13 2248.52 432.024  13
   1   7  13 1911.43 420.352  16
   1  -7  13 1478.91 354.460  10
   1  -7  13 1801.12 420.415   8
  -1  -7 -13 2091.19 414.557  10
   1  -7  13 1268.37 370.576  13
  -1  -7 -14 9372.52 785.515  10
   1   7  14 10366.7 912.928  16
   1  -7  14 7769.54 669.725  10
   1  -7  14 7704.61 786.906   8
  -1  -7 -14 9246.07 866.184  13
   1  -7  14 8940.43 796.924  13
  -1  -7 -15 6823.46 663.227  10
   1   7  15 6376.22 722.003  16
  -1  -7 -15 6798.89 754.221  13
   1  -7  15 6588.97 700.132   8
   1  -7  15 5752.79 628.295  13
   1  -7  16 9453.86 794.558  13
  -1  -7 -16 9696.72 909.871  13
  -1  -7 -16 9128.31 748.106  10
   1  -7  16 8452.28 797.481   8
   1   7  16 10221.9 900.037  16
  -1  -7 -17 14393.1 1102.10  13
   1   7  17 14088.7 1042.44  16
  -1  -7 -17 15236.3 947.483  10
   1  -7  17 15365.5 1032.40   8
   1  -7  17 12352.2 870.540  13
  -1  -7 -18 138.468 265.694  13
   1  -7  18-184.370 256.250   8
  -1  -7 -18-29.6659 154.686  10
   1   7  18 243.716 272.618  16
   1  -7  18 301.347 219.280  13
   1  -7  19 11575.1 872.266   8
  -1  -7 -19 11764.8 803.179  10
  -1  -7 -19 10571.2 969.747  13
   1   7  19 11161.5 878.899  16
   1  -7  19 8409.77 707.178  13
  -1  -7 -20 2943.05 566.747  13
   1  -7  20 4052.63 513.175   8
  -1  -7 -20 3889.04 443.702  10
   1  -7  20 2757.09 411.398  13
   1   7  20 2861.00 484.140  16
  -1  -7 -21 1382.23 415.643  13
   1  -7  21 1995.08 392.498   8
   1   7  21 1852.99 375.008  16
   1  -7  21 1127.59 296.355  13
   1  -7  22 546.698 218.040  13
   1   7  22 682.892 271.344  16
   1  -7  22 882.682 257.210   8
  -1  -7 -22 874.631 335.874  13
   1  -7  23 631.334 219.769  13
  -1  -7 -23 617.045 317.659  13
   1   7  23 1032.94 296.825  16
   1  -7  23 960.695 257.237   8
   1  -7  24 46.8533 153.902   8
   1  -7  24 109.743 139.399  13
   1   7  24-53.4196 169.652  16
  -1  -7 -24 289.342 292.745  13
   1  -7  25 1782.72 290.919   8
   1   7  25 1660.26 351.837  16
   1  -7  25 1448.31 256.024  13
  -1  -7 -25 1149.86 382.571  13
   1  -7  26 8324.13 552.072  13
   1   7  26 9513.96 721.524  16
   1   7  27 203.447 179.130  16
   1  -7  27 234.222 146.413   8
   1  -7  27 67.7720 113.055  13
   1   7  28 1498.33 269.154  16
   1  -7  28 1361.98 216.583  13
  -1  -8  21 2495.15 306.452   8
   1  -8 -20 3711.74 511.995  13
  -1  -8  20 4752.91 416.657   8
   1  -8 -20 4284.90 395.332  10
   1  -8 -19 1931.89 390.711  13
  -1  -8  19 2426.50 325.083   8
   1  -8 -19 1972.11 283.478  10
   1  -8 -18 7029.45 542.454  10
   1  -8 -18 5950.98 635.824  13
  -1  -8  18 7604.28 552.407   8
  -1  -8  18 6151.87 441.142  10
   1  -8 -17 3675.32 485.507  13
  -1  -8  17 4106.78 435.937   8
   1  -8 -17 4075.47 438.610  10
  -1  -8  17 3383.70 361.137  10
   1  -8 -16 663.852 277.778  13
  -1  -8  16 665.306 193.041  10
   1  -8 -16 703.993 182.800  10
  -1  -8  16 773.449 233.112   8
   1  -8 -15 2398.59 422.585  13
  -1  -8  15 1980.81 345.483   8
  -1  -8  15 1754.00 291.592  10
   1  -8 -15 2417.55 384.894  10
   1  -8 -14 1465.66 301.783  10
  -1  -8  14 1135.70 239.193  10
   1  -8 -14 1312.82 327.899  13
  -1  -8  14 1638.76 318.819   8
   1  -8 -13 856.924 269.140  10
  -1  -8  13 446.223 183.235  10
   1  -8 -13 758.019 260.368  13
  -1  -8  13 1149.97 292.786   8
   1  -8 -13 493.578 187.326   9
   1  -8 -12 3157.24 438.062  13
  -1  -8  12 2573.37 364.337  10
   1  -8 -12 3036.38 414.218  10
   1  -8 -12 3107.66 393.894   9
  -1  -8  12 2584.54 364.345   8
  -1  -8  11 3647.00 459.791   8
   1  -8 -11 4959.03 532.204  10
  -1  -8  11 3712.80 451.070  10
   1  -8 -11 3968.92 431.161   9
   1  -8 -11 4318.91 516.916  13
   1  -8 -10 3168.08 403.139  10
  -1  -8  10 2894.61 420.886   8
  -1  -8  10 3061.46 426.634  10
   1  -8 -10 3314.85 458.310  13
   1  -8 -10 3394.26 436.341   9
   1  -8  -9 950.245 289.842  13
  -1  -8   9 576.663 248.829   8
  -1  -8   9 714.954 261.823  10
   1  -8  -9 411.685 173.023  10
   1  -8  -9 732.357 239.628   9
   1  -8  -8 356.835 220.402   9
  -1  -8   8 414.463 196.776   8
   1  -8  -8 663.378 233.687  10
  -1  -8   8 321.576 170.474  10
   1  -8  -8 447.418 235.791  13
  -1  -8   7 277.396 174.928   8
   1  -8  -7 371.432 244.958  10
  -1  -8   7 745.539 277.721  10
   1  -8  -7 491.250 234.831  13
  -1  -8   6 577.234 252.798  10
   1  -8  -6 178.844 223.643  10
  -1  -8   6 45.4748 185.263   8
   1  -8  -6 413.705 258.712  13
   1  -8  -5 1112.04 260.160  10
  -1  -8   5 1084.99 252.917   8
   1   8  -5 1810.74 382.775  16
  -1  -8   5 1698.56 377.670  10
   1  -8  -5 2142.07 393.811  13
   1  -8  -4 5021.10 553.751  10
  -1  -8   4 4563.56 517.398   8
  -1  -8   4 5599.34 599.468  10
   1   8  -4 6380.32 691.877  16
  -1  -8   3 7424.14 605.866   8
   1  -8  -3 8359.39 689.552  10
   1   8  -3 10653.7 887.212  16
  -1  -8   3 7898.42 696.379  10
   1  -8  -3 11260.4 808.887  13
  -1  -8   2 7111.54 667.904  10
  -1  -8   2 6724.19 586.293   8
   1   8  -2 8437.97 823.206  16
   1  -8  -2 7392.72 656.790  10
   1  -8  -2 9324.43 729.335  13
   1   8  -1 4347.78 549.302  16
   1  -8  -1 3672.41 493.345  10
  -1  -8   1 3046.29 455.508  10
   1   8   0 7469.23 793.477  16
   1  -8   0 3962.73 502.037  10
  -1  -8   0 4388.86 537.584  10
   1  -8   0 8252.54 769.954  13
  -1  -8  -1 10507.8 822.582  10
   1  -8   1 10122.6 753.824  10
   1   8   1 9087.62 790.555  16
  -1   8  -1 9552.06 743.371  16
  -1  -8  -2 6054.82 592.474  10
   1  -8   2 6209.30 599.369  10
   1   8   2 6948.32 677.761  16
  -1   8  -2 6626.33 629.592  16
   1  -8   2 6157.67 527.397   8
   1  -8   3 132.374 174.595   8
   1  -8   3 1196.15 314.167  10
  -1   8  -3 919.342 300.416  16
  -1  -8  -3 303.407 209.591  10
   1   8   3 406.381 302.334  16
   1   8   4 1632.67 344.416  16
  -1   8  -4 1362.36 273.027  16
  -1  -8  -4 1616.03 340.537  10
   1  -8   4 1470.29 319.794  10
   1  -8   4 1488.40 314.902   8
   1  -8   4 1592.87 313.784  13
  -1  -8  -5 712.862 245.241  10
   1   8   5 790.174 318.140  16
   1  -8   5 421.892 202.467  10
  -1   8  -5 861.850 297.760  16
   1  -8   5 1622.83 333.100  13
   1  -8   5 726.615 243.036   8
  -1   8  -6 1866.34 324.399  16
   1  -8   6 2246.70 352.589   8
   1   8   6 2190.02 387.283  16
   1  -8   6 2025.43 325.263  10
   1  -8   6 1964.87 330.859  13
  -1  -8  -6 2215.16 401.549  10
   1  -8   7-166.338 200.267   8
  -1   8  -7 324.771 164.617  16
   1  -8   7 391.568 190.563  13
  -1  -8  -7 136.348 202.253  10
   1  -8   7 3.05058 172.387  10
   1   8   7 245.345 250.083  16
  -1   8  -8 1523.84 452.328  16
  -1  -8  -8 353.006 245.738  10
   1   8   8 1746.46 442.568  16
   1  -8   8 3200.33 526.980  13
   1  -8   9 12265.8 769.309  13
   1  -8   9 12708.4 763.040  10
   1  -8   9 14076.7 835.691   8
  -1  -8  -9 14963.2 885.009  10
   1   8   9 14739.2 915.293  16
  -1  -8 -10 4288.14 473.466  10
   1  -8  10 4088.20 454.232   8
   1  -8  10 3684.51 407.083  10
   1   8  10 4469.05 588.996  16
   1   8  11 13303.9 861.760  16
   1  -8  11 12340.6 702.035  10
   1  -8  11 13436.9 802.882   8
   1  -8  11 11379.3 718.015  13
   1  -8  12 40.3501 171.251  13
  -1  -8 -12 386.603 181.997  10
   1  -8  12 228.414 132.920  10
   1  -8  12-7.64996 149.351   8
   1   8  12 354.356 183.986  16
   1  -8  13-1.52457 108.146  13
   1   8  13 74.9060 157.705  16
   1  -8  13-151.836 176.391   8
  -1  -8 -13 52.2422 132.144  10
   1  -8  13-23.5889 143.677   9
  -1  -8 -14 3924.01 438.473  10
   1  -8  14 3002.84 347.087  13
   1  -8  14 4058.99 399.062   9
   1   8  14 3639.14 459.730  16
   1  -8  14 4570.21 466.934   8
  -1  -8 -15 2925.96 359.688  10
   1  -8  15 3500.16 342.643   9
   1  -8  15 2269.04 298.446  13
   1  -8  15 3270.60 388.501   8
   1   8  15 2523.91 396.276  16
   1  -8  16 2899.59 374.087   8
   1  -8  16 1834.65 258.838  13
  -1  -8 -16 2570.68 319.107  10
   1   8  16 2124.59 358.242  16
   1   8  17 1096.40 265.259  16
   1  -8  17 667.345 177.067  13
  -1  -8 -17 1589.54 254.671  10
   1  -8  17 1351.61 247.732   8
   1   8  18 3486.03 407.299  16
   1  -8  18 2646.74 292.796  13
   1  -8  19 1100.14 236.822   8
   1  -8  19 512.307 139.990  13
   1  -8  20 661.459 163.235   8
   1  -8  21 0.95999 103.116   8
   2   0 -47 210.047 170.182  14
  -2   0  46 6133.38 416.049  12
  -2   0  46 5520.55 561.240  16
   2   0 -46 6784.81 604.917  14
  -2   0  45-6.74930 180.208  16
   2   0 -45-71.9764 160.253  14
  -2   0  44 5671.51 706.595  16
   2   0 -44 6759.97 681.617  14
  -2   0  43 396.430 323.846  16
   2   0 -43 213.186 237.449  14
  -2   0  42 7942.63 954.639  16
   2   0 -42 7354.85 806.656  14
   2   0 -41-9.01082 220.876  14
  -2   0  41-352.894 290.856  16
   2   0 -40 11575.6 1053.71  14
  -2   0  40 10907.7 1074.64  16
  -2   0  39 314.587 356.716  16
   2   0 -39 90.6137 308.773  14
  -2   0  38 10030.0 1150.04  16
   2   0 -38 10833.5 1043.74  14
   2   0 -37-58.2882 206.309  14
  -2   0  37-138.486 290.502  16
  -2   0  36 8449.50 1026.91  16
   2   0 -36 9380.02 984.717  14
   2   0 -35 245.111 291.854  14
  -2   0  35-518.027 356.668  16
  -2   0  34 1082.69 524.790  16
   2   0 -34 936.150 376.503  14
   2   0 -33 160.079 212.805  14
  -2   0  33 144.947 327.062  16
  -2   0  32-498.759 529.121   3
   2   0 -32 176.655 245.688  14
   2   0 -32-7.50042 437.330   5
  -2   0  32 462.975 383.325  16
   2   0 -31 55.0529 256.567  14
  -2   0  31 186.380 332.511  16
   2   0 -31 474.766 570.875   5
  -2   0  31 134.585 461.509   3
  -2   0  30 3034.39 588.660  16
   2   0 -30 3026.70 916.245   5
  -2   0  30 3640.80 1024.08   3
   2   0 -30 3219.18 524.947  14
  -2   0  29 0.84808 239.924  16
   2   0 -29 460.526 277.061  14
   2   0 -29 106.264 303.237   5
  -2   0  29 452.871 563.238   3
  -2   0  28 556.740 332.259  16
  -2   0  28 621.336 509.978   3
   2   0 -28 855.215 519.454   5
   2   0 -28 504.929 274.635  14
  -2   0  27-204.675 299.801   3
   2   0 -27-90.5941 295.738   5
   2   0 -27 209.509 205.621  14
  -2   0  26 9131.85 1475.52   3
   2   0 -26 8547.94 1384.93   5
   2   0 -25-130.310 322.067   5
  -2   0  25-113.731 368.730   3
  -2   0  24 8200.14 1311.90   3
   2   0 -24 7767.27 1241.64   5
   2   0 -23-7.25419 311.280   5
   2   0 -23-152.839 249.245  18
  -2   0  23-6.01574 334.457   3
  -2   0  22 63500.7 3331.34   3
   2   0 -22 61367.2 3181.85   5
   2   0 -22 59269.0 2807.54  18
   2   0 -21 167.111 252.924   5
   2   0 -21 51.0844 158.995  18
  -2   0  21-101.391 383.306   3
   2   0 -20 5395.37 954.463   5
  -2   0  20 6802.46 1161.72   3
   2   0 -20 4354.76 729.686  18
  -2   0  19-113.001 295.266   3
  -2   0  19 77.2038 297.509   1
   2   0 -19 85.8941 250.608   5
   2   0 -19 80.7410 222.693  18
   2   0 -18 29441.4 1975.93   5
  -2   0  18 29905.0 2079.23   3
   2   0 -18 25790.5 1601.28  18
  -2   0  18 27719.4 1841.47   1
  -2   0  17 223.244 271.691   3
  -2   0  17 169.641 229.310   1
   2   0 -17-78.4553 180.539  18
   2   0 -17 81.9353 317.004   5
   2   0 -16 286889. 4899.67  18
  -2   0  16 303956. 5449.94   1
  -2   0  16 327008. 6239.70   3
   2   0 -16 311035. 5941.74   5
   2   0 -15 167.896 322.287   5
  -2   0  15-50.3908 205.190   1
  -2   0  15-34.6292 267.939   3
   2   0 -15 92.9549 184.267  18
  -2   0  14 213807. 4646.05   3
   2   0 -14 199217. 3742.28  18
   2   0 -14 207158. 4597.13   5
  -2   0  14 205773. 4090.17   1
   2   0 -13 49.9084 231.339   5
  -2   0  13-331.221 299.454   3
   2   0 -13-73.4392 152.505  18
  -2   0  13-174.108 256.251   1
   2   0 -12 466737. 5083.27  18
  -2   0  12 462802. 6343.42   3
   2   0 -12 463256. 6367.02   5
  -2   0  11-240.931 241.473   1
  -2   0  11-278.988 239.765   3
   2   0 -11-235.821 195.514  18
   2   0 -11 176.751 320.988   5
  -2   0  10 719561. 7353.70   3
   2   0 -10 727544. 5579.57  18
  -2   0  10 742121. 6307.38   1
  -2   0   9-100.453 163.515   1
  -2   0   9 56.8299 229.300   3
  -2   0   8 399918. 4089.54   1
  -2   0   8 401876. 4934.19   3
  -2   0   7 221.061 181.796   1
  -2   0   7 164.360 212.795   3
  -2   0   6 124364. 2506.53   3
  -2   0   6 128129. 2050.43   1
  -2   0   5 67.2213 161.091   3
   2   0  -5 169.376 218.298   2
   2   0  -5 234.079 215.520   6
  -2   0   5-97.3726 137.048   1
   2   0  -4 12193.6 732.907   2
  -2   0   4 11949.9 706.742   3
  -2   0   4 11632.7 567.783   1
   2   0  -4 11641.4 747.546   6
  -2   0   3 182.480 127.912   1
   2   0  -3 186.703 210.755   6
   2   0  -3-131.950 162.716   2
   2   0  -2 18127.4 894.908   6
   2   0  -2 17112.1 795.116   2
  -2   0   2 16934.9 665.476   1
   2   0  -1-50.8494 107.935   2
   2   0  -1-110.087 144.886   6
   2   0   0 16132.2 666.642   2
   2   0   0 16055.8 838.170   6
   2   0   1 58.0949 116.382   2
   2   0   1 4.60125 190.793   6
   2   0   1 128.693 246.944   5
   2   0   2 943171. 6548.76   6
   2   0   2 952486. 6738.97   5
   2   0   2 938838. 5386.27   2
   2   0   3 42.1046 104.307   2
  -2   0  -3 95.9468 176.260  18
   2   0   3-46.3909 159.358   6
   2   0   3 167.155 158.845   5
  -2   0  -4 89939.0 2512.72  18
   2   0   4 90525.7 2202.53   6
   2   0   4 89552.1 1868.29   2
   2   0   5-3.97110 127.521   2
  -2   0  -5 38.1687 190.804  18
   2   0   5 128.003 180.179   6
  -2   0  -5-129.238 113.914  17
   2   0   6 1263.42 283.179   2
  -2   0  -6 1769.55 474.810  18
   2   0   6 1040.88 297.989   6
  -2   0  -6 926.769 175.277  17
   2   0   6 1054.86 217.424   3
  -2   0  -7-139.513 110.131  17
  -2   0  -7 233.532 230.289  18
   2   0   7-21.4036 191.358   6
   2   0   7 19.8759 122.062   3
  -2   0  -8 71386.1 2704.52  18
   2   0   8 72248.5 1835.87   3
  -2   0  -8 70133.1 1610.72  17
  -2   0  -9 205.774 316.182  18
   2   0   9-43.2899 161.863   3
  -2   0  -9-208.795 155.363  17
   2   0  10 195610. 3345.59   3
  -2   0 -10 201195. 4864.70  18
  -2   0 -11-482.697 328.134  18
   2   0  11-33.5571 156.064   3
  -2   0 -12 2315.59 623.956  18
   2   0  12 3409.30 508.196   3
   2   0  13 57.5291 207.396   3
  -2   0 -13-237.383 336.665  18
  -2   0 -14 78128.7 3490.10  18
   2   0  14 69122.8 2489.68   3
  -2   0 -15-10.6064 359.145  18
   2   0  15-211.134 184.752   3
   2   0  16 22252.5 1498.67   3
  -2   0 -16 23680.5 2094.30  18
  -2   0 -17 127.951 424.482  18
   2   0  17-9.29286 291.644   3
   2   0  18 5405.69 810.501   3
  -2   0 -18 5634.73 1128.09  18
   2   0  19-247.168 283.594   3
  -2   0 -19-89.8148 421.093  18
  -2   0 -20 86570.6 4371.07  18
   2   0  20 84714.1 3372.40   3
   2   0  21 128.282 329.827   3
  -2   0 -21 228.739 573.949  18
   2   0  22 20795.2 1784.96   3
  -2   0 -22 24011.0 2446.33  18
  -2   0 -23-186.190 477.840  18
   2   0  23-235.800 294.690   3
   2   0  24 24924.8 2108.23   3
  -2   0 -24 24315.5 2588.06  18
  -2   0 -25-249.609 344.244  18
   2   0  25-192.641 260.079   3
   2   0  25 128.093 254.067  16
   2   0  26 63475.2 1980.25   7
   2   0  26 66338.6 3546.98   3
  -2   0 -26 64311.7 4301.92  18
   2   0  26 70835.9 2704.07  16
   2   0  27-123.967 187.194   7
  -2   0 -27 514.260 542.560  18
   2   0  27-169.143 253.219  16
   2   0  27-493.233 498.149   3
   2   0  28 54613.1 1940.64   7
   2   0  28 57069.6 3436.88   3
  -2   0 -28 58102.2 4343.72  18
   2   0  29-313.692 391.099  16
   2   0  29-211.403 166.149  12
  -2   0 -29 462.079 598.496  18
   2   0  29-376.135 515.079   3
   2   0  29 105.989 155.679   7
   2   0  30 17681.2 1108.80  12
   2   0  30 16406.8 1081.97   7
   2   0  30 19025.7 1547.90  16
  -2   0 -30 15528.7 2288.85  18
   2   0  31-65.3435 208.083  12
   2   0  31 338.025 224.706   7
  -2   0 -31 40.1853 380.960  18
   2   0  31 260.409 310.189  16
   2   0  32 199.093 230.630   7
   2   0  32 283.926 230.020  12
   2   0  32 251.869 342.336  16
   2   0  33-145.140 190.017   7
   2   0  33-207.218 227.661  12
   2   0  33 179.513 274.721  16
   2   0  34 3940.24 809.197  16
   2   0  34 3952.92 499.918  12
   2   0  34 4804.53 562.457   7
   2   0  35 195.403 171.644  12
   2   0  35-8.23684 153.674   7
   2   0  35 465.961 450.241  16
   2   0  36 2796.95 675.671  16
   2   0  36 2324.58 407.537   7
   2   0  36 2420.89 401.537  12
   2   0  37-172.464 164.305  12
   2   0  37 124.985 147.987   7
   2   0  37 60.2542 291.145  16
   2   0  38 787.305 228.782   7
   2   0  38 1320.74 548.051  16
   2   0  39-111.701 145.187   7
   2   0  39 139.817 416.521  16
   2   0  40 1017.29 431.248  16
   2   0  41-232.707 264.807  16
   2   0  42 438.729 309.517  16
   2   0  43-425.091 341.852  16
   2   0  44 198.076 263.720  16
   2   0  45-99.5207 237.056  16
   2   0  46 4713.75 535.192  16
  -2  -1  47 4605.36 355.689  12
   2  -1 -47 4680.54 443.001  14
  -2  -1  46 1262.22 317.807  16
  -2  -1  46 965.582 203.596  12
   2   1 -46 852.681 264.705  14
   2  -1 -46 805.591 248.874  14
   2   1 -45 2709.72 416.313  14
   2  -1 -45 2428.71 390.773  14
  -2  -1  45 1930.55 405.254  16
   2   1 -44 1898.43 386.130  14
  -2  -1  44 1933.79 430.790  16
  -2   1  44 1955.51 399.873  16
   2  -1 -44 2257.98 429.544  14
  -2  -1  43-27.0594 232.431  16
  -2   1  43-15.5530 196.493  16
   2  -1 -43 152.038 192.338  14
   2   1 -43 428.169 257.101  14
  -2   1  42 569.570 254.764  16
  -2  -1  42 401.464 308.615  16
   2  -1 -42 380.883 213.693  14
   2   1 -42 483.760 295.564  14
  -2   1  41 1052.07 359.468  16
  -2  -1  41 1301.68 432.519  16
   2   1 -41 1058.08 309.063  14
   2  -1 -41 1447.97 384.463  14
   2  -1 -40 2420.61 472.305  14
   2   1 -40 2781.94 537.663  14
  -2   1  40 1994.29 465.203  16
  -2  -1  40 2359.19 571.190  16
   2   1 -39 15082.4 1205.83  14
  -2  -1  39 13734.1 1327.32  16
  -2   1  39 13169.3 1201.90  16
   2  -1 -39 15186.5 1188.35  14
  -2  -1  38 187.035 296.219  16
   2  -1 -38-248.049 278.144  14
  -2   1  38 234.887 312.787  16
   2   1 -38 458.650 333.524  14
  -2  -1  37 6381.91 974.902  16
   2  -1 -37 7439.04 879.371  14
  -2   1  37 7494.15 973.271  16
   2   1 -37 7421.55 880.160  14
   2   1 -36 5158.28 766.347  14
  -2   1  36 4437.29 736.926  16
   2  -1 -36 5117.90 738.709  14
  -2  -1  36 4869.68 847.895  16
  -2  -1  35 28711.0 1962.64  16
   2   1 -35 29226.0 1735.58  14
  -2   1  35 25876.8 1811.99  16
   2  -1 -35 28237.9 1721.80  14
  -2   1  34 0.90787 273.239  16
   2   1 -34 296.947 267.706  14
  -2  -1  34 254.710 302.310  16
   2  -1 -34 700.441 312.228  14
   2   1 -33 8388.89 950.670  14
  -2   1  33 6987.59 940.210  16
   2  -1 -33 8255.73 926.630  14
  -2  -1  33 7995.75 1041.19  16
   2  -1 -33 5634.38 1162.85  13
  -2  -1  32 8102.23 1080.83  16
   2   1 -32 8906.63 952.692  14
  -2  -1  32 7762.48 1416.91   3
  -2   1  32 8498.16 1557.86   3
  -2   1  32 6721.22 898.447  16
   2  -1 -32 8552.86 930.649  14
   2  -1 -32 8531.99 1608.06   5
   2  -1 -32 5853.13 1459.63  13
   2  -1 -31-367.328 516.780   5
  -2  -1  31 282.752 368.866   3
  -2   1  31 61.2872 404.368   3
   2   1 -31 9.56806 214.223  14
  -2   1  31 340.456 272.026  16
   2  -1 -31 304.566 274.029  14
  -2  -1  31 406.608 364.403  16
   2  -1 -31-404.489 722.328  13
   2  -1 -30 6765.45 1313.65   5
  -2   1  30 6605.04 866.767  16
  -2   1  30 7094.71 1437.52   3
   2  -1 -30 6910.23 817.703  14
  -2  -1  30 7616.12 966.092  16
   2   1 -30 7808.28 902.808  14
  -2  -1  30 7349.82 1418.19   3
   2  -1 -30 4635.53 977.907  13
  -2  -1  29 11798.9 1228.70  16
  -2   1  29 11517.9 1729.77   3
  -2   1  29 9483.95 1004.66  16
   2   1 -29 11435.5 1036.24  14
  -2  -1  29 12438.7 1780.95   3
   2  -1 -29 11054.5 1005.35  14
   2  -1 -29 9588.13 1564.64   5
   2  -1 -29 8824.45 1362.73  13
  -2   1  28 43681.9 2098.81  16
   2  -1 -28 46488.3 3366.23   5
  -2   1  28 48746.9 3550.56   3
  -2  -1  28 48016.4 2391.54  16
  -2  -1  28 48924.4 3451.46   3
   2  -1 -28 46893.4 2061.84  14
   2   1 -28 49329.6 2083.53  14
   2   1 -28 46541.4 3065.04   5
   2   1 -27 29366.6 2376.83   5
  -2  -1  27 30885.7 1886.41  16
   2  -1 -27 30251.2 1624.32  14
  -2   1  27 31331.2 2748.60   3
  -2  -1  27 32945.6 2808.92   3
   2  -1 -27 26098.1 2317.01  18
   2  -1 -27 33604.8 2808.39   5
   2   1 -27 31127.6 1626.95  14
  -2   1  27 27129.2 1614.92  16
   2  -1 -26 7130.69 1289.62   5
   2  -1 -26 4967.42 1030.01  18
   2   1 -26 7219.24 790.829  14
  -2  -1  26 6879.07 1258.70   3
   2  -1 -26 6831.01 772.284  14
   2   1 -26 7090.32 1137.38   5
  -2   1  26 5742.06 1186.78   3
  -2  -1  25-17.4746 377.613   3
  -2   1  25 659.911 495.290   3
   2  -1 -25 27.8497 303.824   5
  -2  -1  25 601.397 520.690   1
   2   1 -25 1255.79 513.305   5
   2  -1 -25 382.669 396.902  18
  -2  -1  24 81856.9 4121.95   3
   2  -1 -24 91206.9 4331.54   5
   2   1 -24 78414.2 3572.24   5
  -2   1  24 84955.1 4134.17   3
   2  -1 -24 75268.6 3723.79  18
  -2  -1  24 74917.7 3774.32   1
   2   1 -23 4052.28 811.040   5
   2  -1 -23 4564.39 1067.48   5
  -2  -1  23 4690.27 1007.38   3
   2  -1 -23 4731.16 920.274  18
  -2   1  23 4306.28 923.963   3
  -2  -1  23 4997.08 971.221   1
   2  -1 -22-109.810 351.700   5
  -2  -1  22 559.988 408.912   3
   2  -1 -22 541.234 431.800  18
  -2   1  22 178.232 303.318   3
  -2  -1  22-8.65919 310.900   1
   2   1 -22 322.038 422.889   5
  -2  -1  21 4631.55 927.423   3
  -2   1  21 4494.52 986.337   3
   2   1 -21 4512.12 837.128   5
  -2  -1  21 4456.15 873.882   1
   2  -1 -21 4163.09 819.534  18
  -2  -1  20 5683.03 994.356   1
   2  -1 -20 5698.36 949.835  18
  -2  -1  20 6618.55 1061.04   3
  -2   1  20 6309.02 1066.51   3
   2   1 -20 5896.24 940.585   5
   2  -1 -19 79950.9 3344.84  18
  -2  -1  19 99117.3 3854.49   3
  -2   1  19 96166.0 3774.10   3
  -2  -1  19 93643.2 3640.43   1
   2   1 -19 86511.3 3290.58   5
  -2  -1  18 3912.97 823.109   3
   2  -1 -18 2546.54 580.043  18
  -2  -1  18 3753.76 770.859   1
   2   1 -18 3597.29 677.233   5
  -2   1  18 4140.50 816.873   3
  -2  -1  17 40740.7 2338.50   3
  -2   1  17 41703.2 2315.91   3
   2  -1 -17 33411.8 2042.77  18
   2   1 -17 38288.6 2061.98   5
  -2  -1  17 40476.3 2239.28   1
   2   1 -16 14891.6 945.757  18
  -2  -1  16 17570.6 1488.36   3
   2   1 -16 16403.9 1327.56   5
   2  -1 -16 15523.6 1369.90  18
  -2   1  16 18697.6 1513.20   3
  -2  -1  16 17939.8 1472.42   1
  -2  -1  15 62131.4 2543.81   1
  -2   1  15 62598.1 2692.49   3
  -2  -1  15 64482.7 2717.73   3
   2  -1 -15 55916.3 2484.61  18
   2   1 -15 58731.1 2422.59   5
   2  -1 -14 47251.5 2185.73  18
  -2  -1  14 55533.2 2510.05   3
  -2  -1  14 54529.1 2283.04   1
  -2   1  14 50595.8 2329.35   3
   2   1 -14 48421.2 2171.43   5
   2   1 -14 42317.7 1374.38  18
   2   1 -13 25237.7 960.446  18
  -2  -1  13 24852.2 1625.35   3
  -2   1  13 25277.4 1586.72   3
   2  -1 -13 28646.7 1664.85  18
  -2  -1  13 23689.7 1520.23   1
   2   1 -13 22528.1 1456.36   5
   2   1 -12 19113.1 1303.47   5
  -2  -1  12 20585.3 1451.04   3
  -2   1  12 18985.0 1330.00   3
   2  -1 -12 21771.1 1405.03  18
  -2  -1  12 20891.6 1321.29   1
   2   1 -12 17461.6 708.912  18
  -2  -1  11 16976.6 1187.40   1
   2   1 -11 13393.2 525.289  18
  -2   1  11 17322.9 1221.89   3
   2  -1 -11 16712.8 1357.13   5
   2  -1 -11 18616.2 1274.39  18
   2   1 -11 16777.6 1189.46   5
  -2  -1  11 17954.1 1287.40   3
  -2   1  10 77682.7 2438.97   3
  -2  -1  10 79564.1 2394.04   1
  -2  -1  10 84638.5 2584.12   3
   2  -1 -10 80614.3 2790.75   5
   2   1 -10 82942.7 2517.14   5
   2   1  -9 44973.1 1814.08   5
  -2  -1   9 44241.5 1857.69   3
   2   1  -9 46638.7 2121.78   2
  -2   1   9 41862.5 1721.03   3
   2  -1  -9 47902.4 2003.35   5
  -2  -1   9 42583.9 1755.34   1
   2   1  -8 22305.0 1442.18   2
  -2  -1   8 22356.4 1214.23   1
  -2   1   8 22566.0 1191.15   3
   2   1  -8 23495.7 1258.39   5
   2  -1  -8 23045.1 1353.97   5
  -2  -1   7 267878. 4077.95   1
   2   1  -7 258475. 4742.09   2
  -2   1   7 275883. 3891.30   3
   2  -1  -7 291778. 4546.09   5
   2   1  -7 283769. 4324.32   5
   2  -1  -6 221710. 3839.13   5
  -2  -1   6 219051. 3493.41   1
  -2   1   6 217903. 3240.40   3
   2  -1  -6 225022. 3872.03   4
   2   1  -6 227432. 3769.58   5
   2  -1  -5 1456.86 396.037   4
   2   1  -5 1188.17 389.456   2
  -2   1   5 1227.13 245.137   3
   2   1  -5 1237.83 291.820   5
  -2  -1   5 1161.05 314.321   1
   2  -1  -5 1518.74 353.835   5
  -2  -1   4 502062. 5076.35   1
   2   1  -4 495137. 5858.17   2
  -2   1   4 510229. 4128.91   3
   2  -1  -4 515809. 5352.13   5
   2   1  -4 525901. 5429.14   5
   2  -1  -4 512607. 5790.14   4
   2   1  -3 56460.3 1879.02   2
   2  -1  -3 55629.3 1906.78   4
  -2  -1   3 50254.5 1639.03   1
   2  -1  -3 53272.4 1689.28   5
  -2   1   3 54605.5 1236.69   3
   2   1  -3 56012.9 1777.21   5
   2  -1  -2 1101.88 295.533   5
   2   1  -2 1118.92 218.178   6
  -2  -1   2 1149.71 290.287   1
   2  -1  -2 947.643 288.825   4
   2   1  -2 1325.47 310.643   2
  -2  -1   2 910.486 155.029  18
  -2   1   2 1190.87 179.376   3
   2   1  -2 906.588 289.301   5
   2  -1  -1 24611.4 1272.59   4
  -2  -1   1 24226.5 853.763  18
   2   1  -1 24158.1 822.353   6
   2  -1  -1 23026.4 1037.08   5
   2   1  -1 23034.6 1162.95   2
  -2  -1   1 21296.3 1075.01   1
   2  -1   0 782.605 289.645   4
   2  -1   0 1044.50 235.530   5
   2   1   0 854.919 259.885   2
  -2  -1   0 1197.84 217.640  18
   2   1   0 1050.60 207.072   6
  -2  -1  -1 1078.56 241.074  18
   2  -1   1 1744.05 392.342   4
   2   1   1 1526.15 358.045   2
   2   1   1 1749.46 248.379   6
   2  -1   1 1735.08 305.653   5
   2   1   2 5280.56 557.802   2
   2   1   2 5055.58 411.670   6
   2  -1   2 4530.38 451.679   5
   2  -1   2 5079.09 652.513   4
  -2  -1  -2 4149.69 451.837  18
   2  -1   3 2204.94 314.617   5
   2   1   3 2493.05 320.526   6
   2   1   3 2307.32 365.790   2
  -2  -1  -3 1805.26 349.372  18
   2  -1   3 2350.80 450.751   4
   2  -1   4 384771. 3985.32   5
  -2  -1  -4 421486. 5401.97  18
   2   1   4 440157. 5137.91   2
   2   1   4 411164. 4138.31   6
   2  -1   4 407824. 5213.77   4
  -2  -1  -5-26.9603 258.913  18
   2   1   5 224.026 197.352   6
   2  -1   5 97.5744 46.9656   3
   2   1   5-61.8783 242.387   2
  -2  -1  -6 156674. 3659.02  18
   2   1   6 154135. 2846.58   6
   2   1   6 156952. 3270.78   2
  -2  -1  -7 1773.82 474.649  18
   2   1   7 1859.75 435.028   2
   2  -1   7 1615.69 210.774   3
   2  -1   7 1812.44 430.971   6
  -2   1  -7 1596.06 352.748  17
   2  -1   8 162874. 3692.70   6
  -2  -1  -8 163752. 4100.74  18
   2   1   8 160894. 3564.53   2
  -2   1  -8 168544. 4248.98  18
  -2   1  -8 159142. 3425.05  17
  -2   1  -9 2180.01 413.022  17
   2   1   9 1809.71 448.996   2
   2  -1   9 1913.70 471.766   6
   2  -1   9 1591.73 261.656   3
  -2   1  -9 2091.14 600.768  18
   2   1   9 1990.41 443.752   3
  -2  -1  -9 2052.57 526.394  18
   2   1  10 37830.8 1754.94   3
   2  -1  10 40732.1 2017.36   6
  -2   1 -10 40322.4 1839.78  17
  -2   1 -10 43360.4 2369.12  18
   2   1  10 39171.0 1931.39   2
   2  -1  10 34750.7 1283.14   3
  -2  -1 -10 41981.3 2250.90  18
   2   1  11 4594.10 695.415   2
   2   1  11 4286.64 656.948   3
   2  -1  11 3966.46 473.268   3
   2  -1  11 4748.08 756.869   6
  -2  -1 -11 5337.98 872.675  18
  -2   1 -11 5156.33 892.627  18
  -2   1 -11 4748.24 652.232  17
  -2   1 -12 123773. 4165.73  18
  -2  -1 -12 123251. 4125.90  18
  -2   1 -12 120003. 3389.98  17
   2  -1  12 128825. 3783.66   6
   2   1  12 122735. 3286.34   3
   2  -1  12 112431. 2598.96   3
   2   1  12 124922. 3640.19   2
  -2  -1 -13 4964.02 938.145  18
   2   1  13 2975.46 587.702   3
   2   1  13 3388.23 694.970   2
  -2   1 -13 5343.23 963.956  18
   2  -1  13 3092.42 474.736   3
  -2   1 -13 5023.51 762.192  17
  -2   1 -14 11178.4 1149.37  17
   2  -1  14 8391.92 810.007   3
   2   1  14 9756.36 1056.90   3
  -2   1 -14 10852.8 1379.67  18
   2   1  14 10393.0 1148.29   2
  -2   1 -15 12075.0 1254.76  17
   2   1  15 11576.6 1146.29   3
  -2   1 -15 12790.3 1538.34  18
   2  -1  15 10488.0 966.123   3
  -2  -1 -15 13754.8 1570.20  18
   2   1  15 11439.9 1233.99   2
  -2   1 -16 573.914 321.207  17
   2   1  16 205.714 295.058   2
   2  -1  16 25.6024 220.671   3
  -2  -1 -16 673.321 470.218  18
   2   1  16 343.416 294.756   3
  -2   1 -16 561.577 384.494  18
  -2   1 -17 14656.7 1713.93  18
   2  -1  17 12611.9 1123.35   3
  -2  -1 -17 18284.0 1919.42  18
  -2   1 -17 14833.6 1486.80  17
   2   1  17 14285.3 1331.67   3
   2  -1  18 20976.3 1510.76   3
  -2   1 -18 24162.2 2217.93  18
  -2  -1 -18 22887.3 2199.11  18
   2   1  18 24201.3 1799.66   3
  -2  -1 -19 36691.4 2820.62  18
   2  -1  19 34243.2 2003.00   3
   2   1  19 33321.6 2196.95   3
  -2   1 -19 34632.5 2725.59  18
   2   1  20 45917.5 2633.61   3
  -2  -1 -20 48561.2 3330.72  18
   2  -1  20 46507.1 2407.05   3
  -2   1 -20 43263.2 3130.15  18
   2   1  21 3749.79 824.567   3
  -2   1 -21 3116.87 909.149  18
  -2  -1 -21 3368.73 935.922  18
   2  -1  21 3166.12 653.528   3
   2   1  22 5038.02 1090.30   2
  -2  -1 -22 8121.85 1415.96  18
   2  -1  22 5638.39 899.067   3
   2   1  22 5926.22 1024.12   3
  -2   1 -22 7821.54 1434.40  18
   2   1  23 10699.1 1439.13   3
   2   1  23 11480.6 1597.09   2
   2  -1  23 12180.3 1360.63   3
  -2   1 -23 12012.1 1769.58  18
  -2  -1 -23 12861.0 1818.64  18
   2   1  24 5075.62 1087.37   2
  -2  -1 -24 6929.07 1475.61  18
   2  -1  24 6405.36 1005.18   3
  -2   1 -24 6492.69 1380.95  18
   2   1  24 6183.00 1120.71   3
   2   1  25 401.026 278.833  16
  -2   1 -25 973.306 657.613  18
   2   1  25 334.406 335.928   2
  -2  -1 -25 194.161 629.305  18
   2  -1  25 932.132 289.872   7
   2   1  25 652.904 427.557   3
   2   1  25 913.270 293.970   7
   2  -1  25 286.254 281.043  16
  -2  -1 -25 866.565 640.376  13
   2   1  26 2030.08 674.007   3
   2   1  26 2316.10 508.721  16
   2   1  26 2093.12 760.980   2
   2  -1  26 2389.48 404.219   7
   2   1  26 1908.31 334.837   7
  -2  -1 -26 2809.30 967.016  13
  -2   1 -26 2749.61 932.140  18
   2  -1  26 2107.70 542.855  16
  -2  -1 -26 2753.87 953.148  18
   2  -1  27 1599.20 494.922  16
   2  -1  27 1633.75 372.020   7
   2   1  27 1692.55 354.548   7
   2   1  27 1984.35 494.685  16
  -2  -1 -27 1321.09 883.245  18
   2   1  27 1762.39 708.298   2
   2   1  27 2231.09 745.980   3
  -2   1 -27 2071.00 926.269  18
   2  -1  28 4664.86 596.255   7
   2   1  28 3890.78 519.107   7
   2   1  28 3854.63 1119.80   2
  -2   1 -28 3633.13 1141.30  18
   2  -1  28 5034.61 857.935  16
  -2  -1 -28 5054.47 1267.87  18
   2  -1  28 4314.82 1177.69   6
   2   1  28 3911.96 1060.16   3
   2   1  28 5464.50 814.995  16
   2   1  29 3933.54 981.503   3
   2  -1  29 3931.15 574.763  12
  -2   1 -29 3258.27 1109.55  18
   2   1  29 3234.01 487.410   7
   2   1  29 2554.55 950.829   2
  -2  -1 -29 4201.48 1158.27  18
   2  -1  29 4131.36 563.635   7
   2  -1  29 5065.99 831.515  16
   2  -1  29 3365.73 1081.64   6
   2   1  29 3872.94 705.505  16
   2  -1  30 4779.98 618.211  12
   2   1  30 3301.87 1096.91   2
   2   1  30 5650.53 852.763  16
  -2   1 -30 4873.16 1362.86  18
   2  -1  30 4744.44 600.131   7
   2  -1  30 5376.14 891.425  16
   2   1  30 4712.37 571.182   7
   2  -1  30 5060.90 1352.34   6
   2   1  30 4094.31 1058.86   3
  -2  -1 -30 6311.08 1534.19  18
   2  -1  31 44.4370 214.352   7
   2   1  31-84.2078 175.010   7
   2  -1  31 468.690 380.827  16
   2  -1  31-0.36349 181.131  12
   2   1  31 195.331 369.753  16
   2  -1  32 785.319 282.762  12
   2   1  32 464.399 296.366  16
   2  -1  32 918.970 296.905   7
   2   1  32 565.737 235.602   7
   2  -1  32 761.773 395.260  16
   2  -1  33 399.567 248.279  12
   2  -1  33 291.462 304.057  16
   2  -1  33 189.741 197.490   7
   2   1  33 299.792 188.157   7
   2   1  33 629.976 463.472  16
   2  -1  34 20409.4 1225.47  12
   2   1  34 21667.4 1674.05  16
   2  -1  34 21632.2 1742.72  16
   2  -1  34 18928.5 1181.52   7
   2  -1  35 1020.05 281.749  12
   2  -1  35 1003.64 306.784   7
   2  -1  35 1261.90 391.337  16
   2   1  35 1703.83 572.198  16
   2  -1  36 1451.89 334.731   7
   2  -1  36 2037.69 589.648  16
   2   1  36 1338.13 476.391  16
   2  -1  36 1618.96 385.302  12
   2  -1  37 120.414 215.122  12
   2  -1  37 23.9207 151.385   7
   2   1  37-84.8737 338.666  16
   2  -1  37-211.079 364.391  16
   2  -1  38 10613.8 812.419   7
   2   1  38 12257.5 1279.13  16
   2  -1  38 12348.6 1287.21  16
   2  -1  38 11332.8 860.769  12
   2  -1  39 7679.69 693.430   7
   2  -1  39 8554.63 713.072  12
   2   1  39 8962.10 1127.11  16
   2  -1  39 6867.88 1087.34  16
   2  -1  40 5506.61 539.915  12
   2  -1  40 5139.76 877.141  16
   2   1  40 5636.12 784.699  16
   2  -1  41 137.884 131.428  12
   2  -1  41-154.839 257.061  16
   2   1  41 129.818 307.247  16
   2  -1  42 3168.93 361.195  12
   2  -1  42 2953.23 582.114  16
   2   1  42 2468.85 563.410  16
   2  -1  43 552.938 159.654  12
   2  -1  43 795.513 352.640  16
   2  -1  44 3236.31 528.459  16
   2   1  44 3406.41 539.431  16
   2  -1  45 629.653 267.345  16
   2   1  45 350.385 245.472  16
   2  -1  46 2903.03 415.537  16
   2   1  46 2962.86 424.517  16
  -2  -2  46 239.555 120.847  12
   2  -2 -46 66.3756 128.673  14
  -2  -2  45 4107.81 401.125  12
  -2  -2  45 3215.90 427.374  16
   2   2 -45 4517.58 561.590  14
   2  -2 -45 4345.51 476.945  14
  -2  -2  44 1212.69 328.604  16
   2   2 -44 1763.72 365.693  14
   2  -2 -44 1407.73 294.297  14
  -2  -2  43 6000.07 700.688  16
   2  -2 -43 6076.58 646.187  14
   2   2 -43 5780.06 689.775  14
   2   2 -42 877.414 321.837  14
   2  -2 -42 879.396 308.135  14
  -2  -2  42 728.875 327.034  16
  -2   2  41 1436.34 377.430  16
   2  -2 -41 1758.92 423.944  14
  -2  -2  41 1275.18 323.903  16
   2   2 -41 1558.33 434.464  14
  -2  -2  40 7989.55 950.186  16
  -2   2  40 6740.48 793.302  16
   2  -2 -40 7892.18 820.258  14
   2   2 -40 8281.38 896.132  14
  -2  -2  39 2479.30 576.539  16
  -2   2  39 2545.28 524.881  16
   2  -2 -39 2983.31 536.496  14
   2   2 -39 2814.32 555.830  14
   2   2 -38 3538.65 621.832  14
  -2   2  38 2501.90 527.664  16
   2  -2 -38 3619.89 585.748  14
  -2  -2  38 3474.42 700.946  16
  -2   2  37 98.4294 293.650  16
  -2  -2  37 294.381 341.028  16
   2  -2 -37 363.751 319.331  14
   2   2 -37 153.089 239.603  14
   2   2 -36 5893.73 845.935  14
  -2  -2  36 6451.87 960.992  16
  -2   2  36 5525.64 784.014  16
   2  -2 -36 4214.17 1144.15  13
   2  -2 -36 5499.50 736.121  14
   2   2 -35 8637.29 981.107  14
   2  -2 -35 6850.30 1358.53  13
  -2  -2  35 8144.92 1065.24  16
  -2   2  35 7286.11 897.386  16
   2  -2 -35 7469.93 898.802  14
   2   2 -34 9894.41 1052.71  14
  -2  -2  34 9139.02 1161.55  16
  -2   2  34 8315.11 1012.66  16
   2  -2 -34 8217.50 925.546  14
  -2   2  33 27841.4 1783.60  16
   2   2 -33 35237.5 1977.13  14
  -2  -2  33 31957.1 2138.98  16
   2  -2 -33 33423.7 1843.97  14
   2  -2 -32 14082.4 1195.99  14
   2   2 -32 14570.7 1273.60  14
  -2   2  32 12701.1 1203.67  16
  -2  -2  32 15257.3 1473.43  16
  -2  -2  31 1068.56 468.073  16
  -2   2  31 648.530 277.366  16
   2   2 -31 804.655 306.392  14
   2  -2 -31 885.855 575.274  13
   2  -2 -31 1002.62 394.221  14
  -2   2  30 1918.96 518.076  16
   2  -2 -30 1798.04 784.969   5
  -2  -2  30 2832.68 696.812  16
  -2  -2  30 3125.52 1024.41   3
   2  -2 -30 50.0027 443.140  13
  -2   2  30 2527.80 875.607   3
   2  -2 -30 1741.89 474.455  14
   2   2 -30 1712.39 396.182  14
  -2   2  29 24369.9 2537.97   3
  -2  -2  29 23220.0 2464.88   3
   2  -2 -29 19028.1 1402.88  14
  -2   2  29 19238.0 1385.22  16
  -2  -2  29 22277.8 1746.55  16
   2   2 -29 23156.0 1532.76  14
   2  -2 -29 25143.9 2676.13   5
   2  -2 -29 16661.4 1758.24  13
   2  -2 -28 798.487 530.297   5
   2  -2 -28 533.993 510.511  13
   2  -2 -28 1257.99 671.822  18
  -2   2  28 395.264 442.360   3
   2   2 -28 964.544 358.310  14
  -2  -2  28 477.787 340.809  16
  -2   2  28 735.240 278.207  16
  -2  -2  28 654.535 590.629   3
  -2  -2  28 528.499 422.896   1
   2  -2 -27 3480.44 769.043  13
   2  -2 -27 2804.77 946.096   5
   2  -2 -27 2842.87 806.366  18
  -2   2  27 3138.45 942.976   3
  -2  -2  27 2931.52 915.089   1
  -2   2  27 3090.58 529.956  16
  -2  -2  27 3811.43 747.070  16
  -2  -2  27 2527.77 853.503   3
   2   2 -27 3318.22 564.572  14
  -2   2  26 42558.7 3189.31   3
  -2  -2  26 44277.8 3230.58   3
   2  -2 -26 40108.0 1843.10  15
  -2  -2  26 43745.3 3211.24   1
   2   2 -26 45693.9 2041.59  14
   2  -2 -26 35631.7 2936.46  18
   2  -2 -26 50860.7 3642.00   5
  -2  -2  26 43627.8 2346.32  16
   2  -2 -26 37142.5 2220.73  13
  -2  -2  25 16487.0 1909.62   3
   2  -2 -25 16096.4 1961.02  18
   2  -2 -25 17972.1 2115.09   5
  -2  -2  25 20104.1 1562.97  16
   2   2 -25 20730.2 1383.95  14
   2  -2 -25 16997.5 1059.43  10
   2  -2 -25 17185.9 1458.24  13
  -2  -2  25 16095.5 1919.58   1
  -2   2  25 17287.7 2032.03   3
   2  -2 -24 8346.05 1349.75  18
  -2   2  24 8643.50 1440.69   3
  -2  -2  24 8482.39 1349.84   3
  -2  -2  24 9389.70 1455.57   1
   2   2 -24 10084.1 932.621  14
  -2  -2  23 23212.4 2168.18   3
  -2   2  23 23045.1 2177.78   3
  -2  -2  23 20970.9 2082.61   1
   2  -2 -23 23236.4 2231.38  18
  -2  -2  22 3826.19 930.123   3
   2  -2 -22 3619.56 899.626  18
  -2  -2  22 2559.94 743.410   1
  -2   2  22 2553.19 680.032   3
  -2  -2  21 9776.59 1416.29   1
  -2  -2  21 10609.2 1438.62   3
   2  -2 -21 10270.1 1403.49  18
  -2   2  21 8983.45 1304.09   3
  -2  -2  20 39855.2 2694.62   1
   2  -2 -20 35864.7 2577.33  18
  -2   2  20 39435.2 2619.02   3
  -2  -2  20 41281.8 2688.97   3
   2   2 -20 40852.7 2224.84   5
  -2   2  19 3888.71 807.020   3
  -2  -2  19 3728.34 846.712   3
   2  -2 -19 3816.00 843.946  18
   2   2 -19 3594.06 679.951   5
  -2  -2  19 4142.61 918.278   1
  -2  -2  18 2639.54 723.093   1
  -2  -2  18 2586.77 658.396   3
  -2   2  18 1991.57 580.194   3
   2  -2 -18 2563.87 715.115  18
   2   2 -18 1943.81 520.326   5
  -2  -2  17 42243.7 2478.19   1
  -2  -2  17 43662.3 2506.39   3
  -2   2  17 37806.0 2361.35   3
   2  -2 -17 41673.3 2608.28  18
   2   2 -17 41095.8 2082.29   5
  -2   2  16 13501.7 1388.74   3
  -2  -2  16 13436.9 1360.14   1
  -2  -2  16 13300.8 1386.28   3
   2   2 -16 12917.4 1153.47   5
  -2  -2  15 28486.6 1921.55   1
  -2  -2  15 26300.4 1860.80   3
   2   2 -15 27167.5 1605.35   5
  -2   2  15 25263.7 1810.94   3
   2   2 -14 247379. 4693.89   5
  -2  -2  14 249925. 5541.59   3
   2  -2 -14 243277. 4834.17   4
  -2   2  14 249015. 5359.51   3
  -2  -2  14 248651. 5451.86   1
  -2  -2  13 46775.8 2321.05   1
   2   2 -13 45271.7 1966.99   5
  -2   2  13 44736.3 2231.93   3
   2  -2 -13 46588.2 2117.42   4
  -2  -2  13 46309.2 2310.38   3
  -2  -2  12 47342.3 2288.74   3
  -2  -2  12 51554.3 2354.48   1
   2  -2 -12 48409.1 2171.96   4
  -2   2  12 48151.6 2197.71   3
   2   2 -12 48090.9 1972.44   5
   2   2 -12 41904.9 2575.03  17
   2   2 -11 39222.0 2351.15   2
  -2   2  11 36985.5 1852.69   3
  -2  -2  11 30230.0 1801.49   1
   2   2 -11 31386.6 2191.79  17
   2  -2 -11 36929.8 1916.00   4
   2   2 -11 36237.0 1684.40   5
  -2   2  10 31427.6 1682.29   3
   2  -2 -10 33914.2 1826.16   4
   2   2 -10 34891.3 2113.75   2
  -2  -2  10 31460.2 1790.21   1
   2   2 -10 32755.6 1576.55   5
   2   2 -10 27713.6 2003.11  17
   2   2  -9 1363.34 466.743   2
  -2   2   9 966.821 284.750   2
  -2   2   9 1229.18 386.368   3
  -2  -2   9 1084.19 438.207   1
   2   2  -9 1177.71 325.366   5
   2  -2  -9 1280.61 475.267   4
   2   2  -9 991.519 416.916  17
   2  -2  -8-43.6946 274.584   5
   2   2  -8 55.7425 187.638   5
   2   2  -8-312.042 365.763   2
   2  -2  -8 279.098 232.619   4
  -2   2   8-0.82866 146.654   2
  -2   2   8-147.161 267.967   3
   2   2  -8 195.106 92.2178  18
  -2  -2   8 251.580 269.450   1
   2   2  -8 445.847 380.319  17
   2   2  -7 25345.2 1719.68  17
  -2   2   7 21841.3 1225.04   3
  -2   2   7 23472.8 1074.52   2
   2  -2  -7 24910.1 1576.00   4
   2   2  -7 24436.4 1311.16   5
   2  -2  -7 21465.6 697.025   1
  -2  -2   7 23832.0 1456.71   1
   2  -2  -7 26204.7 1479.05   5
   2   2  -7 22300.0 1717.05   2
   2  -2  -6 123123. 3450.19   4
   2  -2  -6 115370. 3059.19   6
   2   2  -6 111228. 3605.06   2
  -2  -2   6 116345. 3163.92   1
   2  -2  -6 123150. 3058.98   5
  -2   2   6 113087. 2167.16   2
   2   2  -6 114845. 2849.59   5
   2   2  -6 106026. 3375.92  17
  -2   2   6 112711. 2542.54   3
   2  -2  -5 34838.7 1845.18   4
   2   2  -5 33066.6 1922.25   2
   2  -2  -5 30639.2 692.217   1
  -2   2   5 30644.3 1310.48   3
   2  -2  -5 34062.6 1621.92   6
   2   2  -5 35873.4 1885.42  17
   2   2  -5 35505.7 1546.57   5
   2  -2  -5 34949.7 1564.63   5
  -2   2   5 33195.8 1075.71   2
  -2  -2   5 35178.4 1700.87   1
  -2  -2   4 92199.9 2725.02   1
   2  -2  -4 90056.3 2594.89   6
  -2   2   4 82712.4 2001.79   3
   2  -2  -4 82109.4 1115.42   1
  -2   2   4 86552.9 1569.80   2
   2   2  -4 90509.4 2840.19  17
   2  -2  -4 91725.7 2969.49   4
   2   2  -4 92299.4 3032.90   2
   2   2  -4 92647.4 2499.90   5
   2  -2  -4 91380.8 2370.14   5
   2  -2  -3 96392.1 3048.61   4
   2   2  -3 99373.3 3079.57   2
   2  -2  -3 92739.4 2600.37   6
   2  -2  -3 90658.4 1232.34   1
   2   2  -3 93833.5 2766.03  17
   2   2  -3 99687.3 2622.27   5
  -2   2   3 86392.6 1418.44   2
   2  -2  -3 95956.5 2335.16   5
  -2  -2   3 96165.2 2793.79   1
   2  -2  -2 152536. 3792.81   4
  -2  -2   2 149605. 3435.30   1
   2  -2  -2 143908. 1712.50   1
   2   2  -2 151794. 3367.11  17
   2   2  -2 158794. 3784.20   2
   2  -2  -2 150161. 2763.83   5
   2  -2  -2 146880. 3230.92   6
   2   2  -1 2907.66 464.140  17
  -2  -2   1 2744.26 497.660   1
  -2   2   1 2243.56 202.235   2
   2  -2  -1 2498.17 457.941   6
   2  -2  -1 2745.43 268.425   1
   2  -2  -1 2939.55 400.764   5
   2  -2  -1 3179.06 667.973   4
   2   2  -1 3107.94 566.754   2
   2  -2   0 32615.2 1769.77   4
   2  -2   0 31416.8 974.253   1
   2   2   0 36316.4 1759.70   2
   2  -2   0 32696.3 1534.80   6
  -2  -2   0 33107.7 1398.04  18
   2   2   0 35545.6 1495.23  17
   2  -2   0 32261.6 1150.99   5
  -2  -2   0 34459.5 1648.07   1
   2  -2   1 13490.6 1172.73   4
   2   2   1 13268.3 869.172  17
  -2  -2  -1 13189.2 898.745  18
   2  -2   1 13324.0 996.410   6
  -2  -2  -1 14244.4 1086.65   1
   2   2   1 14686.7 1126.59   2
   2  -2   1 12206.7 673.359   1
   2  -2   1 12907.8 693.472   5
   2  -2   2 16784.8 875.212   1
  -2  -2  -2 21375.2 1241.69  18
   2   2   2 20768.4 1322.86   2
   2   2   2 21941.5 1065.94  17
   2  -2   2 20424.6 1239.28   6
   2  -2   2 20431.7 1383.56   4
   2  -2   2 18607.2 763.916   5
   2  -2   3 10658.4 1027.84   4
   2   2   3 9065.65 654.171  17
   2  -2   3 9465.16 707.350   1
   2   2   3 7670.78 356.551   6
   2  -2   3 10484.7 918.728   6
  -2  -2  -3 9456.97 865.936  18
   2  -2   3 9326.97 512.355   5
   2   2   3 10815.9 989.452   2
   2  -2   4 24339.8 1413.90   6
   2  -2   4 24696.3 1551.55   4
   2   2   4 26091.0 1062.26  17
   2  -2   4 23488.4 692.630   3
   2  -2   4 21258.7 1118.35   1
   2   2   4 21578.6 711.585   6
   2   2   4 26049.5 1546.05   2
  -2  -2  -4 26528.6 1500.82  18
   2  -2   5 36882.2 1907.35   4
   2   2   5 35528.8 1045.15   6
   2   2   5 39564.6 1252.46  17
   2  -2   5 34343.8 1498.85   1
   2   2   5 40651.1 1972.08   2
   2  -2   5 35563.8 911.091   3
   2  -2   5 36377.1 1770.33   6
  -2  -2  -5 40589.1 1918.81  18
   2  -2   6 6822.22 829.889   4
   2  -2   6 5868.56 400.724   3
   2   2   6 7764.49 901.525   2
   2  -2   6 6527.86 782.381   6
   2   2   6 6568.33 510.409  17
  -2  -2  -6 7292.18 883.139  18
   2  -2   6 6278.96 669.330   1
   2   2   6 6055.15 495.478   6
   2   2   7 11519.7 655.545  17
   2   2   7 13851.6 809.526   6
  -2  -2  -7 13256.8 1215.64  18
   2  -2   7 12238.1 629.455   3
   2  -2   7 12800.6 1112.61   6
   2  -2   7 13170.7 1169.18   4
   2  -2   7 12811.1 995.662   1
   2   2   7 14236.2 1216.19   2
   2   2   8 287.457 306.826   2
   2  -2   8 178.202 293.208   4
  -2   2  -8 341.475 390.494  17
   2  -2   8 265.215 303.325   6
  -2  -2  -8-54.7329 321.574  18
   2  -2   8 217.094 248.753   1
   2  -2   8 263.500 151.986   3
  -2  -2  -9 76513.4 3091.55  18
   2  -2   9 73073.2 1772.83   3
   2  -2   9 75328.5 2602.78   1
  -2   2  -9 73673.3 2996.02  17
   2  -2   9 79875.6 2870.89   6
   2  -2   9 76295.0 2760.32   4
   2   2   9 84328.1 3082.02   2
   2  -2  10 4055.63 707.595   6
  -2   2 -10 3573.16 733.829  17
   2  -2  10 3798.75 441.065   3
  -2  -2 -10 3742.10 709.130  18
   2  -2  10 3426.14 606.148   4
   2   2  10 3933.45 739.274   2
   2  -2  10 4220.54 661.587   1
   2  -2  11 129587. 3885.62   6
   2  -2  11 119480. 2583.69   3
  -2   2 -11 112973. 3898.65  17
   2  -2  11 124634. 3525.73   4
   2   2  11 134557. 4062.96   2
  -2  -2 -11 118758. 4116.39  18
   2  -2  11 120333. 3567.52   1
   2  -2  12 4218.05 758.962   1
   2  -2  12 4405.18 757.546   6
   2  -2  12 4671.81 718.711   4
  -2   2 -12 3968.83 846.719  18
   2   2  12 5104.16 906.617   2
   2  -2  12 4414.46 520.797   3
  -2  -2 -12 4594.54 903.810  18
  -2   2 -12 3700.23 752.595  17
   2  -2  13 25199.4 1769.73   1
  -2  -2 -13 23028.4 1959.71  18
   2  -2  13 25091.4 1570.85   4
  -2   2 -13 23912.5 2013.03  18
   2  -2  13 24043.0 1272.10   3
  -2   2 -13 24007.2 1847.90  17
   2  -2  13 26524.0 1889.19   6
   2   2  13 27063.9 1959.36   2
   2  -2  14 27877.9 1936.52   1
  -2  -2 -14 25689.5 2105.60  18
   2  -2  14 27435.6 1424.30   3
   2  -2  14 29870.9 2016.12   6
  -2   2 -14 26760.2 2039.59  17
  -2   2 -14 26864.2 2196.33  18
   2   2  14 28406.4 2087.34   2
  -2   2 -15 14006.2 1669.84  18
   2   2  15 16264.7 1605.73   2
   2  -2  15 15489.1 1557.97   6
  -2  -2 -15 14592.6 1671.79  18
  -2   2 -15 13599.4 1484.26  17
  -2   2 -16 171.121 323.822  18
   2   2  16 272.081 274.505   2
   2  -2  16 575.251 361.043   6
  -2   2 -16 198.951 392.573  17
   2   2  16 66.1045 220.565   3
  -2  -2 -16-9.66620 438.074  18
  -2  -2 -17 3397.84 872.520  18
   2   2  17 1829.74 599.138   3
  -2   2 -17 3062.59 852.622  18
  -2   2 -17 3570.08 865.275  17
   2  -2  17 1717.39 613.052   6
   2   2  17 1673.91 677.182   2
  -2   2 -18 1919.81 701.985  18
  -2   2 -18 1781.10 646.225  17
   2   2  18 1476.91 483.993   3
  -2  -2 -18 2448.04 823.796  18
   2  -2  18 1187.91 553.334   6
   2   2  18 1514.16 643.049   2
  -2   2 -19 16636.9 1865.08  17
  -2  -2 -19 17338.1 2017.54  18
  -2   2 -19 16483.0 2000.13  18
   2  -2  19 17137.9 1813.50   6
   2   2  19 18563.3 1794.96   3
   2   2  19 18220.6 1891.38   2
  -2   2 -20 931.308 632.213  18
   2   2  20 132.807 415.632   2
  -2   2 -20 212.165 263.836  17
   2   2  20 268.663 298.096   3
   2  -2  20 599.840 471.216   6
  -2  -2 -20 481.001 512.798  18
  -2  -2 -21 11788.7 1766.88  18
   2   2  21 11875.0 1547.69   3
  -2   2 -21 10249.0 1567.66  17
   2  -2  21 13543.8 1722.45   6
   2   2  21 13403.2 1762.64   2
  -2   2 -21 11067.7 1700.11  18
   2   2  22 1898.73 677.102   3
   2   2  22 1735.80 713.556   2
  -2  -2 -22 1974.96 765.031  18
   2  -2  22 1961.15 705.320   6
  -2   2 -22 1555.92 817.296  18
   2  -2  23 74245.5 2184.10   7
   2  -2  23 73220.8 2856.57  16
  -2  -2 -23 71133.8 4481.80  18
  -2   2 -23 61590.8 4150.57  18
   2   2  23 67738.0 3810.54   3
   2  -2  23 68020.5 3950.19   6
   2   2  23 66267.0 4045.05   2
   2   2  23 67030.3 2378.19  16
   2  -2  24-23.5515 169.636   7
   2   2  24 57.0591 411.659   2
   2   2  24 522.316 232.630  16
  -2   2 -24 251.398 394.541  18
   2   2  24-85.7198 298.984   3
  -2  -2 -24-284.395 518.886  18
   2  -2  24 795.336 496.598   6
   2  -2  24 287.114 313.310  16
  -2  -2 -24 99.4627 444.481  13
   2   2  25 12791.5 1887.77   2
   2   2  25 10636.0 1598.24   3
  -2   2 -25 11804.5 1921.55  18
   2  -2  25 11287.5 1789.29   6
  -2  -2 -25 12772.8 2020.23  18
   2  -2  25 13929.7 1314.32  16
   2  -2  25 13479.8 986.014   7
   2   2  25 12836.5 1097.01  16
  -2  -2 -25 9057.68 1365.34  13
   2   2  26 1449.03 668.309   3
   2  -2  26 1698.72 370.118   7
   2   2  26 1499.79 802.672   2
   2  -2  26 1622.93 766.069   6
   2   2  26 2458.33 537.801  16
   2  -2  26 2237.90 571.300  16
   2  -2  26 2224.31 453.137  12
  -2   2 -26 1175.55 598.446  18
  -2  -2 -26 2073.24 755.996  18
  -2  -2 -26 3353.05 1014.39  13
   2  -2  27-185.708 225.137  12
   2  -2  27 278.777 417.962   6
   2  -2  27 173.315 250.639   7
   2   2  27 273.138 532.888   2
  -2  -2 -27 530.600 627.362  18
  -2  -2 -27 791.308 517.227  13
   2  -2  27 204.509 315.414  16
  -2   2 -27 166.986 473.923  18
   2   2  27 114.023 436.336   3
   2   2  27 462.972 351.927  16
   2  -2  28 2920.33 493.042  12
   2  -2  28 2224.73 593.478  16
   2  -2  28 2857.63 509.472   7
   2   2  28 2492.91 983.140   2
  -2  -2 -28 2369.10 985.061  18
  -2   2 -28 1858.96 789.748  18
   2   2  28 1963.58 510.285  16
   2  -2  28 2840.62 933.372   6
  -2  -2 -28 1731.01 795.377  13
   2  -2  29 142.111 193.110  12
   2  -2  29 21.8337 176.768   7
   2  -2  29 347.311 407.409  16
  -2  -2 -29 273.523 388.417  18
   2   2  29 176.406 286.788  16
   2  -2  29 234.256 522.624   6
  -2   2 -29-1045.72 794.497  18
  -2  -2 -29 29.4811 657.927  13
   2  -2  30 3306.11 550.031  12
   2   2  30 3756.28 696.552  16
  -2  -2 -30 2263.59 928.305  13
   2  -2  30 3094.29 527.860   7
   2  -2  30 3298.97 688.237  16
   2  -2  31 12543.4 977.167   7
   2  -2  31 12466.6 995.694  12
   2   2  31 12516.7 1254.20  16
   2  -2  31 13918.5 1415.44  16
   2  -2  32 354.157 256.438  12
   2   2  32-123.060 329.865  16
   2  -2  32 245.921 194.732   7
   2  -2  32 344.559 337.390  16
   2  -2  33 16274.9 1136.08  12
   2  -2  33 17632.4 1552.06  16
   2   2  33 15510.4 1393.27  16
   2  -2  33 15633.8 1098.97   7
   2  -2  34 19471.8 1219.67   7
   2  -2  34 21326.6 1274.88  12
   2  -2  34 22428.0 1766.45  16
   2   2  34 20147.2 1593.85  16
   2   2  35 3113.93 669.475  16
   2  -2  35 2170.78 438.087  12
   2  -2  35 2223.83 413.410   7
   2  -2  36-134.544 255.763  12
   2  -2  36 15.9748 337.015  16
   2  -2  36 283.473 219.175   7
   2   2  36 36.9295 341.988  16
   2  -2  37 492.651 259.556   7
   2  -2  37 431.235 384.159  16
   2  -2  37 706.511 273.787  12
   2   2  37 721.040 434.607  16
   2  -2  38 138.298 374.805  16
   2   2  38 427.103 333.312  16
   2  -2  38 451.878 211.117  12
   2  -2  39 253.644 381.975  16
   2   2  39-83.2772 298.188  16
   2  -2  39-2.39699 170.781  12
   2  -2  40-199.822 167.193  12
   2  -2  40 77.2042 314.878  16
   2   2  40-586.979 394.310  16
   2  -2  41 598.914 219.058  12
   2  -2  41 417.700 341.685  16
   2   2  41 593.883 380.818  16
   2   2  42 1480.72 425.856  16
   2  -2  42 1527.41 437.413  16
   2  -2  42 1141.87 263.456  12
   2   2  43 3130.42 497.415  16
   2  -2  43 3736.85 524.514  16
   2  -2  43 3850.54 374.850  12
   2  -2  44 265.413 192.162  16
   2   2  44 637.094 326.565  16
   2  -2  44-124.525 100.720  12
   2  -2  45 3744.28 435.931  16
   2   2  45 4511.98 503.931  16
  -2  -3  45 770.319 172.990  12
  -2  -3  44 1024.52 227.140  12
  -2  -3  44 545.065 207.338  16
   2   3 -44 836.797 333.902  14
   2  -3 -44 799.873 218.080  14
  -2  -3  43 230.957 173.405  12
   2  -3 -43 164.958 181.643  14
  -2  -3  43 92.2983 230.558  16
   2   3 -43 556.763 252.098  14
  -2  -3  42 2829.68 370.862  12
  -2  -3  42 2530.01 469.612  16
   2  -3 -42 3035.76 457.658  14
   2   3 -42 3024.08 562.267  14
  -2  -3  41 6615.42 761.460  16
   2  -3 -41 6861.62 673.551  14
   2   3 -41 7348.20 855.358  14
  -2  -3  40 7762.01 863.683  16
   2  -3 -40 7998.65 745.334  14
   2   3 -40 7618.20 875.297  14
   2   3 -39 12172.5 1131.01  14
  -2  -3  39 9869.94 1057.50  16
   2  -3 -39 10855.5 930.233  14
   2   3 -38 9486.72 1046.80  14
  -2  -3  38 8494.94 980.268  16
   2  -3 -38 9103.15 894.623  14
   2  -3 -38 6470.62 1264.15  13
  -2  -3  37 1342.17 384.054  16
   2   3 -37 2056.61 490.092  14
   2  -3 -37 1322.40 357.884  14
   2  -3 -37 727.040 725.894  13
   2  -3 -36 859.211 351.891  14
  -2  -3  36 850.765 444.163  16
   2  -3 -36 413.859 670.172  13
   2   3 -36 731.653 400.984  14
  -2  -3  35 4944.17 851.735  16
   2  -3 -35 5240.82 739.843  14
   2   3 -35 5287.21 809.034  14
   2   3 -34 477.969 405.609  14
   2  -3 -34 249.557 296.967  14
  -2  -3  34 171.426 340.735  16
   2  -3 -34-64.4627 562.228  13
   2   3 -33 5424.24 790.664  14
   2  -3 -33 5126.32 778.335  14
   2  -3 -33 4070.38 1038.64  13
  -2  -3  33 6022.17 949.540  16
   2   3 -32 15146.1 1385.05  14
  -2  -3  32 12934.1 1402.75  16
   2  -3 -32 12109.4 1162.51  14
   2  -3 -32 11852.5 1626.91  13
   2  -3 -31 43053.3 2891.51  13
  -2  -3  31 55256.1 2853.70  16
   2   3 -31 61031.1 2722.75  14
   2  -3 -31 38085.6 1995.04  14
   2  -3 -30 5085.46 975.215  13
   2  -3 -30 6509.28 809.100  15
   2   3 -30 8277.93 1005.53  14
  -2  -3  30 7725.56 1124.11  16
   2  -3 -29 12975.8 1129.10  15
  -2  -3  29 16666.3 1585.71  16
   2   3 -29 16226.6 1410.57  14
   2  -3 -29 11485.9 1401.76  13
   2  -3 -28-288.514 640.596   5
   2  -3 -28 154.594 344.949  13
  -2  -3  28 889.539 793.367   1
  -2  -3  28 155.313 419.634   3
  -2   3  28-144.866 472.668   2
  -2   3  28 143.263 439.540   3
   2  -3 -28 36.8111 182.596  10
  -2  -3  28 744.905 437.147  16
   2  -3 -28 324.038 322.345  15
   2   3 -28 180.324 303.888  14
  -2  -3  27 30665.0 2111.26  16
   2   3 -27 29723.2 1841.13  14
  -2   3  27 22160.1 2327.65   2
  -2  -3  27 26880.3 2624.40   3
  -2  -3  27 27369.5 2718.82   1
   2  -3 -27 31675.7 3030.31   5
   2  -3 -27 25217.9 1858.64  13
   2  -3 -27 25599.2 1394.58  10
  -2   3  27 25347.1 2572.78   3
   2  -3 -26 66283.5 2222.72  10
   2  -3 -26 81293.5 4754.79   5
   2   3 -26 77704.1 2917.80  14
  -2  -3  26 66420.6 4098.24   3
  -2   3  26 65242.0 4059.12   3
  -2  -3  26 75404.9 3233.65  16
   2  -3 -26 59538.1 2812.98  13
  -2   3  26 62053.6 3798.68   2
  -2  -3  26 70066.5 4368.55   1
   2  -3 -25 2763.66 877.749   5
  -2  -3  25 2205.24 796.321   3
  -2   3  25 3009.92 883.774   2
   2  -3 -25 2288.31 418.907  10
   2   3 -25 3237.57 583.725  14
  -2  -3  25 2158.77 712.382   1
   2  -3 -25 2997.00 630.710  13
  -2   3  25 2546.66 786.368   3
  -2  -3  25 3333.77 757.660  16
   2   3 -24 15574.6 1272.27  14
  -2  -3  24 14966.4 1885.42   3
   2  -3 -24 12818.4 989.570  10
   2  -3 -24 14112.1 1280.30  13
  -2   3  24 13944.2 1819.15   3
  -2  -3  24 16204.9 1477.97  16
  -2  -3  24 15323.6 1938.19   1
  -2   3  24 13319.9 1736.51   2
  -2   3  23 10484.6 1499.29   2
  -2  -3  23 12582.9 1665.03   3
  -2  -3  23 13645.6 1356.09  16
   2  -3 -23 12044.3 924.580  10
  -2   3  23 12047.8 1661.60   3
   2   3 -23 13130.1 1143.19  14
  -2  -3  23 13591.8 1822.04   1
   2  -3 -23 10493.9 1077.62  13
  -2   3  22 24535.3 2286.70   3
   2   3 -22 29960.4 1719.16  14
  -2  -3  22 29576.2 2607.28   1
   2  -3 -22 27164.5 1502.77  13
   2  -3 -22 24800.6 1304.64  10
  -2   3  22 22938.2 2177.17   2
  -2  -3  22 26289.5 2359.89   3
  -2  -3  22 30679.6 1956.10  16
  -2  -3  21 456.194 309.831   1
  -2   3  21 704.359 404.271   2
   2  -3 -21 461.691 228.682  13
   2   3 -21 651.990 321.869  14
  -2  -3  21 652.602 333.412   3
  -2  -3  21 536.564 306.444  16
  -2   3  21 443.967 398.556   3
  -2  -3  20 67639.4 3617.99   3
  -2  -3  20 64671.5 3717.96   1
  -2   3  20 66536.2 3538.83   3
  -2   3  20 63118.9 3257.09   2
  -2  -3  19 1163.04 574.855   3
  -2   3  19 749.425 392.122   2
  -2  -3  19 1026.30 575.216   1
  -2   3  19 814.616 417.542   3
  -2  -3  18 10101.9 1355.89   3
  -2   3  18 8383.05 1138.40   2
  -2   3  18 8673.37 1261.37   3
  -2  -3  18 9030.81 1335.50   1
  -2  -3  17 15367.0 1668.33   1
  -2  -3  17 16293.9 1686.31   3
  -2   3  17 15748.6 1622.45   3
   2  -3 -17 15617.1 1457.19   4
  -2   3  17 14704.0 1442.37   2
   2  -3 -16 2720.42 670.794   4
  -2   3  16 2381.63 594.494   2
  -2   3  16 1922.85 497.177   3
   2   3 -16 2511.91 844.652  17
  -2  -3  16 2052.74 587.127   3
  -2  -3  16 2232.87 703.232   1
  -2  -3  15 63442.5 3167.73   3
  -2  -3  15 64183.9 3265.59   1
   2   3 -15 57054.0 3707.83  17
  -2   3  15 61607.0 3004.65   3
   2  -3 -15 66006.6 3046.54   4
  -2   3  15 59970.9 2755.85   2
   2   3 -14 1405.22 655.116  17
  -2  -3  14 610.184 350.295   1
  -2   3  14 523.742 333.984   3
  -2   3  14 1295.04 413.035   2
   2  -3 -14 784.124 347.918   4
  -2  -3  14 1253.04 582.841   3
  -2  -3  13 1002.65 425.011   1
   2  -3 -13 511.856 243.145   4
  -2   3  13 1089.01 479.266   3
   2   3 -13 1041.41 615.150  17
  -2   3  13 834.972 381.308   2
   2   3 -12 4697.51 979.507   2
  -2  -3  12 4209.99 844.625   1
   2  -3 -12 4033.76 799.190   4
  -2   3  12 4244.35 732.596   3
  -2   3  12 3930.15 624.901   2
   2   3 -12 2432.63 780.992  17
  -2   3  11 27763.6 1613.00   2
   2  -3 -11 30293.4 2074.86   4
   2   3 -11 30946.0 2337.51   2
  -2  -3  11 29569.8 2028.40   1
   2   3 -11 28689.0 2322.22  17
  -2   3  11 28276.9 1798.42   3
  -2   3  10 1488.30 337.726   2
   2  -3 -10 1926.31 544.654   4
   2   3 -10 831.723 457.947  17
   2   3 -10 1995.34 722.400   2
   2   3 -10 1981.40 447.541   5
  -2   3  10 1340.79 389.449   3
  -2  -3  10 2096.33 538.890   1
   2  -3  -9 167946. 4802.37   4
   2   3  -9 159044. 5159.48  17
   2   3  -9 160920. 5219.15   2
  -2  -3   9 167098. 4616.17   1
  -2   3   9 166024. 3652.76   2
  -2  -3   8 52760.1 2573.93   1
   2   3  -8 50870.9 2919.51   2
   2   3  -8 48106.5 2741.72  17
   2  -3  -8 53844.7 2727.55   4
   2  -3  -8 52340.8 2334.82   5
  -2   3   8 52721.7 1951.64   2
   2  -3  -7 48576.1 2578.53   4
   2   3  -7 41276.4 2662.51   2
  -2  -3   7 48387.5 2453.93   1
   2   3  -7 41161.3 2507.97  17
   2  -3  -7 46508.2 2119.70   5
  -2   3   7 47163.8 1766.60   2
   2  -3  -6 27096.1 1947.09   4
  -2  -3   6 26154.4 1768.57   1
   2   3  -6 25612.4 2044.80   2
   2   3  -6 26321.6 1944.36  17
   2  -3  -6 26156.0 1493.81   5
  -2   3   6 26355.9 1258.84   2
   2   3  -5 9364.22 1193.18   2
   2  -3  -5 9595.92 963.235   6
   2   3  -5 10925.2 1234.41  17
   2  -3  -5 10391.2 1168.09   4
   2  -3  -5 9762.87 885.607   5
  -2   3   5 9529.08 734.871   2
  -2  -3   5 10178.2 1138.52   1
   2   3  -4 37704.4 2339.91   2
   2  -3  -4 40393.3 2335.19   4
  -2  -3   4 38644.8 2133.03   1
   2   3  -4 34950.6 2126.74  17
   2  -3  -4 37619.3 1875.61   6
   2  -3  -4 37419.4 1619.22   5
   2   3  -3 99783.2 3754.71   2
   2  -3  -3 103097. 3733.69   4
   2   3  -3 90727.3 3282.56  17
   2  -3  -3 95039.3 2947.27   6
  -2  -3   3 103676. 3413.95   1
   2  -3  -3 95441.4 2417.49   5
   2   3  -2 133608. 4141.91   2
   2  -3  -2 131828. 4249.18   4
   2   3  -2 124220. 3729.68  17
   2  -3  -2 135245. 2575.45   1
   2  -3  -2 123915. 2592.77   5
   2  -3  -2 123316. 3328.79   6
  -2  -3   2 130828. 3848.87   1
   2   3  -1 68323.6 2692.98  17
   2  -3  -1 76455.7 2022.21   1
  -2  -3   1 74520.3 2923.02   1
   2  -3  -1 71183.3 2505.26   6
   2  -3  -1 69880.2 1788.67   5
   2  -3  -1 73354.3 3193.66   4
   2   3  -1 78072.0 3109.85   2
   2   3   0 21791.9 1691.90   2
   2  -3   0 20376.1 1349.59   6
   2  -3   0 20378.4 1706.79   4
   2  -3   0 20993.7 1104.82   1
   2   3   0 24869.9 1593.76  17
  -2  -3   0 21344.0 1602.36   1
   2  -3   1 14968.8 1477.15   4
   2   3   1 14852.3 1220.26  17
   2   3   1 15793.5 1449.01   2
   2  -3   1 14798.1 956.512   1
   2  -3   1 13934.1 1133.16   6
  -2  -3  -1 14272.2 1343.86   1
   2   3   2 171121. 4600.92   2
   2   3   2 159212. 3838.35  17
   2  -3   2 155427. 3797.58   6
   2  -3   2 164733. 3304.42   1
  -2  -3  -2 170027. 4423.50   1
   2  -3   2 157774. 4617.67   4
   2  -3   3 39951.1 1739.08   1
   2  -3   3 39156.3 1987.67   6
   2  -3   3 39367.3 2370.19   4
   2   3   3 38472.2 1864.56  17
  -2  -3  -3 42018.0 2254.90   1
  -2  -3  -3 37700.6 1960.99  18
   2   3   3 43994.7 2345.21   2
   2  -3   4 102208. 3725.55   4
  -2  -3  -4 110348. 3476.15  18
   2   3   4 108330. 3061.69  17
   2  -3   4 102238. 2812.88   1
  -2  -3  -4 101711. 3515.04   1
   2  -3   4 98233.2 3087.21   6
   2   3   4 110215. 3651.23   2
   2  -3   5 12147.3 1315.49   4
   2   3   5 11588.8 992.351  17
   2  -3   5 11544.8 1123.05   6
  -2  -3  -5 11140.5 1159.25  18
   2  -3   5 11872.6 1017.84   1
   2   3   5 12500.2 1299.85   2
   2  -3   6 99248.0 3726.14   4
  -2  -3  -6 98503.0 3514.81  18
   2   3   6 96571.5 2811.10  17
   2  -3   6 93667.4 3132.35   6
   2  -3   6 94814.4 2955.90   1
   2   3   6 106869. 3716.71   2
   2  -3   7 1810.92 536.410   6
  -2  -3  -7 1086.06 390.486  18
   2  -3   7 2053.16 630.619   4
   2   3   7 2328.06 643.004   2
  -2   3  -7 1106.49 493.632  17
   2  -3   7 2248.40 518.971   1
   2  -3   8 29156.5 2021.51   4
   2  -3   8 27333.6 1799.72   6
  -2  -3  -8 27237.6 1977.91  18
   2  -3   8 27633.7 1698.12   1
  -2   3  -8 27685.5 2149.19  17
   2   3   8 31086.5 2104.18   2
   2  -3   9 23341.5 1819.82   4
   2  -3   9 22556.9 1652.42   6
  -2   3  -9 26021.8 2137.36  17
  -2  -3  -9 26670.3 2020.78  18
   2   3   9 25688.2 1945.94   2
   2  -3   9 23279.2 1626.60   1
   2  -3  10 2851.58 601.825   6
  -2   3 -10 3449.58 850.993  17
   2   3  10 3776.19 783.217   2
  -2  -3 -10 2940.45 674.283  18
   2  -3  10 2882.79 665.320   4
   2  -3  10 3266.32 695.344   1
   2  -3  11 74127.9 3257.01   4
  -2  -3 -11 67614.2 3398.39  18
  -2   3 -11 66390.8 3494.50  17
   2  -3  11 67490.5 3031.71   1
   2  -3  11 67540.7 2997.45   6
   2  -3  12 17006.4 1562.86   4
  -2  -3 -12 15891.5 1659.99  18
  -2   3 -12 15443.5 1713.02  17
   2  -3  12 15930.4 1544.53   6
   2   3  12 18989.6 1808.84   2
   2  -3  12 16333.4 1518.62   1
   2  -3  13 12614.8 1373.25   6
   2  -3  13 12954.3 1399.81   4
  -2   3 -13 11448.4 1537.71  17
   2  -3  13 12130.6 1375.84   1
  -2  -3 -13 11951.2 1526.63  18
   2   3  13 14529.9 1634.87   2
   2  -3  14 6440.96 981.183   4
  -2   3 -14 7561.12 1287.15  18
  -2   3 -14 7551.00 1280.54  17
   2  -3  14 5979.56 1021.53   1
  -2  -3 -14 7294.41 1302.13  18
   2  -3  14 6475.72 1018.58   6
   2   3  14 8362.81 1270.52   2
  -2   3 -15 158.595 368.425  18
   2  -3  15 67.4753 318.412   1
   2  -3  15 165.931 246.109   4
  -2  -3 -15 22.9799 414.049  18
  -2   3 -15 346.711 347.115  17
   2   3  15 178.473 450.715   2
   2  -3  15-307.396 279.750   6
  -2   3 -16 28732.3 2620.75  18
  -2   3 -16 31121.9 2646.31  17
   2  -3  16 31757.1 2328.47   6
  -2  -3 -16 30897.8 2646.38  18
   2   3  16 34650.9 2622.09   2
   2  -3  16 31395.0 2344.88   1
   2   3  17 16138.3 1819.98   2
  -2  -3 -17 12725.6 1718.33  18
  -2   3 -17 13312.3 1817.73  18
   2  -3  17 12296.4 1577.20   1
   2  -3  17 14612.8 1630.30   6
  -2   3 -17 13766.6 1844.82  17
   2  -3  18 514.469 445.534   1
  -2  -3 -18 2931.12 915.573  18
  -2   3 -18 2302.58 759.695  18
  -2   3 -18 1843.63 683.386  17
   2   3  18 531.393 469.226   2
   2  -3  18 763.756 404.084   6
  -2  -3 -19 2668.07 921.756  18
  -2   3 -19 1888.81 836.394  17
   2  -3  19 3956.66 915.059   6
   2   3  19 2727.54 467.104  16
   2  -3  19 3674.74 504.409   7
  -2   3 -19 2813.14 868.604  18
   2   3  19 3924.97 961.464   2
   2  -3  20 2542.32 772.604   6
   2   3  20 1443.68 376.360  16
   2  -3  20 1268.40 336.137  12
  -2   3 -20 1298.91 737.542  17
   2  -3  20 1608.59 366.341   7
  -2   3 -20 1369.97 753.539  18
  -2  -3 -20 1248.75 673.398  18
   2   3  20 2109.45 695.683   2
   2  -3  20 1275.55 462.962  16
  -2  -3 -21 548.155 349.465  13
   2  -3  21 896.237 258.104   8
   2  -3  21 1057.12 356.193  16
   2  -3  21 1034.82 304.749  12
  -2   3 -21 818.510 509.218  18
   2   3  21 1369.68 397.059  16
  -2  -3 -21 1138.99 527.245  18
   2   3  21 840.645 586.830   2
   2  -3  21 958.378 322.137   7
   2  -3  21 807.359 516.789   6
  -2   3 -21 1098.50 504.035  17
   2  -3  22 19532.9 1193.93  12
  -2   3 -22 16069.6 2151.89  18
  -2   3 -22 19636.3 2433.57  17
  -2  -3 -22 19031.9 2401.65  18
   2  -3  22 24677.5 1330.01   7
   2  -3  22 21887.6 1649.76  16
   2   3  22 20076.2 1319.14  16
  -2  -3 -22 18245.7 1608.50  13
   2  -3  22 22816.0 1232.13   8
   2   3  22 23380.5 2376.62   2
   2  -3  22 20002.3 2156.24   6
   2  -3  23 10416.5 867.827  12
  -2  -3 -23 11219.2 1896.58  18
   2  -3  23 11606.0 942.840   7
  -2   3 -23 9119.15 1705.77  18
  -2   3 -23 9420.98 1676.55  17
   2  -3  23 12492.2 1274.17  16
   2   3  23 10903.3 1012.60  16
   2  -3  23 12322.7 910.985   8
   2  -3  23 10265.8 1571.00   6
  -2  -3 -23 8738.18 1136.24  13
   2   3  23 11685.2 1733.34   2
  -2  -3 -24 135.224 319.381  13
   2  -3  24 443.413 338.896  16
   2  -3  24 162.149 180.646  12
   2   3  24 251.504 475.876   2
   2  -3  24 190.976 197.171   7
   2  -3  24 30.4713 433.781   6
  -2   3 -24 52.2845 426.378  18
  -2  -3 -24 13.7536 568.243  18
   2   3  24 176.358 245.976  16
   2  -3  25 3971.36 606.451   7
   2  -3  25 3174.08 921.272   6
   2   3  25 4161.43 680.076  16
   2   3  25 3202.08 1072.94   2
  -2  -3 -25 4924.36 1346.96  18
  -2  -3 -25 2234.10 745.985  13
   2  -3  25 4016.47 758.761  16
   2  -3  25 3433.20 547.813  12
  -2   3 -25 2759.00 1039.78  18
   2  -3  26 2171.06 474.091  12
   2  -3  26 3074.39 553.268   7
   2   3  26 1662.41 866.379   2
  -2   3 -26 2295.83 926.594  18
   2  -3  26 1670.95 626.089   6
   2   3  26 2442.79 559.829  16
  -2  -3 -26 2311.47 977.552  18
   2  -3  26 2226.03 618.966  16
  -2  -3 -26 1283.61 627.476  13
  -2   3 -27 4753.25 1380.74  18
   2  -3  27 5526.33 678.121  12
   2  -3  27 5266.22 675.379   7
   2   3  27 4745.77 716.601  16
   2  -3  27 7035.48 1011.09  16
  -2  -3 -27 3533.51 963.821  13
   2   3  28 8390.06 999.820  16
   2  -3  28 8600.57 864.966   7
   2  -3  28 9558.35 888.445  12
   2  -3  28 8517.34 1133.45  16
  -2  -3 -28 7164.81 1372.04  13
   2  -3  29 15182.9 1125.05  12
   2   3  29 14998.8 1319.25  16
   2  -3  29 15213.4 1475.92  16
  -2  -3 -29 11888.0 1742.37  13
   2  -3  29 14258.5 1094.13   7
   2  -3  30 1019.95 342.404  12
   2  -3  30 1069.12 337.540   7
   2  -3  30 1437.82 522.692  16
   2   3  30 1151.15 447.147  16
  -2  -3 -30 889.097 635.059  13
   2  -3  31 7833.86 1055.64  16
   2  -3  31 8557.93 868.192   7
  -2  -3 -31 5775.21 1433.15  13
   2   3  31 9020.01 1059.63  16
   2  -3  31 9282.95 852.224  12
   2  -3  32 14607.4 1437.52  16
   2  -3  32 16430.0 1140.67  12
   2   3  32 15241.8 1345.37  16
  -2  -3 -32 12344.9 1847.99  13
   2  -3  32 15714.8 1117.33   7
   2  -3  33 614.033 269.402  12
   2   3  33 333.888 374.341  16
   2  -3  33-311.471 449.457  16
   2   3  34 2145.91 686.733  16
   2  -3  34 4434.55 620.433  12
   2  -3  34 3783.90 768.809  16
   2   3  35 450.655 286.524  16
   2  -3  35 639.858 367.011  16
   2  -3  35 428.246 302.458  12
   2  -3  36 16366.6 1041.32  12
   2  -3  36 15650.8 1386.86  16
   2   3  36 14701.9 1314.45  16
   2  -3  37 2975.38 449.493  12
   2   3  37 3075.37 573.184  16
   2  -3  37 3282.78 621.414  16
   2  -3  38 12354.0 1183.56  16
   2   3  38 14751.9 1197.93  16
   2  -3  38 15019.6 944.205  12
   2  -3  39 146.154 155.130  12
   2   3  39 648.145 352.486  16
   2  -3  39 591.351 348.824  16
   2   3  40 10763.2 1000.42  16
   2  -3  40 10602.4 917.993  16
   2  -3  40 12094.8 755.415  12
   2  -3  41 1103.21 237.112  12
   2  -3  41 1348.43 350.831  16
   2   3  41 1508.35 427.765  16
   2  -3  42 6196.51 474.746  12
   2   3  42 6585.34 693.841  16
   2  -3  42 5204.45 566.797  16
   2  -3  43 1319.38 279.313  16
   2  -3  43 1488.54 212.783  12
  -2  -4  42 3691.17 340.104  12
   2  -4 -42 4039.48 419.878  14
   2   4 -42 3386.87 517.703  14
  -2  -4  41 311.241 120.557  12
   2  -4 -41 259.160 165.643  14
   2   4 -41 358.198 271.394  14
  -2  -4  40 2270.48 315.626  12
   2  -4 -40 3005.48 440.955  14
   2   4 -40 2569.78 559.009  14
   2   4 -39 76.5798 284.041  14
  -2  -4  39 166.322 208.850  12
  -2  -4  39 362.620 324.079  16
   2  -4 -39 445.398 256.452  14
   2  -4 -38 3305.32 499.168  14
   2   4 -38 2521.74 564.514  14
  -2  -4  38 2451.44 364.236  12
   2  -4 -38 1502.38 675.613  13
  -2  -4  38 2798.32 540.724  16
  -2  -4  37 76.7887 292.185  16
   2   4 -37 94.2844 281.922  14
   2  -4 -37 759.642 310.682  14
   2  -4 -37-293.544 592.672  13
  -2  -4  36 2056.75 483.663  16
   2   4 -36 2508.40 651.278  14
   2  -4 -36 2041.62 428.407  14
   2  -4 -36 1674.23 806.644  13
   2  -4 -35 4106.80 661.800  14
   2   4 -35 3056.01 657.737  14
  -2  -4  35 3421.91 652.666  16
   2  -4 -35 3357.14 1073.15  13
  -2  -4  34 9912.83 1151.05  16
   2   4 -34 12663.6 1341.80  14
   2  -4 -34 10466.5 1010.74  14
   2  -4 -33 1586.58 741.684  13
  -2  -4  33 1839.24 602.296  16
   2   4 -33 2676.94 663.198  14
   2  -4 -33 1634.26 444.192  14
   2  -4 -32 1568.64 766.907  13
  -2  -4  32 2322.76 676.699  16
   2  -4 -32 2281.98 482.404  15
   2   4 -32 2668.81 652.599  14
   2  -4 -31-97.2918 450.063  13
  -2  -4  31 168.765 388.092  16
   2  -4 -31 388.466 269.962  15
   2   4 -31 165.475 305.545  14
   2  -4 -30-507.062 430.918  13
  -2  -4  30 154.179 170.646  10
  -2  -4  30 106.912 414.768  16
   2   4 -30-28.1455 441.427  14
   2  -4 -30 311.773 354.198  15
  -2  -4  29 1009.10 567.541  16
   2  -4 -29 1334.82 572.479  13
   2   4 -29 848.910 448.631  14
   2  -4 -29 792.053 314.094  10
   2   4 -28 9995.92 1287.06  14
   2  -4 -28 8259.89 842.026  10
  -2  -4  28 9339.77 1152.13  16
   2  -4 -28 8152.31 1109.23  13
   2  -4 -27 340.380 351.881  13
   2  -4 -27 171.229 209.901  10
  -2  -4  27-285.296 365.476  16
   2   4 -27-134.032 297.969  14
   2  -4 -26 4417.96 623.506  10
   2  -4 -26 3773.32 717.001  13
  -2  -4  26 5032.62 930.893  16
   2   4 -26 5572.26 925.958  14
   2  -4 -25 3266.54 670.132  13
   2  -4 -25 3522.04 540.832  10
   2   4 -25 3896.28 771.348  14
  -2  -4  25 4530.69 863.349  16
  -2  -4  24 9629.88 1576.18   3
   2   4 -24 9861.10 1175.17  14
  -2  -4  24 8841.49 1164.90  16
   2  -4 -24 9650.86 870.566  10
   2  -4 -24 10943.7 1766.70   5
   2  -4 -24 9387.85 1004.43  13
  -2  -4  24 8802.20 1569.85   1
   2  -4 -23 1960.88 790.681   5
   2  -4 -23 1385.82 421.031  13
  -2  -4  23 1340.59 653.247   1
   2  -4 -23 1481.36 385.976  10
  -2  -4  23 1377.56 646.153   3
  -2  -4  23 1790.77 522.963  16
   2   4 -23 1912.90 548.042  14
   2  -4 -22 5758.12 1273.81   5
   2  -4 -22 5901.56 692.934  10
  -2  -4  22 4910.81 1190.00   1
  -2  -4  22 6078.83 936.585  16
  -2  -4  22 5377.12 1175.11   3
   2   4 -22 6182.74 945.315  14
   2  -4 -22 4851.57 758.423  13
   2  -4 -21 2851.17 848.685   5
   2  -4 -21 3273.85 549.170  13
  -2  -4  21 4299.32 802.089  16
  -2  -4  21 2837.30 947.061   3
   2  -4 -21 2776.21 472.955  10
  -2  -4  21 3148.40 996.332   1
   2   4 -21 4082.20 798.866  14
   2  -4 -20 500.195 294.236  13
  -2  -4  20 440.319 294.939  16
   2  -4 -20 502.259 235.339  10
  -2  -4  20 530.218 414.216   3
   2  -4 -20 743.853 616.946   5
  -2  -4  20 924.853 602.227   1
   2   4 -20 522.810 283.784  14
   2  -4 -19 4098.44 1031.85   5
  -2  -4  19 4887.71 868.417  16
  -2  -4  19 3033.26 955.062   1
   2  -4 -19 4006.15 573.354  10
  -2  -4  19 3589.82 955.944   3
   2   4 -19 4903.64 824.908  14
   2  -4 -19 3518.28 544.508  13
   2  -4 -18 5561.55 1146.08   5
   2  -4 -18 5902.55 659.999  10
  -2  -4  18 5491.99 1090.22   3
  -2  -4  18 8413.33 1059.16  16
  -2  -4  18 5631.14 1175.77   1
   2   4 -18 7477.86 995.157  14
   2  -4 -18 6682.66 727.080  13
   2  -4 -17 14888.6 1026.58  10
  -2  -4  17 14262.3 1727.23   3
   2  -4 -17 14071.8 983.504  13
   2   4 -17 11794.5 1969.34  17
  -2  -4  17 14576.3 1829.38   1
  -2  -4  17 17842.6 1507.37  16
   2   4 -17 17423.0 1480.87  14
   2  -4 -17 14160.2 1725.12   5
  -2  -4  16 38544.2 2752.63   3
   2  -4 -16 40382.8 1640.77  10
  -2  -4  16 50639.6 2495.63  16
   2  -4 -16 40365.2 2765.44   4
   2   4 -16 49826.5 2465.06  14
   2   4 -16 36460.0 3325.27  17
  -2  -4  16 40156.0 2892.92   1
   2  -4 -16 37650.9 2726.09   5
   2  -4 -16 40162.3 1608.86  13
   2  -4 -15 93340.7 4232.27   4
   2   4 -15 105945. 3528.41  14
  -2  -4  15 95569.9 4414.83   1
   2  -4 -15 85098.2 2288.81  13
   2   4 -15 74656.6 4598.99  17
  -2  -4  15 90056.5 4096.29   3
  -2  -4  15 111330. 3634.57  16
   2  -4 -15 92731.3 2435.14  10
   2  -4 -15 89341.6 4103.26   5
   2  -4 -14 21447.0 2022.95   4
  -2  -4  14 19796.2 1933.40   3
  -2  -4  14 21403.4 2053.10   1
   2  -4 -14 20601.2 1900.59   5
   2   4 -14 20961.6 2402.38  17
   2  -4 -13 287.829 287.601   5
  -2  -4  13 241.973 289.205   1
   2  -4 -13 418.371 304.521   4
   2   4 -13 1076.73 684.763  17
   2  -4 -12 59419.7 3387.61   4
  -2  -4  12 60705.2 3346.82   1
   2   4 -12 68119.0 3782.27   2
   2   4 -12 59421.9 3845.79  17
   2  -4 -12 57698.6 2996.23   5
   2  -4 -11 10419.1 1470.07   4
   2   4 -11 10855.4 1581.77   2
   2   4 -11 9473.08 1521.76  17
  -2  -4  11 10811.6 1412.25   1
   2  -4 -11 10082.2 1180.00   5
   2  -4 -10 44178.3 2928.20   4
  -2  -4  10 43642.2 2745.17   1
   2  -4 -10 43385.8 2396.84   5
   2   4 -10 47316.6 3307.26  17
   2   4 -10 43323.7 3162.39   2
   2  -4  -9 25795.6 2244.34   4
  -2  -4   9 27432.5 2172.26   1
   2   4  -9 26133.5 2399.05   2
   2   4  -9 23289.4 2277.09  17
   2  -4  -8 3509.26 886.142   4
  -2  -4   8 3826.88 861.074   1
   2   4  -8 4339.82 969.272  17
   2   4  -8 3559.62 991.122   2
  -2  -4   7 5906.77 1080.12   1
   2   4  -7 4484.04 977.808  17
   2   4  -7 4581.05 1070.79   2
   2  -4  -7 5017.87 1039.59   4
   2  -4  -6 65916.0 3550.76   4
   2   4  -6 61030.8 3627.69   2
  -2  -4   6 65724.4 3235.19   1
   2   4  -6 63921.2 3509.09  17
   2   4  -5 48211.4 3128.29   2
  -2  -4   5 53385.4 2902.46   1
   2   4  -5 45852.8 2906.27  17
   2  -4  -5 50545.6 3146.79   4
  -2  -4   4 23401.6 1965.80   1
   2   4  -4 21567.2 2158.98   2
   2   4  -4 21056.0 1941.98  17
   2  -4  -4 22314.1 2081.23   4
  -2  -4   3 39112.8 2448.66   1
   2   4  -3 37069.6 2691.63   2
   2   4  -3 33287.4 2378.10  17
   2  -4  -3 39843.2 2757.17   4
   2  -4  -2 823.725 580.378   4
  -2  -4   2 1289.71 599.143   1
   2   4  -2 643.258 435.301  17
   2   4  -2 737.999 497.646   2
   2  -4  -2 1009.40 571.554   6
   2   4  -1 12580.8 1517.85   2
   2  -4  -1 11132.5 1085.51   6
   2   4  -1 11202.3 1327.73  17
  -2  -4   1 13114.8 1392.87   1
   2  -4  -1 11965.4 1538.42   4
  -2  -4   0 7910.04 1257.93   1
   2   4   0 6810.27 1196.39   2
   2  -4   0 5944.36 1086.68   4
   2  -4   0 5493.67 801.964   6
   2   4   0 6758.07 1036.07  17
   2   4   1 24877.7 2073.79   2
   2   4   1 17169.9 1582.30  17
   2  -4   1 22848.2 1568.84   6
   2  -4   1 21625.7 2023.55   4
  -2  -4  -1 24400.1 1973.50   1
   2   4   2 16006.8 1666.18   2
   2  -4   2 13929.4 1676.83   4
   2  -4   2 14420.9 1282.08   6
   2   4   2 13694.6 1380.44  17
  -2  -4  -2 15201.4 1559.55   1
  -2  -4  -3 1169.52 815.901   1
   2   4   3 991.247 801.469   2
   2  -4   3 1072.19 482.211   6
   2  -4   3 731.539 533.109   4
   2   4   3 864.135 430.903  17
   2   4   4 62970.9 3242.90   2
   2  -4   4 54511.2 3242.41   4
  -2  -4  -4 61273.9 3100.99   1
   2  -4   4 56828.7 2516.83   6
  -2  -4  -5 3043.30 867.123   1
   2   4   5 2041.77 736.780   2
   2  -4   5 2348.05 655.201   6
  -2   4  -5 1329.11 641.785  17
   2  -4   5 2131.73 702.268   4
   2   4   6 18230.8 1829.83   2
   2  -4   6 17315.1 1844.26   4
   2  -4   6 16677.3 1388.57   6
  -2   4  -6 19876.3 2085.64  17
  -2  -4  -6 19769.2 1817.38   1
   2  -4   7 25103.2 2202.49   4
   2  -4   7 24565.1 1757.53   6
   2  -4   7 24513.8 1764.32   1
  -2   4  -7 22216.7 2264.85  17
  -2  -4  -7 27000.5 2127.88   1
   2   4   7 27708.5 2230.21   2
   2  -4   8 22534.9 2081.40   4
  -2   4  -8 19348.3 2111.64  17
   2  -4   8 21904.5 1677.43   6
   2  -4   8 21016.7 1686.76   1
  -2  -4  -8 23296.0 2047.48   1
   2   4   8 23536.6 2039.73   2
  -2  -4  -9 6323.17 1078.24   1
   2   4   9 5831.40 1054.71   2
   2  -4   9 5209.88 851.704   6
  -2   4  -9 6226.01 1219.74  17
   2  -4   9 5377.49 886.016   1
   2  -4   9 6111.16 1055.47   4
  -2  -4 -10 1027.61 479.520   1
   2  -4  10 987.922 423.541   1
   2   4  10 1500.69 686.470   2
  -2   4 -10 1538.19 651.691  17
   2  -4  10 1062.65 425.096   6
   2  -4  10 1313.07 525.181   4
  -2  -4 -11 5176.06 1074.01   1
   2  -4  11 4775.86 1026.94   4
   2  -4  11 3887.61 779.686   1
   2   4  11 4247.28 973.458   2
  -2   4 -11 3315.41 908.565  17
   2  -4  11 3978.85 779.003   6
  -2  -4 -11 3845.89 921.437  18
   2  -4  12 21280.6 2038.69   4
  -2   4 -12 21461.6 2321.42  17
   2  -4  12 21567.7 1897.39   1
   2  -4  12 19901.5 1772.96   6
  -2  -4 -12 21439.2 2158.20  18
   2   4  12 23440.7 2202.80   2
   2  -4  13 22500.7 1863.02   6
   2  -4  13 24887.6 2192.18   4
  -2   4 -13 20146.7 2291.89  17
   2   4  13 22223.0 1212.81  16
   2   4  13 26905.8 2407.18   2
  -2  -4 -13 19547.6 2062.77  18
   2  -4  13 23137.0 1287.24   8
   2  -4  13 23336.6 2018.66   1
  -2   4 -14 580.754 634.705  17
   2  -4  14 164.243 342.729   4
   2   4  14 242.376 393.235   2
   2  -4  14-394.003 449.611   1
   2  -4  14 194.979 248.568   8
   2   4  14 521.864 254.457  16
   2  -4  14-27.4132 352.834   6
  -2  -4 -14-382.392 449.203  18
   2  -4  15 15106.9 1005.37   7
  -2   4 -15 12930.7 1905.57  17
   2   4  15 14464.7 1030.87  16
   2  -4  15 15651.7 1623.24   6
  -2  -4 -15 12356.8 1787.79  18
   2  -4  15 16470.6 1123.05   8
   2  -4  15 14241.3 918.622  12
   2   4  15 17642.5 2047.66   2
   2  -4  15 16093.5 1320.74  16
  -2   4 -15 11992.0 1876.24  18
   2  -4  15 15610.6 1775.81   1
   2  -4  16 22933.2 1183.31  12
  -2  -4 -16 22067.8 2392.46  18
  -2   4 -16 22540.7 2546.01  17
   2  -4  16 22934.2 1263.87   7
  -2   4 -16 21130.7 2443.89  18
   2  -4  16 24528.8 2056.56   6
   2   4  16 25194.5 1382.00  16
   2   4  16 27428.6 2545.57   2
   2  -4  16 28981.5 1800.41  16
   2  -4  16 27353.1 1437.69   8
   2  -4  16 26464.7 2308.84   1
  -2   4 -17 16876.8 2289.67  17
   2  -4  17 18868.7 1127.54   7
   2  -4  17 17574.0 1067.68  12
  -2   4 -17 16235.8 2159.70  18
   2  -4  17 20753.9 1542.64  16
  -2  -4 -17 15246.4 2030.10  18
  -2  -4 -17 18885.5 1280.67  13
   2   4  17 19085.8 1223.42  16
   2  -4  17 17554.7 1773.39   6
   2  -4  17 20097.0 1245.51   8
   2  -4  17 19711.6 2014.46   1
   2   4  17 20924.3 2297.89   2
   2  -4  18 57049.2 3554.66   1
   2  -4  18 55724.4 2004.85   7
   2   4  18 62762.3 2253.18  16
  -2  -4 -18 54268.3 3912.69  18
  -2   4 -18 58651.8 4249.82  17
   2  -4  18 66325.2 2824.83  16
   2  -4  18 55294.6 1920.49  12
  -2   4 -18 51256.7 3893.93  18
   2   4  18 59081.0 3941.69   2
  -2  -4 -18 59768.6 2488.52  13
   2  -4  18 60394.6 2159.77   8
   2  -4  19 11269.5 880.041  12
  -2   4 -19 9379.95 1676.14  18
   2   4  19 11276.1 997.387  16
  -2  -4 -19 9216.82 1655.42  18
  -2   4 -19 10774.7 1914.39  17
   2  -4  19 11108.8 1588.71   1
   2  -4  19 11989.9 1233.64  16
   2  -4  19 11839.1 925.923   7
  -2  -4 -19 10764.0 1098.39  13
   2  -4  19 13140.7 1023.09   8
   2   4  19 13759.7 1934.79   2
   2   4  20 68518.1 2443.30  16
  -2   4 -20 57327.2 4219.21  18
   2  -4  20 67718.3 2917.36  16
  -2   4 -20 64641.6 4598.06  17
   2  -4  20 61481.0 2069.98  12
  -2  -4 -20 58100.4 4192.81  18
  -2  -4 -20 64915.4 2798.24  13
   2  -4  20 73039.8 2346.57   8
   2   4  20 66219.0 4243.94   2
   2  -4  20 63234.7 2188.77   7
   2  -4  21 18784.9 1542.85  16
   2   4  21 17286.1 1278.32  16
  -2   4 -21 13497.7 2113.73  18
  -2   4 -21 16523.0 2411.53  17
  -2  -4 -21 16599.7 1470.99  13
  -2  -4 -21 15281.1 2214.50  18
   2  -4  21 14804.1 1042.73  12
   2   4  21 14803.1 2098.14   2
   2  -4  21 16532.5 1133.97   8
  -2  -4 -22 50860.2 4086.20  18
  -2   4 -22 53024.6 4313.32  17
   2  -4  22 53682.4 1969.76  12
   2  -4  22 59731.0 2815.15  16
  -2  -4 -22 53116.5 2752.18  13
   2   4  22 61188.0 4206.70   2
  -2   4 -22 46622.5 3877.22  18
   2  -4  22 65810.1 2205.71   8
   2   4  22 61102.2 2396.15  16
  -2  -4 -23 242.943 336.004  13
   2  -4  23 311.825 219.501  12
  -2   4 -23 497.899 652.199  17
   2   4  23 274.310 283.617  16
  -2   4 -23-466.670 494.875  18
   2  -4  23 241.697 219.095   8
   2  -4  23 16.7129 252.008  16
   2   4  24 56671.7 2364.11  16
   2  -4  24 55884.3 2779.30  16
   2  -4  24 50539.6 1964.97  12
   2  -4  24 53327.2 1989.74   8
  -2  -4 -24 48680.3 2780.66  13
  -2  -4 -25 1401.32 488.661  13
   2  -4  25 2420.52 420.340   8
   2   4  25 1651.24 467.234  16
   2  -4  25 2225.47 485.431  12
   2  -4  25 1987.52 582.779  16
  -2  -4 -26 4729.09 944.910  13
   2  -4  26 5575.21 695.637  12
   2  -4  26 6294.61 682.035   8
   2  -4  26 5267.27 901.107  16
   2   4  26 5329.65 812.774  16
  -2  -4 -27 1892.71 728.191  13
   2   4  27 3825.79 683.536  16
   2  -4  27 3230.25 710.508  16
   2  -4  27 2463.36 434.769  12
   2  -4  27 2744.50 460.571   8
   2   4  28 1724.69 506.350  16
   2  -4  28 1697.45 389.160  12
   2  -4  28 2343.36 619.196  16
  -2  -4 -28 1615.62 706.956  13
   2  -4  29 7729.24 1070.36  16
   2   4  29 9315.99 1021.92  16
  -2  -4 -29 7337.03 1332.14  13
   2  -4  29 8876.66 816.454  12
   2  -4  30 11419.1 919.543  12
   2   4  30 11184.5 1186.51  16
   2  -4  30 10639.9 1178.62  16
  -2  -4 -30 8381.75 1497.36  13
  -2  -4 -31 4651.93 1027.91  13
   2  -4  31 7552.37 738.404  12
   2  -4  31 6663.91 914.804  16
   2   4  31 7620.61 930.389  16
   2  -4  32 5072.94 827.713  16
   2   4  32 5842.11 851.846  16
  -2  -4 -32 4885.81 1026.80  13
   2  -4  32 5479.31 627.568  12
   2  -4  33 12681.9 907.630  12
   2  -4  33 11316.4 1140.45  16
   2   4  33 11484.4 1137.29  16
   2  -4  34-108.526 181.868  12
   2   4  34-542.361 401.214  16
   2  -4  34-45.7539 268.623  16
   2  -4  35 1178.27 314.164  12
   2   4  35 810.124 412.558  16
   2  -4  35 1178.63 425.642  16
   2  -4  36 2264.90 384.946  12
   2  -4  36 1482.50 375.848  16
   2   4  36 1944.73 488.808  16
   2  -4  37 168.407 237.348  16
   2  -4  37 400.620 203.983  12
   2   4  37 279.313 317.144  16
   2  -4  38 3102.50 486.240  16
   2  -4  38 3556.94 424.952  12
   2   4  38 2150.95 576.723  16
   2  -4  39 1314.65 252.148  12
   2  -4  39 905.413 297.310  16
   2   4  39 784.697 282.782  16
   2  -4  40 405.003 145.457  12
   2   4  40 127.581 186.017  16
   2  -4  40 274.926 185.837  16
   2  -4  41 1119.46 202.710  12
   2   4  41 1109.89 312.170  16
   2   5 -39 2660.43 517.095  14
   2  -5 -39 3810.52 410.642  14
   2  -5 -38 1514.18 303.429  14
   2   5 -38 1605.60 483.171  14
   2  -5 -38 1336.60 554.138  13
   2  -5 -37 614.001 270.695  14
  -2  -5  37 527.381 153.945  12
   2   5 -37 676.446 398.410  14
   2  -5 -37 90.5454 424.315  13
  -2  -5  36 227.312 115.184  12
   2  -5 -36 89.5365 215.159  14
   2   5 -36 241.968 288.357  14
   2  -5 -36 188.472 507.086  13
  -2  -5  35 363.888 178.339  12
   2   5 -35 198.269 435.270  14
   2  -5 -35 405.573 245.779  14
   2  -5 -35-57.6590 416.235  13
   2  -5 -34 2742.58 482.531  14
  -2  -5  34 2521.45 358.032  12
   2   5 -34 2287.02 607.938  14
   2  -5 -34 1371.39 550.971  13
   2  -5 -33-126.502 460.842  13
   2  -5 -33 379.622 191.278  15
  -2  -5  33 621.239 204.294  12
   2   5 -33 801.077 505.104  14
   2  -5 -33 513.297 279.482  14
   2  -5 -32 4995.76 958.829  13
   2  -5 -32 6779.51 720.872  15
  -2  -5  32 5916.41 551.214  12
   2   5 -32 5533.63 979.784  14
   2  -5 -31 235.363 425.377  13
  -2  -5  31 14.9458 159.205  12
   2  -5 -31 171.743 175.772  15
   2   5 -31-613.378 617.975  14
   2  -5 -30 18886.6 1341.33  15
  -2  -5  30 19361.9 1020.54  12
   2   5 -30 21106.7 1887.76  14
   2  -5 -30 19887.0 1700.36  13
  -2  -5  29 41.0652 168.729  12
   2  -5 -29 166.115 190.209  10
  -2  -5  29 87.2407 173.563  10
   2  -5 -29 694.955 490.730  13
   2   5 -29 288.489 430.695  14
  -2  -5  28 12663.7 862.829  10
   2  -5 -28 11516.0 1350.84  13
   2  -5 -28 12032.7 961.795  10
   2   5 -28 13194.7 1543.77  14
   2  -5 -27 2489.10 665.617  13
   2  -5 -27 3102.01 507.345  10
   2   5 -27 2865.62 838.969  14
  -2  -5  27 2898.45 451.812  10
   2  -5 -26 2807.69 633.077  13
   2   5 -26 3057.77 905.072  14
  -2  -5  26 2995.53 454.448  10
   2  -5 -26 2889.58 498.953  10
   2   5 -25 8903.70 1315.71  14
   2  -5 -25 9524.56 904.194  10
  -2  -5  25 9551.42 802.423  10
   2  -5 -25 9345.72 1064.17  13
   2   5 -24 6244.87 1150.71  14
   2  -5 -24 5592.92 695.382  10
  -2  -5  24 5428.40 612.272  10
   2  -5 -24 6337.82 860.098  13
  -2  -5  23 9363.02 829.024  10
   2  -5 -23 10512.0 957.062  10
   2   5 -23 11484.1 1524.04  14
   2  -5 -23 11702.4 1121.55  13
   2  -5 -22 1423.98 396.524  10
  -2  -5  22 1326.26 311.629  10
   2  -5 -22 1060.81 394.604  13
   2   5 -22 1498.08 763.625  14
   2   5 -21 11926.3 1568.79  14
   2  -5 -21 10853.8 972.343  10
  -2  -5  21 10246.5 871.421  10
   2  -5 -21 12030.7 1086.45  13
   2  -5 -20 16996.1 1234.55  13
   2  -5 -20 16170.7 1161.49  10
  -2  -5  20 13423.4 993.173  10
   2   5 -20 16220.8 1786.69  14
   2  -5 -19 8429.36 867.788  13
   2  -5 -19 7889.62 822.096  10
   2   5 -19 7882.67 1191.00  14
  -2  -5  19 6440.16 715.548  10
   2  -5 -18 462.560 285.075  10
  -2  -5  18-51.1046 327.841   3
  -2  -5  18 633.089 241.547  10
   2   5 -18 1254.60 736.052  14
   2  -5 -18 535.074 316.318  13
  -2  -5  17 43768.8 3421.72   1
  -2  -5  17 38672.6 3070.29   3
   2   5 -17 33041.5 3505.20  17
  -2  -5  17 38047.6 1726.05  10
   2   5 -17 40697.3 1890.78  15
   2  -5 -17 42031.2 1839.74  10
   2   5 -17 45983.3 2993.42  14
   2  -5 -17 42252.8 1808.09  13
   2  -5 -16 12739.0 976.407  13
  -2  -5  16 10898.5 1615.50   3
   2   5 -16 10860.5 994.539  15
   2  -5 -16 12422.1 993.984  10
  -2  -5  16 10463.8 894.146  10
   2   5 -16 8268.56 1800.33  17
  -2  -5  16 13174.9 1872.39   1
   2   5 -16 14303.9 1672.33  14
  -2  -5  15 2759.42 820.759   3
   2  -5 -15 3445.88 531.859  13
   2   5 -15 2686.76 1107.62  17
   2  -5 -15 3676.22 990.474   4
   2  -5 -15 3594.41 543.458  10
  -2  -5  15 3683.98 548.185  10
   2   5 -15 3843.23 920.710  14
  -2  -5  15 3116.28 895.103   1
   2   5 -15 2718.51 488.313  15
   2  -5 -14 656.118 238.788  13
  -2  -5  14 745.328 460.357   3
  -2  -5  14 1562.48 702.632   1
   2   5 -14 1057.34 509.567  14
   2  -5 -14 1227.07 662.198   4
   2   5 -14 466.159 502.721  17
  -2  -5  14 1273.93 340.440  10
   2   5 -14 685.574 288.951  15
   2  -5 -14 1371.24 371.853  10
   2  -5 -13 12975.2 1838.96   4
   2   5 -13 13534.9 1611.28  14
  -2  -5  13 13359.6 999.447  10
   2  -5 -13 13734.9 1007.47  10
  -2  -5  13 12776.2 1818.97   1
   2   5 -13 12154.7 1033.71  15
   2  -5 -13 12827.1 944.282  13
   2   5 -13 9481.01 1790.86  17
   2  -5 -12 1186.69 303.723  13
   2   5 -12 434.117 463.750  17
   2  -5 -12 1413.05 692.648   4
   2   5 -12 1166.12 384.705  15
  -2  -5  12 1020.76 285.738  10
   2  -5 -12 1063.58 328.395  10
  -2  -5  12 519.283 475.584   1
   2   5 -12 467.445 373.987  14
  -2  -5  11 382.369 417.050   1
   2  -5 -11 1141.00 661.686   4
   2   5 -11 848.380 612.679  17
   2  -5 -11 1160.42 285.714  10
  -2  -5  11 666.299 283.420  10
   2   5 -11 1176.72 388.612  15
   2   5 -11 1194.96 731.855   2
   2   5 -11 1007.34 627.494  14
   2  -5 -11 832.973 268.258  13
  -2  -5  10 2901.97 825.430   1
   2  -5 -10 1995.80 705.786   4
   2   5 -10 1903.41 878.314  17
   2  -5 -10 2770.55 448.139  10
   2  -5 -10 2532.91 430.232  13
  -2  -5  10 2945.57 524.248  10
   2   5 -10 2348.69 476.003  15
   2   5 -10 2208.78 706.651  14
   2   5 -10 3427.20 1063.70   2
   2  -5  -9 24402.1 1249.75  13
   2  -5  -9 24715.4 2486.76   4
  -2  -5   9 24878.9 1327.89  10
   2   5  -9 19073.8 2320.47  17
   2   5  -9 25547.5 2617.00   2
  -2  -5   9 24788.9 2327.04   1
   2  -5  -9 25777.1 1335.66  10
   2   5  -9 25521.1 1506.34  15
   2   5  -9 24689.1 2313.84  14
   2  -5  -8 11182.6 1693.50   4
   2   5  -8 11309.9 1022.28  15
   2   5  -8 10330.0 1757.10   2
  -2  -5   8 11378.6 893.970  10
  -2  -5   8 11610.8 1607.95   1
   2   5  -8 8293.17 1561.41  17
   2  -5  -8 11264.2 878.731  10
   2   5  -8 10170.5 1424.69  14
   2  -5  -8 10459.8 831.471  13
   2   5  -7 502.774 638.283   2
   2  -5  -7 1083.71 641.789   4
   2  -5  -7 821.724 316.899  10
   2  -5  -7 803.086 284.961  13
   2   5  -7 588.243 484.389  17
  -2  -5   7 1402.77 371.964  10
   2   5  -7 863.859 295.964  15
   2   5  -7 775.139 512.072  14
  -2  -5   7 1036.35 585.044   1
   2  -5  -6 4858.72 1211.16   4
   2   5  -6 3742.38 947.753  17
   2  -5  -6 5570.44 606.475  10
  -2  -5   6 5753.09 652.720  10
   2   5  -6 5315.02 1045.47  14
   2   5  -6 5146.54 680.603  15
   2   5  -6 5376.88 1232.78   2
  -2  -5   6 5887.43 1138.67   1
   2  -5  -6 4707.87 544.333  13
   2  -5  -5 3074.03 484.408  10
   2   5  -5 1399.64 601.168  17
   2  -5  -5 2614.45 432.568  13
   2   5  -5 1953.25 445.361  15
  -2  -5   5 2746.84 449.011  10
  -2  -5   5 2906.78 777.230   1
   2   5  -5 2937.94 1030.98   2
   2   5  -5 2202.19 875.365  14
   2  -5  -5 4061.98 1048.68   4
   2  -5  -4 177.868 221.190  13
   2  -5  -4 90.4041 465.911   4
   2   5  -4-369.983 297.295  17
  -2  -5   4-3.40914 189.444  10
   2   5  -4-114.587 253.569  15
   2  -5  -4 235.662 259.051  10
   2   5  -4 208.379 430.503  14
  -2  -5   4 103.998 290.607   1
   2   5  -4 82.0337 426.160   2
   2  -5  -3 1511.73 313.629  13
   2   5  -3 1368.87 647.439  17
  -2  -5   3 1459.46 410.781  10
   2  -5  -3 1702.99 746.938   4
   2   5  -3 3548.84 1000.81  14
   2  -5  -3 891.215 289.548  10
  -2  -5   3 3452.35 1104.55   1
   2   5  -3 2072.75 505.893  15
   2   5  -3 2483.07 915.732   2
   2  -5  -2 25279.1 2509.97   4
   2   5  -2 22660.6 2487.35   2
  -2  -5   2 25069.3 1297.90  10
  -2  -5   2 28067.4 2390.39   1
   2  -5  -2 24591.4 1269.20  10
   2   5  -2 21422.9 2180.77  17
   2   5  -2 25763.6 1501.26  15
   2   5  -2 26979.7 2368.16  14
   2  -5  -2 23934.4 1237.85   8
   2  -5  -2 23818.1 1206.05  13
   2  -5  -1 8389.36 765.837   8
   2  -5  -1 8803.03 1585.14   4
   2   5  -1 10071.0 1904.51   2
  -2  -5   1 8494.55 1328.70   1
   2   5  -1 8098.38 1337.55  17
   2  -5  -1 8978.17 807.049  10
  -2  -5   1 8519.94 766.234  10
   2   5  -1 8453.61 861.682  15
   2   5  -1 8985.48 1403.06  14
   2  -5  -1 8762.73 739.059  13
   2  -5   0 2106.07 392.907  13
   2  -5   0 2575.33 456.126   8
   2  -5   0 2624.75 925.598   4
   2  -5   0 2642.48 435.714  10
  -2  -5   0 2290.42 426.607  10
   2   5   0 2475.24 495.223  15
  -2  -5   0 2865.23 787.503   1
   2   5   0 3006.29 885.916   2
   2  -5   1 490.533 242.219   8
  -2  -5  -1 3928.77 1295.23   1
   2   5   1 3423.14 1520.67   2
   2  -5   1 164.508 573.555   4
  -2  -5  -1 1080.32 368.499  10
   2  -5   1 204.204 184.836  10
   2  -5   1 290.434 201.753  13
  -2  -5  -2 43888.0 3135.40   1
   2  -5   2 30961.7 2825.40   4
   2  -5   2 35026.6 1481.60  10
   2   5   2 44317.0 3449.68   2
  -2  -5  -2 39176.1 1605.07  10
   2  -5   2 35075.3 1496.85  13
  -2   5  -2 33580.6 3075.11  17
   2  -5   2 32972.3 1501.66   8
  -2  -5  -3 70113.3 3768.99   1
   2  -5   3 65209.0 4085.57   4
   2   5   3 69390.6 4027.52   2
  -2  -5  -3 68551.0 2110.70  10
   2  -5   3 68762.3 2075.62  10
  -2   5  -3 65368.6 4303.26  17
   2  -5   3 63447.2 2123.47   8
   2  -5   3 69350.0 2129.93  13
   2  -5   4 6380.27 1374.66   4
  -2   5  -4 3616.89 1098.18  17
  -2  -5  -4 7280.08 1619.83   1
   2  -5   4 6135.38 699.507  10
   2   5   4 6476.94 1300.22   2
  -2  -5  -4 5198.57 597.614  10
   2  -5   4 6712.01 785.259   8
   2  -5   4 6346.35 897.039  13
  -2  -5  -5 6777.53 1370.34   1
   2   5   5 6107.25 1317.18   2
  -2   5  -5 5241.41 1297.72  17
   2  -5   5 6436.17 922.642  13
  -2  -5  -5 5191.63 613.693  10
   2  -5   5 4671.85 1147.37   4
   2  -5   5 4978.26 550.301  10
   2  -5   5 4538.28 611.663   8
   2   5   6 30176.0 2747.34   2
   2  -5   6 28399.7 2663.40   4
   2  -5   6 32518.8 1503.30  13
   2  -5   6 30848.8 1374.48  10
  -2   5  -6 33129.3 3146.07  17
  -2  -5  -6 32717.9 1458.67  10
  -2  -5  -6 29933.8 2534.49   1
   2  -5   6 26545.1 1417.11   8
   2   5   7 12052.4 1799.98   2
   2  -5   7 10008.6 1633.16   4
   2  -5   7 11484.7 841.819  10
  -2  -5  -7 11588.0 871.056  10
  -2   5  -7 9638.61 1667.20  17
   2  -5   7 10675.9 944.727   8
   2  -5   7 13724.0 1085.25  13
  -2  -5  -7 11729.6 1728.12   1
   2   5   8 28824.5 2635.70   2
   2  -5   8 26989.5 2641.99   4
  -2   5  -8 33525.2 3166.13  17
   2   5   8 33898.8 1556.53  16
  -2  -5  -8 30144.9 1419.99  10
   2  -5   8 29480.8 1348.85  10
   2  -5   8 26357.7 1461.88   8
  -2  -5  -8 28530.4 2474.81   1
   2  -5   9 421.326 280.191   8
  -2  -5  -9 932.085 749.998   1
  -2   5  -9 1200.48 693.144  17
   2   5   9 227.328 662.011   2
  -2  -5  -9 429.640 231.014  10
   2   5   9 225.138 211.740  16
   2  -5   9-308.107 580.377   4
   2  -5  10 57632.9 2162.02   8
   2  -5  10 55704.1 3765.86   4
  -2  -5 -10 59799.1 3718.25   1
  -2  -5 -10 63273.4 2024.60  10
  -2   5 -10 60331.9 4300.12  17
   2   5  10 56014.3 3735.06   2
  -2   5 -10 61379.2 3695.79  14
   2   5  10 65165.0 2228.68  16
   2   5  11 61842.6 3921.43   2
   2  -5  11 62058.1 3976.24   4
  -2  -5 -11 62838.9 3781.67   1
  -2  -5 -11 58998.1 1962.82  10
  -2   5 -11 53638.9 4113.82  17
   2   5  11 58105.8 2111.86  16
   2  -5  11 59707.8 2236.22   8
   2   5  12 9856.76 1634.23   2
   2   5  12 12087.1 965.203  16
   2  -5  12 8200.35 1423.19   4
  -2  -5 -12 10409.7 826.919  10
   2  -5  12 10303.9 939.556   8
  -2  -5 -12 11372.8 1680.61   1
  -2   5 -12 10743.9 1883.30  17
  -2   5 -13 7413.64 1599.77  17
   2  -5  13 7108.64 1351.95   4
  -2  -5 -13 6622.59 1251.06   1
   2   5  13 6870.81 770.265  16
  -2  -5 -13 7079.75 683.029  10
   2   5  13 6254.01 1323.92   2
   2  -5  13 6941.55 783.624   8
   2  -5  14 646.825 341.625   8
  -2  -5 -14 1319.42 620.206   1
   2   5  14 1090.76 650.378   2
  -2   5 -14 296.113 542.331  18
   2   5  14 536.586 217.693  16
  -2  -5 -14 790.670 272.660  10
  -2   5 -14 455.583 483.928  17
   2  -5  15 81216.9 2616.58   8
   2   5  15 81034.4 2586.84  16
  -2   5 -15 73680.4 5048.05  17
   2   5  15 79255.0 4569.65   2
  -2  -5 -15 82156.5 4495.12   1
   2  -5  16 8495.11 717.260  12
   2   5  16 10455.5 960.045  16
  -2   5 -16 9301.97 1819.51  17
  -2  -5 -16 11751.5 1757.57   1
  -2  -5 -16 9648.86 972.706  13
   2  -5  16 10670.3 972.569   8
  -2   5 -16 7701.85 1572.11  18
   2   5  16 10416.7 1710.20   2
  -2  -5 -17 1717.26 403.020  13
   2  -5  17 2253.83 495.041   8
   2  -5  17 2303.08 416.967  12
   2   5  17 2893.42 543.901  16
  -2   5 -17 2031.26 970.877  18
   2   5  18 60796.5 2336.92  16
   2  -5  18 64481.2 2332.71   8
  -2  -5 -18 56690.1 2431.83  13
   2  -5  18 53751.7 1862.81  12
   2   5  19 10603.3 1005.44  16
  -2  -5 -19 10924.6 1145.77  13
   2  -5  19 10889.5 1160.48  16
   2  -5  19 9980.08 828.077  12
   2  -5  19 12173.2 1041.29   8
   2  -5  20 4097.45 620.990   8
   2  -5  20 3969.51 733.589  16
   2   5  20 4454.76 668.884  16
  -2  -5 -20 3376.79 683.098  13
   2  -5  20 3056.42 473.169  12
  -2  -5 -21 6673.35 941.024  13
   2  -5  21 5611.52 647.312  12
   2   5  21 7065.72 847.399  16
   2  -5  21 5851.90 897.485  16
   2  -5  21 7600.05 788.675   8
  -2  -5 -22 2143.73 599.738  13
   2  -5  22 1336.50 354.333  12
   2   5  22 1986.64 508.098  16
   2  -5  22 1832.09 443.383   8
   2  -5  22 1936.84 541.339  16
  -2  -5 -23 3204.10 805.722  13
   2  -5  23 4010.94 721.300  16
   2   5  23 4489.19 683.512  16
   2  -5  23 4167.02 572.276  12
   2  -5  23 5948.55 693.171   8
  -2  -5 -24 6371.43 1076.68  13
   2  -5  24 6862.59 695.492  12
   2  -5  24 7220.66 948.655  16
   2   5  24 7663.03 918.143  16
   2  -5  24 8761.74 843.081   8
  -2  -5 -25 562.457 361.721  13
   2  -5  25-92.1173 232.703   8
   2  -5  25-13.4014 180.031  12
   2   5  25 199.605 289.963  16
   2  -5  25 715.055 461.204  16
  -2  -5 -26 4235.28 897.204  13
   2   5  26 3924.00 756.484  16
   2  -5  26 4262.72 777.598  16
   2  -5  26 4348.91 580.216   8
   2  -5  26 4185.51 534.889  12
   2  -5  27 6938.45 678.869  12
   2  -5  27 5611.99 836.892  16
   2  -5  27 7991.38 739.104   8
   2   5  27 7033.78 899.721  16
  -2  -5 -27 5969.49 1036.71  13
   2  -5  28 15.3176 160.592   8
   2  -5  28 37.3304 175.177  12
   2  -5  28 351.423 299.782  16
   2   5  28 141.758 272.093  16
  -2  -5 -28 436.387 482.851  13
   2  -5  29 1083.75 270.915   8
   2  -5  29 939.394 283.335  12
   2  -5  29 849.017 298.275  16
   2   5  29 1148.08 421.909  16
  -2  -5 -29 748.209 577.763  13
   2  -5  30 741.714 227.762  12
   2   5  30 956.093 408.673  16
   2  -5  31 3797.73 484.478  12
   2   5  31 3365.71 604.671  16
  -2  -5 -31 3656.57 855.108  13
   2   5  32 351.982 323.939  16
   2  -5  32 488.173 227.253  12
   2  -5  33 42.8787 166.684  12
   2   5  33 123.082 270.536  16
   2   5  34-130.226 265.462  16
   2  -5  34 120.057 142.276  12
   2  -5  35 3116.24 367.908  12
   2   5  35 3154.09 505.246  16
   2   5  36-100.453 184.298  16
   2  -5  36-66.8879 130.457  12
   2   5  37 356.298 243.267  16
   2  -5  37 73.5037 97.5809  12
   2   5  38 4658.92 474.627  16
   2  -6 -35 62.1735 139.669  14
   2  -6 -35 648.865 344.912  13
   2   6 -34 2623.38 611.316  14
   2  -6 -34 4061.13 455.671  14
   2  -6 -34 2691.49 657.297  13
   2  -6 -33-0.65634 172.853  14
   2   6 -33-384.860 408.182  14
   2  -6 -33 130.109 371.394  13
   2  -6 -32 322.404 362.960  13
   2  -6 -32-22.7879 136.816  15
   2   6 -32-428.542 382.271  14
   2  -6 -32-231.567 225.921  14
   2  -6 -31 170.102 353.789  13
   2  -6 -31 72.6365 142.521  15
   2   6 -31 580.665 497.287  14
   2  -6 -31 96.5613 187.208  14
   2  -6 -30 3923.20 530.463  15
   2   6 -30 3545.45 814.505  14
   2  -6 -30 3767.13 740.822  13
  -2  -6  30 5068.78 458.348   8
  -2  -6  29 371.735 178.378   8
   2  -6 -29-197.298 408.675  13
   2   6 -29-417.825 538.715  14
   2  -6 -29 315.293 221.977  15
   2  -6 -28 5640.47 787.071  13
   2  -6 -28 6134.71 607.826  10
  -2  -6  28 5869.26 500.892  10
  -2  -6  28 6237.34 590.858   8
   2   6 -28 4519.53 982.345  14
   2  -6 -27 1689.75 487.696  13
  -2  -6  27 1146.50 311.141   8
   2  -6 -27 891.742 248.981  10
  -2  -6  27 952.783 236.361  10
   2  -6 -26 13078.3 964.498  10
   2   6 -26 11154.6 1486.51  14
   2  -6 -26 13049.3 1275.36  13
  -2  -6  26 13050.0 822.516  10
   2  -6 -25 2080.82 569.451  13
  -2  -6  25 2071.57 349.935  10
   2   6 -25 1593.87 722.770  14
   2  -6 -25 1827.28 399.511  10
   2  -6 -24 4172.61 765.206  13
   2  -6 -24 5191.17 620.818  10
  -2  -6  24 4392.54 516.041  10
   2   6 -24 3871.14 978.804  14
   2  -6 -23 16349.1 1468.05  13
  -2  -6  23 16902.0 1043.74  10
   2  -6 -23 18596.8 1186.99  10
   2   6 -23 15361.0 1883.00  14
   2  -6 -22 20979.9 1294.72  10
   2   6 -22 15914.6 2032.02  14
   2  -6 -22 18641.1 1403.36  13
  -2  -6  22 18822.7 1132.72  10
   2  -6 -21 2322.30 469.068  10
  -2  -6  21 2178.84 381.005  10
   2  -6 -21 2417.57 507.457  13
   2   6 -21 2340.73 988.092  14
   2  -6 -20 779.723 367.665  13
   2  -6 -20-51.2593 270.660  10
  -2  -6  20 873.623 319.223  10
   2  -6 -19 492.171 319.224  13
  -2  -6  19 498.732 295.710  10
   2  -6 -19 272.953 233.268  10
   2   6 -19 449.386 576.924  14
   2  -6 -18 3710.01 581.439  10
  -2  -6  18 2737.72 495.797  10
   2  -6 -18 3466.24 636.932  13
   2   6 -18 3608.24 1061.74  14
   2  -6 -17 17409.4 1211.58  10
   2   6 -17 15516.6 2031.31  14
  -2  -6  17 15055.6 1081.87  10
   2  -6 -17 16905.2 1069.39   9
   2  -6 -17 16357.0 1211.53  13
   2  -6 -16 2041.97 457.213  13
   2  -6 -16 1554.47 380.032  10
  -2  -6  16 1738.87 450.255  10
   2   6 -16 1707.81 970.098  14
   2  -6 -16 1672.21 380.860   9
  -2  -6  15 203.100 234.286  10
   2  -6 -15-51.0567 267.511  10
   2  -6 -15 374.312 228.507   9
   2   6 -15 875.290 594.070  14
   2  -6 -15 216.813 228.175  13
   2   6 -14 4534.04 1197.31  14
  -2  -6  14 3878.73 565.967  10
   2  -6 -14 4399.01 630.826  10
   2  -6 -14 5002.28 649.596  13
  -2  -6  13 4053.11 569.316  10
   2   6 -13 4478.22 1203.20  14
   2  -6 -13 4354.57 624.510  10
   2  -6 -13 5078.68 647.135  13
   2  -6 -12 4911.09 658.193  10
  -2  -6  12 4175.78 580.505  10
   2   6 -12 4627.75 1231.05  14
   2  -6 -12 5105.28 644.976  13
   2  -6 -11 8525.44 838.018  10
  -2  -6  11 7906.98 803.181  10
   2   6 -11 8265.21 1607.95  14
   2  -6 -11 8691.83 797.133  13
   2  -6 -10 659.963 358.305  10
   2  -6 -10 802.308 344.955  13
  -2  -6  10 563.563 223.116  10
   2   6 -10 1147.91 881.542  14
   2  -6  -9 2439.08 522.520  13
   2  -6  -9 1282.10 340.575  10
   2   6  -9 2283.80 979.213  14
  -2  -6   9 1917.83 453.257  10
   2   6  -8 6548.32 1437.50  14
  -2  -6   8 7766.07 809.364  10
   2  -6  -8 8064.64 807.519  10
   2  -6  -8 7553.48 746.376  13
  -2  -6   7 3349.29 527.569  10
   2  -6  -7 3790.54 610.693  10
   2  -6  -7 4405.08 606.107  13
   2   6  -7 3303.89 1200.40  14
   2  -6  -6 3601.68 575.444  10
   2   6  -6 4273.63 1238.86  14
   2  -6  -6 3783.73 560.772  13
  -2  -6   6 4109.84 605.556  10
   2  -6  -5 6407.91 750.843  10
  -2  -6   5 6333.07 762.238  10
   2  -6  -5 6365.38 740.373  13
  -2  -6   4 8001.30 808.807  10
   2  -6  -4 8727.20 844.002  10
   2  -6  -4 8040.36 770.639  13
  -2  -6   3 561.552 307.198  10
   2  -6  -3 1202.97 349.744  10
   2   6  -3 1503.53 949.114   2
   2  -6  -3 2532.64 701.779  13
   2  -6  -2 9789.77 869.771  10
  -2  -6   2 9238.28 869.688  10
   2  -6  -2 9250.73 803.607   8
   2   6  -2 8665.80 1747.78   2
   2  -6  -2 8074.88 762.345  13
   2  -6  -1 6811.49 729.368  10
  -2  -6   1 6109.82 721.446  10
   2   6  -1 4779.99 1311.61   2
   2  -6  -1 5213.65 624.243   8
   2  -6  -1 6816.53 764.313  13
   2  -6   0 220.838 202.391   8
   2  -6   0 42.5461 206.696  10
  -2  -6   0 241.255 300.161  10
   2   6   0 1047.90 1231.84   2
   2   6   1 11604.1 1906.17   2
   2  -6   1 10058.9 859.688  13
   2  -6   1 11814.3 944.477  10
  -2  -6  -1 11808.6 971.436  10
   2  -6   1 10969.6 904.217   8
   2  -6   2 1630.67 558.797  13
   2  -6   2 1324.77 390.724   8
  -2  -6  -2 813.234 307.656  10
   2  -6   2 1078.85 390.548  10
   2  -6   3 1251.67 375.635  13
   2  -6   3 942.862 323.287   8
   2  -6   3 1057.89 346.464  10
  -2  -6  -3 941.990 324.007  10
   2  -6   4 1180.42 334.623   8
   2  -6   4 1672.55 353.587  10
  -2  -6  -4 2313.07 498.779  10
  -2  -6  -5 14222.0 1064.25  10
   2  -6   5 12849.3 968.221  10
   2  -6   5 14492.7 1102.63  13
   2  -6   5 13738.3 1057.26   8
   2  -6   6 18510.4 1144.79  10
   2   6   6 18366.9 1247.36  16
   2  -6   6 17391.0 1208.60   8
  -2  -6  -6 18566.3 1212.69  10
   2  -6   7 7648.96 740.823  10
  -2  -6  -7 7362.31 768.506  10
   2   6   7 8295.39 865.009  16
   2  -6   7 7061.47 815.433   8
   2  -6   7 9767.88 1007.05  13
   2   6   8 12233.7 1022.47  16
   2  -6   8 12976.0 1032.23  13
  -2  -6  -8 12515.1 979.265  10
   2  -6   8 12032.7 919.004  10
   2  -6   8 11826.6 1031.83   8
   2   6   9 7828.95 876.658  16
  -2  -6  -9 7108.55 734.463  10
   2  -6   9 6517.23 689.719  10
   2  -6   9 6708.89 810.956   8
   2  -6   9 9218.09 921.935  13
   2   6  10 23663.2 1424.44  16
   2  -6  10 21853.7 1212.16  10
  -2  -6 -10 24466.2 1362.30  10
   2  -6  10 23752.1 1433.74   8
   2  -6  10 24715.1 1402.46  13
  -2  -6 -11 8459.19 788.756  10
   2  -6  11 10100.3 926.659  13
   2   6  11 9427.76 931.985  16
   2  -6  11 9094.52 915.202   8
   2   6  12 6824.41 776.647  16
  -2  -6 -12 7023.36 721.060  10
   2  -6  12 7221.77 757.493  13
   2  -6  12 7100.26 789.789   8
   2  -6  13 461.284 257.690  13
   2  -6  13 330.799 235.159   8
   2   6  13-153.609 243.052  16
  -2  -6 -13 453.011 239.691  10
   2  -6  14 2440.80 490.141  13
   2  -6  14 2354.14 492.539   8
  -2  -6 -14 2553.06 447.603  10
   2   6  14 2312.13 499.798  16
   2  -6  15 2319.15 495.119  13
   2  -6  15 3123.72 537.867   8
   2   6  15 2383.52 490.558  16
  -2  -6 -15 2883.40 464.821  10
   2  -6  16 2904.73 499.515  13
   2  -6  16 2903.67 539.210   8
   2   6  16 2727.56 580.113  16
  -2  -6 -16 3092.24 468.448  10
   2  -6  17 816.031 363.588  13
   2  -6  17 1119.29 399.414   8
   2   6  17 1114.37 375.944  16
   2  -6  18 4683.56 652.714   8
   2  -6  18 3913.88 591.601  13
   2   6  18 4148.87 603.292  16
   2  -6  19 1006.48 358.521   8
   2   6  19 806.842 358.310  16
   2   6  20 2815.95 590.354  16
   2  -6  20 4502.20 622.298   8
   2  -6  21 3258.48 517.586   8
   2   6  21 1898.43 497.923  16
   2  -6  22 2241.52 439.508   8
   2   6  22 1597.52 422.290  16
   2  -6  23 2562.28 443.513   8
   2   6  23 2615.12 520.811  16
   2  -6  24 291.039 219.089   8
   2   6  24 16.9657 231.669  16
   2  -6  25 153.667 216.019   8
   2   6  25 266.281 259.285  16
   2  -6  26 388.236 204.219   8
   2   6  26 299.643 206.329  16
   2  -6  27-12.2673 162.402  13
   2  -6  27 299.863 183.804   8
   2   6  27 19.4894 208.021  16
   2  -6  28 835.031 237.093   8
   2  -6  28 746.942 259.342  13
   2   6  28 880.794 352.466  16
   2   6  29-90.4989 238.070  16
   2  -6  29 43.4129 120.403   8
   2  -6  29-177.301 187.387  13
   2  -6  30 7711.42 494.838   8
   2   6  30 6190.40 741.345  16
   2  -6  30 5881.37 544.751  13
   2   6  31 5169.67 586.356  16
   2  -6  31 5118.48 459.704  13
   2  -6  32 110.892 107.062  13
   2   6  32 205.125 179.413  16
   2   6  33 9911.75 714.748  16
   2  -6  33 9750.90 546.859  13
   2  -7 -29 1114.39 399.760  13
   2  -7 -29 1040.54 254.133  14
   2  -7 -28 4131.08 449.131  15
   2  -7 -28 3716.85 580.607  13
  -2  -7  28 4863.59 379.763   8
   2  -7 -27 996.322 391.026  13
  -2  -7  27 882.124 201.997   8
   2  -7 -27 969.529 266.230  15
   2  -7 -26 3828.40 600.918  13
   2  -7 -26 3296.69 387.011  10
  -2  -7  26 3184.28 372.599   8
   2  -7 -26 2333.75 404.705  15
   2  -7 -25 2051.84 460.187  13
  -2  -7  25 2958.14 389.458   8
  -2  -7  25 2620.59 301.354  10
   2  -7 -25 2800.90 380.373  10
  -2  -7  24 6842.73 504.728  10
   2  -7 -24 6637.51 865.132  13
  -2  -7  24 7913.06 622.374   8
   2  -7 -24 7770.61 629.893  10
   2  -7 -23 10585.1 762.982  10
  -2  -7  23 9624.39 637.896  10
   2  -7 -23 9728.43 958.755  13
  -2  -7  23 10878.0 766.084   8
   2  -7 -22 7820.40 683.320  10
  -2  -7  22 6845.05 561.006  10
   2  -7 -22 6643.81 797.424  13
  -2  -7  22 7602.23 669.355   8
   2  -7 -21 2176.04 542.611  13
   2  -7 -21 2188.60 411.147  10
  -2  -7  21 1989.87 313.905  10
   2  -7 -20 14772.1 983.423  10
  -2  -7  20 14133.1 867.203  10
   2  -7 -20 13788.0 1166.18  13
   2  -7 -19 7068.46 698.779  10
  -2  -7  19 6591.29 625.590  10
   2  -7 -19 7067.07 777.485  13
   2  -7 -18 4648.00 575.022  10
  -2  -7  18 4442.17 514.752  10
   2  -7 -18 5742.41 686.768  13
   2  -7 -17 2300.08 466.700  13
   2  -7 -17 1543.36 309.686   9
   2  -7 -17 2289.38 438.317  10
  -2  -7  17 1383.25 309.722  10
   2  -7 -16 4320.56 607.204  10
  -2  -7  16 4257.78 526.439  10
   2  -7 -16 4369.93 523.293   9
   2  -7 -16 5798.28 678.010  13
   2  -7 -15 4487.88 626.733  13
   2  -7 -15 4146.17 575.247  10
   2  -7 -15 4056.91 509.351   9
  -2  -7  15 4012.36 557.176  10
   2  -7 -14 4584.07 610.112  10
  -2  -7  14 4281.35 548.584  10
   2  -7 -14 4898.21 604.360  13
   2  -7 -14 4001.79 522.711   9
   2  -7 -13 717.756 340.667  13
  -2  -7  13 491.197 239.299  10
   2  -7 -13 381.011 222.652   9
   2  -7 -13 188.729 241.558  10
   2  -7 -12 4203.62 583.284  13
  -2  -7  12 2854.89 460.025  10
   2  -7 -12 3748.86 556.362  10
   2  -7 -12 3399.79 531.281   9
   2  -7 -11-16.9691 261.545  13
  -2  -7  11 59.7986 292.759  10
   2  -7 -11 300.801 256.778  10
   2  -7 -11-191.400 236.328   9
   2  -7 -10 2418.43 537.472  13
  -2  -7  10 2707.16 489.394  10
   2  -7 -10 2801.31 490.248  10
  -2  -7   9 11153.6 951.193  10
   2  -7  -9 11212.0 933.702  10
   2  -7  -9 10700.5 919.150  13
   2  -7  -8 27541.7 1381.18  13
  -2  -7   8 25124.0 1395.28  10
   2  -7  -8 27733.3 1440.19  10
   2  -7  -7 6849.86 777.241  10
  -2  -7   7 5012.85 662.396  10
   2  -7  -7 6707.08 768.018  13
   2  -7  -6 2433.36 475.344  10
  -2  -7   6 2593.22 523.674  10
   2  -7  -6 3943.21 714.138  13
   2  -7  -5 6990.57 739.058  10
   2  -7  -5 6765.68 744.815  13
  -2  -7   5 7675.30 776.910  10
   2  -7  -4 5247.93 662.284  10
  -2  -7   4 5924.14 755.673  10
  -2  -7   3 13560.9 1032.63  10
   2  -7  -3 12842.8 985.686  10
   2  -7  -3 12021.9 1053.76  13
   2  -7  -2 2009.24 445.645  10
  -2  -7   2 2102.75 472.032  10
  -2  -7   1 15192.3 1097.94  10
   2  -7  -1 13995.4 1014.98  10
   2  -7  -1 13322.8 914.101   8
   2  -7  -1 12661.5 1006.15  13
   2  -7   0 1955.42 448.680  10
   2  -7   0 1912.28 370.969   8
   2  -7   1 50834.3 1893.91  10
  -2  -7  -1 50969.5 1962.79  10
   2  -7   1 47361.7 1768.60   8
   2  -7   1 47547.8 1845.88  13
   2   7   2 5449.94 1368.18  16
   2  -7   2 4218.49 634.324  10
   2  -7   2 4306.09 600.272   8
   2  -7   3 3488.31 516.352   8
  -2  -7  -3 4197.79 578.093  10
   2   7   3 3884.09 608.613  16
   2  -7   3 3958.78 565.021  10
   2  -7   3 4302.87 622.408  13
   2  -7   4 516.663 237.131   8
   2  -7   4 581.092 241.458  10
  -2  -7  -4 904.268 326.372  10
   2   7   4 789.356 393.169  16
   2  -7   5 4784.47 575.090   8
  -2  -7  -5 6543.54 784.128  10
   2  -7   5 5355.44 616.065  10
  -2  -7  -6 34650.4 1568.25  10
   2   7   6 34244.1 1647.32  16
   2  -7   6 30810.7 1421.36  10
   2  -7   6 29964.2 1472.19   8
   2  -7   6 32508.7 1483.79  13
   2  -7   7 2231.85 474.173   8
   2   7   7 2694.86 838.435  16
   2  -7   7 2004.54 425.236  10
  -2  -7  -7 1510.04 455.876  10
   2  -7   8 24097.3 1225.87  10
   2   7   8 27142.2 1501.74  16
  -2  -7  -8 26613.4 1378.58  10
   2  -7   8 23584.3 1325.93   8
   2  -7   8 29397.2 1401.86  13
  -2  -7  -9 7056.56 714.576  10
   2  -7   9 7296.19 769.585   8
   2  -7   9 6498.53 644.533  10
   2   7   9 6614.05 809.927  16
   2  -7  10 2168.36 449.770  13
   2  -7  10 1032.15 349.544   8
   2  -7  10 1024.97 292.490  10
   2   7  10 1525.94 424.506  16
  -2  -7 -10 1103.40 326.560  10
   2  -7  11 55.4526 210.171   8
  -2  -7 -11 332.926 247.562  10
   2   7  11 86.0527 300.224  16
   2   7  12 21161.6 1303.24  16
  -2  -7 -12 19470.9 1109.60  10
   2  -7  12 18605.2 1211.61  13
   2  -7  12 19997.5 1206.75   8
  -2  -7 -13 18038.2 1050.67  10
   2   7  13 16257.3 1155.56  16
   2  -7  13 17757.1 1132.02   8
   2  -7  13 16242.1 1060.30  13
   2   7  14 309.601 226.160  16
   2  -7  14 806.509 330.654  13
   2  -7  14 500.265 278.403   8
  -2  -7 -14 400.490 218.356  10
   2  -7  15 2938.01 464.307  13
   2  -7  15 3086.10 543.953   8
   2  -7  15 3284.24 421.683   9
  -2  -7 -15 3112.96 427.689  10
   2   7  15 3170.62 469.616  16
   2  -7  16 2067.80 391.934  13
  -2  -7 -16 2422.12 384.162  10
   2   7  16 1871.51 411.441  16
   2  -7  16 2311.26 434.395   8
   2   7  17 5785.54 744.705  16
   2  -7  17 5619.28 605.491  13
   2  -7  17 7765.19 702.107   8
   2  -7  18 6416.27 635.887  13
   2   7  18 6344.82 807.919  16
   2  -7  19 1391.60 347.643   8
   2  -7  19 819.011 245.382  13
   2   7  19 646.262 283.135  16
   2  -7  20-31.9147 174.944   8
   2  -7  20 121.155 155.512  13
   2   7  20 142.959 189.131  16
   2  -7  21 767.964 253.743   8
   2  -7  21 185.693 176.776  13
   2   7  21 407.164 298.013  16
   2  -7  22 697.229 235.116  13
   2   7  22 483.505 257.393  16
   2   7  23 5296.94 595.042  16
   2  -7  23 5986.81 521.059   8
   2  -7  23 4541.93 469.634  13
   2  -7  24 248.808 144.833   8
   2  -7  24 577.049 208.474  13
   2   7  24 424.072 241.042  16
   2  -7  25 1906.28 275.353   8
   2   7  25 1735.80 350.823  16
   2  -7  25 1534.06 253.998  13
   2  -7  26 1006.21 207.150  13
   2   7  26 991.104 273.352  16
   2  -7  26 919.818 191.948   8
   2  -7  27 2644.23 279.805  13
   2   7  27 2994.05 395.026  16
   2  -7  28 1306.22 195.886  13
  -2  -8  21 150.717 110.713   8
   2  -8 -21 257.676 168.712  15
   2  -8 -20 2684.85 422.363  13
   2  -8 -20 2745.52 319.802  10
  -2  -8  20 3245.15 341.006   8
   2  -8 -19 3193.26 449.175  13
   2  -8 -19 3354.35 370.248  10
  -2  -8  19 2792.12 275.266  10
  -2  -8  19 3469.80 359.800   8
   2  -8 -18 1446.09 348.848  13
  -2  -8  18 1461.66 267.975   8
   2  -8 -18 1390.32 252.563  10
  -2  -8  18 1473.65 234.932  10
   2  -8 -17 6600.49 653.460  13
  -2  -8  17 6006.73 463.354  10
   2  -8 -17 6678.92 553.359  10
  -2  -8  17 6949.86 547.473   8
  -2  -8  16 4636.95 422.053  10
  -2  -8  16 5368.28 499.352   8
   2  -8 -16 5540.67 591.155  13
   2  -8 -16 4961.04 492.459  10
   2  -8 -15 2811.99 410.872  13
  -2  -8  15 2604.54 374.188   8
   2  -8 -15 3011.29 377.609  10
  -2  -8  15 2733.85 355.870  10
   2  -8 -14 795.627 246.689  13
   2  -8 -14 1296.76 238.307   9
  -2  -8  14 885.426 201.971   8
   2  -8 -14 1502.22 322.130  10
  -2  -8  14 424.973 168.096  10
   2  -8 -13 12279.9 686.498   9
   2  -8 -13 13038.6 800.640  10
  -2  -8  13 10733.5 704.098  10
  -2  -8  13 11467.7 762.871   8
   2  -8 -13 13781.2 860.041  13
   2  -8 -12 1520.19 428.249  13
  -2  -8  12 1510.62 294.864   8
  -2  -8  12 1118.26 261.382  10
   2  -8 -12 1388.13 282.652  10
   2  -8 -12 1683.02 293.555   9
   2  -8 -11 3303.88 467.047  13
  -2  -8  11 2183.80 373.161   8
   2  -8 -11 2318.42 376.439  10
  -2  -8  11 1924.69 340.152  10
   2  -8 -11 2027.54 322.184   9
   2  -8 -10 10036.9 747.717  10
   2  -8 -10 8635.09 643.418   9
  -2  -8  10 7499.62 628.080   8
  -2  -8  10 8243.30 660.286  10
   2  -8  -9 6676.27 615.044  10
  -2  -8   9 5803.79 569.662  10
   2  -8  -9 6108.63 566.098   9
  -2  -8   9 4879.14 517.783   8
   2  -8  -9 7395.13 653.229  13
  -2  -8   8 3128.61 439.091   8
   2  -8  -8 4052.22 483.669  10
  -2  -8   8 3664.83 467.436  10
   2  -8  -8 4598.99 635.998  13
   2  -8  -8 3481.34 457.625   9
  -2  -8   7 2008.08 366.792   8
   2  -8  -7 3971.10 527.255  13
  -2  -8   7 3544.19 468.484  10
   2  -8  -7 3181.86 422.918   9
   2  -8  -7 3469.13 455.590  10
  -2  -8   6 2431.42 459.992  10
   2  -8  -6 9111.70 751.261  13
   2   8  -6 7726.25 771.330  16
   2  -8  -5 18475.6 1015.67   9
   2  -8  -5 17683.2 980.707  10
  -2  -8   5 18215.2 1025.60  10
  -2  -8   5 15872.2 912.940   8
   2  -8  -5 17630.8 997.350  13
   2   8  -4 28279.5 1360.90  16
   2  -8  -4 22425.4 1262.86  13
   2   8  -3 32450.3 1452.58  16
   2  -8  -3 35041.6 1363.62  10
   2  -8  -3 35749.3 1456.36   9
  -2  -8   3 38191.5 1452.94  10
  -2  -8   3 31331.6 1230.05   8
   2  -8  -3 36562.0 1403.61  13
  -2  -8   2 5729.48 676.244  10
   2  -8  -2 5828.52 666.584   9
   2  -8  -1 43978.4 1599.97   9
  -2  -8   1 42858.5 1541.05  10
   2   8  -1 41901.5 1580.93  16
   2  -8  -1 39818.4 1420.21  13
   2  -8  -1 41508.5 1468.86  10
  -2  -8   0 1878.71 423.047  10
   2  -8   0 4257.49 529.633  10
   2  -8   0 5583.17 662.644   9
   2  -8   1 9864.51 711.670  10
  -2  -8  -1 10894.0 783.927  10
   2   8   1 10104.3 826.096  16
   2  -8   1 10302.2 788.736   9
   2  -8   1 9784.82 775.256  13
  -2  -8  -2 704.665 243.369  10
   2  -8   2 1282.36 320.226   9
   2  -8   2 1035.66 272.677  10
   2  -8   3-75.1550 169.585   8
  -2  -8  -3 197.708 222.763  10
   2   8   3 747.269 361.912  16
   2  -8   3 531.686 265.625   9
   2  -8   3 57.9181 134.748  10
   2  -8   4 2502.95 340.618  10
   2  -8   4 4193.62 492.798   9
   2   8   4 2703.57 440.217  16
   2  -8   4 3125.20 401.214   8
   2  -8   4 3597.74 457.600  13
  -2  -8  -4 3806.28 473.514  10
   2  -8   5 81.4520 147.958   8
   2  -8   5 697.472 221.765  10
   2   8   5 986.139 332.629  16
   2  -8   5 622.162 271.416   9
  -2  -8  -5 659.693 210.680  10
   2  -8   6 402.808 196.018   8
   2  -8   6 579.849 251.169  13
   2  -8   6 77.4884 133.383  10
  -2  -8  -6 811.288 264.819  10
   2  -8   6 378.416 196.978   9
   2   8   6 28.5896 173.074  16
   2  -8   7 968.297 265.941  13
   2  -8   7 566.414 193.166   8
   2  -8   7 745.175 204.797  10
  -2  -8  -7 725.189 225.387  10
   2   8   7 966.978 279.844  16
   2  -8   7 1132.25 306.031   9
   2  -8   8 181.236 163.086   8
  -2  -8  -8 479.243 183.135  10
   2  -8   8 575.270 236.414  13
   2   8   8 741.926 281.878  16
   2  -8   8 203.809 161.818   9
   2  -8   9 1296.03 327.380  13
   2  -8   9 924.565 241.915   8
  -2  -8  -9 1568.81 301.660  10
   2   8   9 607.948 307.744  16
   2  -8   9 1257.35 278.587   9
   2  -8  10 2893.00 378.739   8
   2   8  10 2484.24 449.354  16
   2   8  10 2108.62 327.396  11
  -2  -8 -10 3225.27 395.759  10
   2  -8  10 2984.74 363.373   9
   2  -8  10 3152.83 391.150  13
   2  -8  11 159.738 173.078   8
   2  -8  11 26.3344 130.585  13
  -2  -8 -11 101.139 141.316  10
   2   8  11 35.1744 162.952  16
   2  -8  11 58.7320 132.571   9
  -2  -8 -12 181.262 159.031  10
   2  -8  12-24.1294 140.259   8
   2  -8  12 541.343 224.808  13
   2  -8  12 232.513 147.710   9
   2   8  12 333.128 223.773  16
  -2  -8 -13 13287.0 699.777  10
   2   8  13 12088.0 811.236  16
   2  -8  13 10401.5 644.820  13
   2  -8  13 12194.6 645.978   9
   2  -8  13 12262.3 721.461   8
   2   8  14 2439.58 387.616  16
   2  -8  14 2157.30 309.898   8
   2  -8  14 2179.25 322.715  13
  -2  -8 -14 2645.75 309.920  10
   2   8  15 17465.4 944.364  16
   2  -8  15 19663.1 865.342   8
   2  -8  16 1942.70 278.615  13
   2  -8  16 1904.19 279.585   8
   2   8  16 2033.70 336.715  16
   2   8  17 17799.3 902.553  16
   2  -8  17 19363.9 803.064   8
   2  -8  18 998.405 188.455  13
   2   8  18 1354.55 272.966  16
   2  -8  18 960.309 219.811   8
   2  -8  19 12978.5 579.284  13
   2  -8  19 18119.6 720.223   8
   3   0 -47 39305.3 1341.99  14
   3   0 -46-114.232 164.164  14
   3   0 -45 3098.77 449.302  14
   3   0 -44 150.657 225.875  14
   3   0 -43 4219.81 572.804  14
   3   0 -42-268.119 226.246  14
   3   0 -41 110.353 243.470  14
   3   0 -40-2.90598 215.303  14
   3   0 -39 18286.9 1333.12  14
   3   0 -38 181.947 265.819  14
  -3   0  37 20782.2 1560.70  16
   3   0 -37 25232.4 1589.86  14
  -3   0  36-98.4089 268.628  16
   3   0 -36 96.4216 266.705  14
  -3   0  35 3053.18 610.620  16
   3   0 -35 3723.36 615.692  14
  -3   0  34-199.693 313.974  16
   3   0 -34 41.2611 267.499  14
   3   0 -33 4339.28 708.344  14
   3   0 -32-219.253 284.915  14
   3   0 -31 1051.81 382.626  14
   3   0 -31-185.848 652.949   5
  -3   0  31 971.123 578.284   3
  -3   0  30-928.725 639.503   3
   3   0 -30 199.171 230.009  14
   3   0 -30-268.088 456.033   5
   3   0 -29 1968.04 452.133  14
  -3   0  29 2420.28 805.252   3
   3   0 -29 1770.38 751.924   5
   3   0 -28-126.533 289.614   5
  -3   0  28 419.603 372.777   3
   3   0 -28-234.262 234.080  14
  -3   0  27 34842.3 2865.36   3
   3   0 -27 32690.0 1676.88  14
   3   0 -27 32883.8 2752.06   5
  -3   0  26 550.551 478.591   3
   3   0 -26-217.515 241.436  14
   3   0 -26 229.510 280.114   5
   3   0 -25 2750.73 478.325  14
  -3   0  25 3348.22 904.219   3
   3   0 -25 3841.54 956.819   5
  -3   0  24-441.615 515.763   3
   3   0 -24 744.505 557.463   5
  -3   0  23 46744.3 3079.00   3
   3   0 -23 41570.5 2916.73   5
  -3   0  22 197.992 384.225   3
   3   0 -22 147.221 364.672   5
  -3   0  21 9999.42 1381.51   3
   3   0 -21 7952.02 1208.50   5
  -3   0  20 81.9710 311.120   3
  -3   0  20 154.382 281.096   1
   3   0 -20-229.791 366.982   5
  -3   0  19 2267.97 702.141   3
  -3   0  19 2531.68 640.864   1
   3   0 -19 1344.42 526.240   5
  -3   0  18-554.153 403.880   3
  -3   0  18 180.824 279.960   1
   3   0 -18-208.675 282.620   5
  -3   0  17 292.585 231.800   1
  -3   0  17 253.237 260.895   3
   3   0 -17 475.650 430.115   5
  -3   0  16-172.315 323.729   3
  -3   0  16-55.3094 206.519   1
   3   0 -16 248.293 312.722   5
  -3   0  15 374.248 350.902   3
  -3   0  15 99.4743 204.115   1
   3   0 -15 510.490 345.692   5
  -3   0  14 61.0954 279.620   3
  -3   0  14 28.8443 245.147   1
   3   0 -14-274.211 248.259   5
  -3   0  13 19866.3 1472.96   3
  -3   0  13 19337.4 1252.66   1
   3   0 -13 19365.3 1561.27   5
  -3   0  12-166.645 243.051   3
  -3   0  12-418.843 277.715   1
   3   0 -12 27.8752 305.039   5
  -3   0  11 1096.68 390.403   3
  -3   0  11 952.807 281.374   1
   3   0 -11 811.316 369.932   5
  -3   0  10 174.310 255.067   3
  -3   0  10-195.144 206.337   1
   3   0 -10-73.8619 290.815   5
  -3   0   9 2350.34 369.803   1
  -3   0   9 2322.76 483.156   3
   3   0  -9 2373.73 549.143   5
  -3   0   8 61.3078 150.824   1
  -3   0   8 216.745 240.445   3
   3   0  -8-17.0372 219.924   5
  -3   0   7 13255.6 972.405   3
  -3   0   7 13500.5 772.491   1
   3   0  -7 13692.3 1161.39   5
   3   0  -6 127.895 189.704   5
  -3   0   6-87.5271 196.425   3
   3   0  -6 79.5384 251.225   6
  -3   0   6-25.7483 122.727   1
   3   0  -5 283.654 234.281   5
  -3   0   5 542.270 197.613   1
  -3   0   5 394.350 222.803   3
   3   0  -5 292.823 232.982   6
   3   0  -5 395.359 233.192   2
   3   0  -4 88.6189 218.704   6
  -3   0   4 120.699 182.340   1
  -3   0   4 80.9543 152.530   3
   3   0  -4 28.4214 179.154   2
   3   0  -4-176.915 236.648   5
   3   0  -3 22490.3 1136.35   2
   3   0  -3 24200.5 1275.79   6
  -3   0   3 24603.1 974.594   1
   3   0  -3 25805.0 1437.28   5
   3   0  -2 92.6869 165.378   2
   3   0  -2 56.7788 246.638   6
  -3   0   2-15.5037 130.909   1
   3   0  -2 155.064 231.553   5
   3   0  -1 934.194 223.758   2
   3   0  -1 1069.90 312.887   6
   3   0  -1 1378.10 426.706   5
   3   0   0-17.7588 192.096   6
   3   0   0 4.77105 123.360   2
  -3   0   0 36.6858 124.253  18
   3   0   0 156.212 208.813   5
   3   0   1 7720.60 584.668   2
   3   0   1 7737.46 798.135   5
  -3   0  -1 6936.70 715.457  18
   3   0   1 7652.81 732.242   6
   3   0   2 91.2556 224.498   6
  -3   0  -2 203.605 248.092  18
   3   0   2-29.5048 115.884   2
   3   0   2 215.003 236.830   5
  -3   0  -3 109.888 249.740  18
   3   0   3 135.477 186.022   6
   3   0   3 519.848 288.384   5
   3   0   3 224.058 120.899   2
   3   0   4 128.948 117.808   2
  -3   0  -4 169.295 308.490  18
   3   0   4 226.878 257.899   6
   3   0   4 6.43839 231.043   5
  -3   0  -5 9817.18 1020.97  18
  -3   0  -5 7983.46 484.891  17
   3   0   5 9071.79 867.779   6
   3   0   5 8844.54 707.394   2
   3   0   6 22.3451 293.158   6
   3   0   6-16.8349 134.450   2
  -3   0  -6 4.46897 70.8798  17
  -3   0  -6-397.573 357.656  18
  -3   0  -7 6738.04 932.242  18
  -3   0  -7 5868.40 403.848  17
   3   0   7 7975.12 881.885   6
   3   0   7 8001.60 728.154   2
   3   0   8-8.89733 147.044   2
  -3   0  -8 54.0266 94.3509  17
  -3   0  -8 466.183 402.163  18
   3   0   8 112.989 264.093   6
   3   0   9 702.956 250.007   2
  -3   0  -9 1086.33 477.178  18
   3   0   9 666.926 292.552   6
   3   0  10 86.7253 183.398   2
  -3   0 -10-161.738 329.384  18
   3   0  10-329.015 314.146   6
  -3   0 -11 6345.29 1029.19  18
   3   0  11 6368.61 883.287   6
   3   0  11 6225.88 813.820   2
   3   0  12 127.947 255.416   2
   3   0  12-35.0493 244.954   6
  -3   0 -12-147.177 397.396  18
   3   0  13 177.318 250.868   2
  -3   0 -13 618.175 580.777  18
   3   0  13 71.4071 237.289   6
   3   0  13-27.4015 127.632   3
   3   0  14-47.7821 219.212   2
  -3   0 -14-304.083 382.658  18
   3   0  14 10.1990 144.671   3
   3   0  14-200.297 303.154   6
   3   0  15 11817.6 1036.26   3
   3   0  15 13336.0 1433.22   6
  -3   0 -15 10894.7 1532.53  18
   3   0  15 11805.8 1246.71   2
   3   0  16-309.325 313.081   3
   3   0  16 30.2066 235.355   2
   3   0  16-108.872 316.393   6
  -3   0 -16 544.409 394.536  18
   3   0  17 15431.5 1284.98   3
   3   0  17 16028.3 1644.53   6
   3   0  17 14773.0 1497.59   2
  -3   0 -17 13277.2 1758.73  18
   3   0  18-58.0759 249.214   3
   3   0  18-4.46562 264.148   2
  -3   0 -18 85.3930 355.043  18
   3   0  18-92.4385 337.098   6
  -3   0 -19 20419.8 2274.38  18
   3   0  19 22081.0 1673.97   3
   3   0  19 22632.4 2053.89   6
   3   0  19 21667.5 1878.99   2
   3   0  20-139.988 269.703   2
  -3   0 -20-261.244 479.226  18
   3   0  20 163.440 334.641   6
   3   0  20-313.297 262.754   3
  -3   0 -21 361.080 358.075  18
   3   0  21-428.283 338.138   2
   3   0  21-165.140 183.679   3
   3   0  21 174.730 284.479   6
   3   0  22 6.19348 253.968   2
  -3   0 -22 77.8853 464.352  18
   3   0  22 52.9583 348.087   6
   3   0  23-560.697 386.393   2
   3   0  23 126.550 172.977   7
   3   0  23-310.699 444.207   6
  -3   0 -23 266.553 411.510  18
   3   0  24 11.7878 159.574  12
   3   0  24 754.352 467.601   2
   3   0  24 282.308 207.361   7
  -3   0 -24 110.498 541.979  18
   3   0  24-158.624 482.750   6
   3   0  24 262.615 271.663  16
   3   0  25 20070.1 1170.63   7
   3   0  25 22203.1 1548.82  16
  -3   0 -25 21714.3 2647.71  18
   3   0  25 18652.9 1067.52  12
   3   0  25 21860.0 2337.06   6
   3   0  25 20428.3 2179.31   2
   3   0  26-376.628 323.506  16
   3   0  26-2.73674 155.010  12
   3   0  26 118.074 376.106   2
   3   0  26 75.7945 176.904   7
  -3   0 -26-291.274 421.140  18
   3   0  26 273.673 409.399   6
   3   0  27 17272.1 1076.92  12
   3   0  27 19153.1 1504.68  16
  -3   0 -27 17562.8 2502.55  18
   3   0  27 21441.7 2443.01   6
   3   0  27 15939.0 2068.19   2
   3   0  27 17519.5 1137.77   7
   3   0  28-514.451 298.994  12
  -3   0 -28 470.974 576.481  18
   3   0  28 417.131 349.645   2
   3   0  28 300.510 220.615   7
   3   0  28 78.3124 388.724   6
   3   0  28 179.719 332.911  16
   3   0  29 5326.58 883.681  16
   3   0  29 4011.81 503.231  12
   3   0  29 4104.48 585.825   7
   3   0  29 2731.77 893.668   2
  -3   0 -29 3958.41 1211.53  18
   3   0  29 3951.60 1114.90   6
   3   0  30-119.528 160.493  12
   3   0  30-264.921 189.377   7
   3   0  30-234.458 425.872  16
   3   0  31 2819.02 433.712  12
   3   0  31 2388.45 440.438   7
   3   0  31 3104.04 670.249  16
   3   0  32-132.212 149.107  12
   3   0  32 39.7392 161.277   7
   3   0  32 375.399 450.281  16
   3   0  33 8006.18 707.213  12
   3   0  33 8113.71 751.438   7
   3   0  33 9135.17 1098.49  16
   3   0  34-50.7186 209.439   7
   3   0  34-97.2604 304.271  16
   3   0  35 4276.12 569.899   7
   3   0  35 4375.88 796.815  16
   3   0  36 23.1748 158.256   7
   3   0  36 284.813 377.376  16
   3   0  37 2032.11 355.399   7
   3   0  37 1998.31 527.396  16
   3   0  38-233.926 245.804   7
   3   0  38-139.728 335.461  16
   3   0  39 10174.9 1099.98  16
   3   0  39 10528.2 744.275   7
   3   0  40-74.1913 140.444   7
   3   0  40-299.405 350.137  16
   3   0  41 662.680 326.254  16
   3   0  41 807.154 211.358   7
   3   0  42 215.247 271.219  16
   3   0  43 1566.53 370.934  16
   3   0  44 30.8839 191.773  16
   3  -1 -47 1141.62 239.998  14
   3   1 -47 1469.68 301.950  14
   3  -1 -46 3590.08 422.978  14
   3   1 -46 3646.08 462.765  14
   3   1 -45 1240.60 312.081  14
   3  -1 -45 1503.68 318.340  14
   3  -1 -44 432.647 244.959  14
   3   1 -44 488.765 339.249  14
   3   1 -43 25059.8 1372.89  14
   3  -1 -43 25203.4 1305.29  14
   3   1 -42 947.017 343.116  14
  -3  -1  42 293.516 229.522  16
   3  -1 -42 1180.29 372.011  14
   3   1 -41 39115.8 1850.85  14
   3  -1 -41 35365.1 1697.50  14
   3  -1 -40 1022.25 294.093  14
  -3  -1  40 653.484 268.553  16
   3   1 -40 1437.07 452.770  14
  -3  -1  39 2900.26 615.249  16
   3  -1 -39 3167.47 541.282  14
   3   1 -39 3868.42 649.437  14
   3  -1 -38 6092.13 764.282  14
   3   1 -38 6266.70 835.786  14
  -3  -1  38 4342.31 740.929  16
   3   1 -37 4435.06 676.750  14
  -3  -1  37 4889.48 800.085  16
   3  -1 -37 4867.03 680.839  14
   3   1 -36 7559.15 915.926  14
   3  -1 -36 6059.93 784.946  14
  -3  -1  36 6004.79 880.756  16
   3   1 -35 9072.26 990.849  14
  -3  -1  35 7248.44 1011.35  16
   3  -1 -35 8712.65 964.880  14
   3   1 -34 18206.6 1401.21  14
   3  -1 -34 16905.0 1318.98  14
  -3  -1  34 16205.3 1458.66  16
   3   1 -33 2181.24 533.512  14
   3  -1 -33 2702.86 551.742  14
  -3  -1  33 1844.68 517.076  16
   3   1 -32 14786.1 1230.72  14
   3  -1 -32 11479.8 1701.63  13
  -3  -1  32 13706.1 1356.79  16
   3  -1 -32 13657.5 1184.44  14
  -3   1  31 1605.21 746.256   3
  -3  -1  31 620.979 330.330  16
   3   1 -31 1331.64 456.411  14
   3  -1 -31 1463.04 475.872  14
   3  -1 -31 1942.50 888.534  13
   3  -1 -31 2031.89 916.025   5
  -3  -1  30 43535.3 3458.07   3
  -3   1  30 41670.9 3389.78   3
  -3  -1  30 38829.9 2230.39  16
   3   1 -30 42506.5 2030.47  14
   3  -1 -30 42747.7 3454.89   5
   3  -1 -30 41580.1 2007.02  14
  -3  -1  29 10566.8 1149.84  16
  -3  -1  29 11072.2 1726.01   3
  -3   1  29 10551.2 1684.37   3
   3   1 -29 11635.0 1086.47  14
   3  -1 -29 9911.23 944.586  15
   3   1 -29 13847.5 1926.55   5
   3  -1 -29 10170.2 1656.54   5
   3  -1 -29 10649.4 1012.16  14
   3  -1 -29 8320.59 1340.39  13
  -3  -1  28 32702.7 2905.41   3
  -3   1  28 31471.1 2850.60   3
   3   1 -28 34408.7 1790.45  14
  -3  -1  28 33162.8 2005.45  16
   3  -1 -28 34518.2 1782.56  14
   3   1 -28 31698.8 2681.40   5
   3  -1 -28 32302.6 2903.66   5
   3  -1 -28 24340.9 2131.19  13
   3  -1 -28 31823.6 1668.51  15
   3  -1 -27 377.833 327.262  15
   3  -1 -27 368.881 265.334  14
   3   1 -27-297.682 274.862  14
  -3  -1  27-469.753 610.938   3
   3  -1 -27-150.462 361.411   5
  -3  -1  27-246.043 317.476  16
  -3   1  27 168.705 409.611   3
   3   1 -27-191.158 441.084   5
   3  -1 -27-396.885 346.458  13
   3  -1 -26 29855.8 1609.98  14
  -3   1  26 30974.6 2682.35   3
  -3  -1  26 31464.4 2729.08   3
   3   1 -26 31186.8 1648.22  14
   3  -1 -26 28595.4 1547.69  15
  -3  -1  26 26353.8 2388.58   1
   3   1 -26 28408.0 2470.03   5
   3  -1 -26 29954.2 2746.87   5
   3  -1 -26 21135.7 1873.43  13
   3  -1 -25 466.408 220.294  14
  -3  -1  25 926.656 515.839   3
  -3   1  25 826.497 496.719   3
   3   1 -25 682.368 284.393  14
  -3  -1  25 547.535 418.702   1
   3   1 -25 1034.98 386.046   5
   3  -1 -25 1019.00 581.050   5
  -3   1  24 22683.8 2187.07   3
  -3  -1  24 22912.7 2226.17   3
  -3  -1  24 21202.0 2033.41   1
   3   1 -24 21963.7 2028.75   5
   3  -1 -24 22573.3 2251.55   5
   3   1 -23 207.834 321.581   5
  -3   1  23 568.237 449.296   3
  -3  -1  23 3.95988 334.077   1
  -3  -1  23 108.882 320.496   3
   3  -1 -23-89.6840 357.263   5
  -3  -1  22 345.100 317.345   3
  -3   1  22 1200.43 582.064   3
  -3  -1  22 904.372 559.218   1
   3   1 -22 942.803 402.922   5
   3  -1 -22 982.152 537.502   5
  -3  -1  21 99838.7 4289.59   3
   3   1 -21 91995.4 3892.35   5
  -3   1  21 97266.0 4198.22   3
  -3  -1  21 94276.1 3888.67   1
   3  -1 -21 95158.2 4303.69   5
  -3  -1  20 12032.1 1468.82   3
  -3   1  20 11283.4 1404.13   3
  -3  -1  20 11030.1 1316.80   1
   3   1 -20 10007.8 1306.20   5
   3  -1 -20 10865.5 1443.65   5
  -3  -1  19 685.688 401.470   1
  -3  -1  19 946.983 385.533   3
  -3   1  19 690.213 400.339   3
   3   1 -19 1020.65 457.601   5
   3  -1 -19 915.209 473.086   5
  -3   1  18 16677.2 1613.74   3
  -3  -1  18 15767.7 1619.86   3
   3  -1 -18 16140.0 1700.40   5
  -3  -1  18 16433.3 1497.82   1
   3   1 -18 15900.2 1530.99   5
  -3  -1  17 1103.33 505.729   3
  -3   1  17 1360.57 504.849   3
  -3  -1  17 1273.63 456.289   1
   3   1 -17 1348.21 536.149   5
   3  -1 -17 1718.42 615.046   5
  -3  -1  16 2625.60 608.651   1
  -3  -1  16 3627.92 750.474   3
  -3   1  16 3119.69 684.315   3
   3   1 -16 2990.40 666.690   5
   3  -1 -16 2939.46 784.585   5
  -3  -1  15 23510.4 1786.85   3
   3   1 -15 21451.6 1712.77   5
  -3   1  15 22699.6 1674.89   3
  -3  -1  15 22557.3 1614.62   1
   3  -1 -15 21147.0 1785.04   5
  -3  -1  14 24092.9 1625.85   1
  -3  -1  14 26798.7 1801.00   3
  -3   1  14 25513.6 1692.26   3
   3   1 -14 25129.3 1739.93   5
   3  -1 -14 22314.2 1849.05   5
  -3  -1  13 29484.2 1874.82   3
  -3   1  13 30535.2 1797.26   3
  -3  -1  13 29803.0 1723.84   1
   3   1 -13 28384.4 1854.05   5
   3  -1 -13 28715.0 1954.50   5
  -3  -1  12 9496.05 1043.69   3
  -3   1  12 8568.69 939.124   3
   3  -1 -12 8257.15 1044.32   5
  -3  -1  12 9115.07 959.428   1
   3   1 -12 10063.6 1071.05   5
  -3  -1  11 20870.8 1506.13   3
  -3   1  11 19958.1 1352.56   3
  -3  -1  11 19832.8 1345.73   1
   3   1 -11 21510.2 1507.96   5
   3  -1 -11 21585.6 1586.17   5
  -3  -1  10 2113.48 499.278   3
   3   1 -10 2416.04 594.771   2
  -3   1  10 2134.19 495.124   3
  -3  -1  10 2426.63 488.892   1
   3   1 -10 2878.55 604.446   5
   3  -1 -10 2120.38 509.897   5
  -3  -1   9 8410.12 920.703   3
   3   1  -9 9229.59 1033.09   2
  -3  -1   9 8142.55 811.374   1
  -3   1   9 7971.86 791.879   3
   3   1  -9 9130.73 973.179   5
   3  -1  -9 8984.19 981.591   5
   3   1  -8 3783.26 673.662   2
  -3   1   8 3654.58 511.886   3
  -3  -1   8 3436.36 528.888   1
   3   1  -8 3261.72 606.669   5
   3  -1  -8 4151.78 667.544   5
  -3  -1   7 255.834 173.575   1
   3  -1  -7 179.998 204.727   6
  -3   1   7 191.902 223.357   3
   3   1  -7 372.097 324.161   2
   3   1  -7 459.330 350.420   5
   3  -1  -7 272.761 219.926   5
  -3  -1   6 11980.9 914.282   1
   3   1  -6 10876.8 1064.40   2
  -3   1   6 11220.2 808.463   3
   3   1  -6 12856.2 1118.46   5
   3  -1  -6 12743.3 1051.72   6
   3  -1  -6 12746.2 1090.59   5
  -3  -1   5 7215.43 707.160   1
   3  -1  -5 6752.00 765.447   5
   3   1  -5 6312.60 832.950   2
  -3   1   5 6449.30 554.570   3
   3  -1  -5 6927.04 786.596   6
   3   1  -5 6801.38 812.807   5
  -3   1   4 70.7221 120.815   3
  -3  -1   4 70.7093 172.352   1
   3   1  -4-27.7338 209.490   6
   3   1  -4 453.305 306.756   2
   3  -1  -4 4.81276 211.377   6
   3   1  -4 213.708 230.996   5
   3  -1  -4 332.919 274.353   5
   3   1  -3 15295.7 1165.57   2
  -3   1   3 15075.0 675.671   3
   3   1  -3 15572.0 922.663   6
  -3  -1   3 13642.3 569.051  18
   3  -1  -3 16365.7 1162.94   6
   3  -1  -3 14940.2 1096.81   5
   3   1  -3 16009.7 1191.07   5
  -3  -1   3 15026.8 1044.60   1
   3   1  -2 11008.4 963.473   2
   3   1  -2 11937.1 990.615   5
   3  -1  -2 10990.1 935.061   5
  -3   1   2 9836.28 463.870   3
   3   1  -2 10624.6 761.780   6
   3  -1  -2 11652.2 980.941   6
  -3  -1   2 11084.9 871.087   1
  -3  -1   2 10926.3 626.456  18
  -3  -1   1 1886.37 414.002   1
   3   1  -1 2132.43 479.201   2
  -3  -1   1 1701.58 333.472  18
   3  -1  -1 2069.55 460.464   6
   3   1  -1 1694.59 309.491   6
   3  -1  -1 1938.07 417.222   5
  -3   1   1 938.868 110.525   1
   3   1  -1 1632.49 411.533   5
   3   1   0 99025.7 2650.05   2
   3  -1   0 97399.1 2779.89   6
  -3  -1   0 90913.8 2231.04  18
   3   1   0 92514.0 2184.08   6
   3   1   0 99954.1 2921.52   5
   3  -1   0 93632.3 2540.01   5
   3  -1   1 464.185 325.130   6
   3   1   1 339.002 314.023   2
   3   1   1 343.717 221.995   6
  -3  -1  -1 36.6678 200.500  18
   3   1   1 173.526 250.414   5
   3  -1   1 39.3282 214.986   5
  -3  -1  -2 85867.3 2485.47  18
   3   1   2 88000.4 2171.99   6
   3  -1   2 91086.4 2734.75   6
   3  -1   2 86664.9 2371.31   5
   3   1   2 94005.4 2600.97   2
   3  -1   3 25336.4 1311.18   5
   3   1   3 27173.8 1235.26   6
   3  -1   3 27601.2 1536.69   6
  -3  -1  -3 26467.2 1475.46  18
   3   1   3 27636.0 1433.57   2
   3  -1   4 112803. 2815.65   5
  -3  -1  -4 112434. 3167.87  18
   3   1   4 114655. 2623.18   6
   3  -1   4 123111. 3267.90   6
   3   1   4 123830. 3096.62   2
   3   1   5 2948.64 529.799   2
   3  -1   5 2342.41 250.934   2
  -3  -1  -5 2355.04 505.899  18
   3  -1   5 2486.90 526.791   6
   3   1   5 2189.78 374.585   6
  -3  -1  -6 130906. 3742.11  18
   3  -1   6 145508. 3747.41   6
   3   1   6 135822. 3124.46   6
   3  -1   6 131130. 2135.33   2
   3   1   6 148540. 3578.79   2
   3   1   7 31221.0 1545.74   6
  -3  -1  -7 31378.2 1921.39  18
  -3   1  -7 31232.7 1580.45  17
   3  -1   7 34601.3 1884.27   6
   3   1   7 33815.3 1757.20   2
  -3   1  -7 34313.6 2144.18  18
   3  -1   7 31333.1 1163.11   2
   3  -1   8 93842.0 3205.42   6
  -3   1  -8 91568.1 3563.07  18
  -3  -1  -8 85476.7 3269.62  18
  -3   1  -8 86648.2 2646.62  17
   3   1   8 88604.9 2713.67   6
   3  -1   8 87191.5 2099.10   2
   3   1   8 93121.2 2987.84   2
   3   1   9 304.434 226.707   2
   3  -1   9 242.983 164.461   2
  -3   1  -9 476.255 372.061  18
  -3   1  -9 649.778 312.421  17
   3  -1   9 18.3533 291.747   6
   3   1   9 193.126 212.103   6
  -3  -1  -9 462.510 332.748  18
  -3  -1 -10 12987.1 1411.15  18
   3   1  10 10671.2 1023.39   6
   3  -1  10 10961.1 1189.28   6
  -3   1 -10 13266.7 1094.70  17
  -3   1 -10 14135.9 1513.94  18
   3   1  10 10598.6 1099.71   2
  -3   1 -11 17953.6 1768.91  18
  -3   1 -11 17704.2 1282.41  17
   3   1  11 19190.3 1442.29   6
   3  -1  11 19959.0 1643.03   6
   3   1  11 19271.9 1551.03   2
  -3  -1 -11 19357.1 1770.45  18
  -3   1 -12 2109.18 684.379  18
  -3  -1 -12 2508.55 743.280  18
  -3   1 -12 1458.17 379.866  17
   3   1  12 2411.64 607.536   2
   3  -1  12 2082.62 590.141   6
   3   1  12 2122.80 601.588   6
  -3   1 -13 710.866 485.356  18
   3   1  13-0.87823 292.831   6
   3   1  13-105.570 294.377   2
  -3  -1 -13 299.646 404.672  18
   3  -1  13-292.219 289.797   6
  -3   1 -13 181.707 245.718  17
   3   1  14 2874.55 684.333   2
  -3  -1 -14 1869.41 649.642  18
   3   1  14 1714.62 506.839   6
  -3   1 -14 1340.44 432.018  17
  -3   1 -14 1341.78 643.215  18
   3  -1  14 2179.59 586.193   6
   3   1  15 15066.5 1441.98   6
  -3   1 -15 12765.5 1676.46  18
  -3  -1 -15 14767.7 1710.18  18
  -3   1 -15 13462.8 1257.50  17
   3  -1  15 15380.2 1623.67   6
   3   1  15 14556.5 1535.66   2
   3  -1  16 3516.95 852.942   6
   3   1  16 3923.69 804.814   2
  -3   1 -16 2764.11 755.533  18
   3   1  16 3229.44 731.621   6
  -3  -1 -16 3055.45 854.781  18
  -3   1 -17 1755.22 745.421  18
   3   1  17 1205.35 546.548   2
  -3  -1 -17 1892.27 771.099  18
   3  -1  17 1304.74 548.614   6
   3   1  17 1498.41 529.539   6
  -3   1 -18 2569.21 988.023  18
   3   1  18 2717.35 652.676   2
  -3  -1 -18 2625.31 831.535  18
   3  -1  18 2690.64 757.629   6
   3   1  18 2619.29 682.057   6
  -3  -1 -19 11858.1 1741.12  18
   3  -1  19 11105.7 1551.29   6
  -3   1 -19 11327.3 1767.97  18
   3   1  19 10907.4 1466.00   6
   3   1  19 10570.6 1444.46   2
   3  -1  20 12029.5 1625.58   6
  -3   1 -20 9390.75 1616.26  18
  -3  -1 -20 11327.8 1695.27  18
   3   1  20 10442.8 1476.05   6
   3   1  20 10834.5 1540.47   2
   3   1  21 48.8436 310.337   6
  -3   1 -21-403.734 501.585  18
   3   1  21 587.946 465.527   2
  -3  -1 -21-429.715 443.213  18
   3  -1  21-423.673 465.992   6
   3   1  22 40.7679 407.885   6
   3   1  22 214.099 279.535   2
   3  -1  22 366.227 179.004   7
  -3   1 -22 317.251 531.761  18
  -3  -1 -22 259.706 588.182  18
   3  -1  22 385.828 395.430   6
   3  -1  23-38.3559 245.649  16
  -3  -1 -23-24.3885 459.475  18
   3  -1  23 131.822 166.232  12
   3   1  23 50.6021 152.179   7
   3   1  23 460.904 455.023   2
   3  -1  23 231.677 230.467   7
  -3   1 -23-553.354 501.495  18
   3   1  23-115.053 258.031  16
   3  -1  23 27.7872 384.618   6
   3   1  23 85.3822 317.807   6
   3  -1  24 580.572 267.516  12
   3   1  24 1083.15 577.399   2
   3  -1  24 598.480 237.423   7
   3   1  24 503.107 258.344   7
  -3   1 -24 844.991 762.746  18
  -3  -1 -24 966.958 665.670  18
   3   1  24 685.874 340.156  16
   3  -1  24 1012.14 581.527   6
   3   1  24 597.788 424.895   6
   3  -1  24 815.930 379.888  16
   3  -1  25 30.4478 180.523  12
   3   1  25 925.461 601.749   2
   3  -1  25 127.891 178.971   7
   3   1  25 222.245 177.837   7
  -3   1 -25 84.4965 440.092  18
  -3  -1 -25-42.0708 390.611  18
   3  -1  25-28.2318 273.755  16
   3   1  25-199.897 260.324  16
   3  -1  25 515.228 555.884   6
   3   1  25-68.2496 405.247   6
   3  -1  26 6.28115 190.777  12
   3  -1  26 429.962 244.494   7
   3   1  26-95.9025 403.182   2
   3   1  26 382.089 211.971   7
  -3   1 -26-7.78329 453.116  18
  -3  -1 -26-58.0592 675.512  18
   3  -1  26 74.5603 444.869   6
   3   1  26 347.284 227.600  16
   3   1  26 226.578 322.458   6
   3  -1  26 323.652 354.262  16
   3  -1  27 700.158 288.255  16
  -3   1 -27 724.593 444.873  18
   3  -1  27 1006.05 349.152   7
   3   1  27 474.764 498.243   2
   3   1  27 1037.08 291.708   7
  -3  -1 -27 1005.75 709.492  18
   3   1  27 634.666 311.022  16
   3  -1  27 853.024 589.613   6
   3   1  27 525.728 614.375   6
   3  -1  27 1082.02 299.412  12
   3  -1  28 3575.80 633.973  16
   3  -1  28 3776.13 540.267  12
   3  -1  28 4031.30 1238.33   6
   3  -1  28 3818.40 544.081   7
   3   1  28 3919.59 1069.99   2
   3   1  28 3000.62 467.029   7
  -3   1 -28 3890.48 1308.86  18
  -3  -1 -28 4355.46 1262.76  18
   3   1  28 3192.07 897.254   6
   3   1  28 3530.46 693.070  16
   3  -1  29 1356.56 388.379  12
   3  -1  29 1601.99 365.770   7
   3   1  29 1151.01 325.194   7
   3  -1  29 1347.32 520.032  16
   3   1  29 1410.51 438.884  16
   3   1  29 1638.72 829.095   6
   3  -1  30 22400.2 1299.83  12
   3  -1  30 22991.8 1334.71   7
   3  -1  30 24517.1 1769.23  16
   3   1  30 22291.7 1640.90  16
   3   1  30 21179.0 1217.65   7
   3  -1  31 1753.73 366.179  12
   3  -1  31 1732.62 408.285   7
   3   1  31 1656.90 364.732   7
   3  -1  31 2401.30 603.728  16
   3   1  31 2324.59 608.834  16
   3  -1  32 6378.76 699.703  12
   3   1  32 5480.99 616.180   7
   3  -1  32 5757.50 871.226  16
   3   1  32 5736.34 852.012  16
   3  -1  32 5528.30 657.774   7
   3  -1  33 14170.3 1029.82  12
   3  -1  33 13464.2 988.962   7
   3   1  33 12832.4 937.962   7
   3  -1  33 14045.1 1367.81  16
   3   1  33 14046.5 1313.69  16
   3  -1  34 5530.74 624.126   7
   3   1  34 5909.34 612.522   7
   3  -1  34 5202.17 832.762  16
   3   1  34 4738.71 806.425  16
   3  -1  34 5380.99 632.161  12
   3  -1  35 9859.40 825.814   7
   3  -1  35 10067.3 828.233  12
   3   1  35 9172.24 776.069   7
   3   1  35 10610.3 1168.68  16
   3  -1  35 10177.4 1143.65  16
   3  -1  36 7435.29 733.557   7
   3   1  36 7453.06 667.850   7
   3  -1  36 8126.63 980.196  16
   3   1  36 8338.32 1035.88  16
   3  -1  36 7985.94 708.794  12
   3  -1  37 2461.29 402.718  12
   3  -1  37 2340.91 431.450   7
   3   1  37 1832.02 322.590   7
   3  -1  37 2797.01 596.478  16
   3   1  37 1309.29 517.403  16
   3   1  38 5737.18 860.601  16
   3  -1  38 6937.70 645.276   7
   3  -1  38 6859.22 607.055  12
   3  -1  38 6394.10 849.324  16
   3  -1  39 10098.9 738.517   7
   3   1  39 11617.5 1058.46  16
   3  -1  39 10620.3 1051.59  16
   3  -1  39 10210.9 686.675  12
   3  -1  40 1595.26 291.574   7
   3  -1  40 2199.71 553.631  16
   3  -1  40 1693.87 276.687  12
   3   1  40 2259.28 484.957  16
   3  -1  41 297.906 112.270  12
   3  -1  41 346.184 308.753  16
   3   1  42 650.882 293.198  16
   3  -1  42 590.894 307.095  16
   3  -1  43 545.025 255.866  16
   3   1  43 1112.96 322.455  16
   3  -1  44 697.597 269.903  16
   3   1  44 740.335 271.186  16
  -3  -2  46 2940.72 290.869  12
   3  -2 -46 3090.11 352.685  14
   3   2 -46 2864.53 408.045  14
   3   2 -45 427.102 224.508  14
   3  -2 -45 315.725 203.653  14
   3  -2 -44 3434.39 474.253  14
   3   2 -44 2717.25 453.677  14
  -3  -2  43 2443.94 390.531  16
   3   2 -43 3170.30 529.698  14
   3  -2 -43 2554.41 444.667  14
  -3  -2  42 2773.17 479.076  16
   3  -2 -42 3659.06 510.185  14
  -3  -2  41 4.72940 229.001  16
   3  -2 -41 244.810 284.525  14
   3   2 -41 156.439 233.705  14
  -3  -2  40 2638.18 556.206  16
   3   2 -40 2704.04 548.691  14
   3  -2 -40 2252.29 454.435  14
  -3  -2  39 356.715 332.043  16
   3  -2 -39 189.376 215.429  14
   3   2 -39 299.504 349.563  14
  -3  -2  38 9566.70 1008.93  16
   3   2 -38 11909.2 1119.01  14
   3  -2 -38 11722.2 1032.35  14
  -3  -2  37 447.349 315.114  16
   3  -2 -37 523.336 333.826  14
   3   2 -37 550.515 302.947  14
   3  -2 -36 478.484 322.540  14
  -3  -2  36 220.544 339.784  16
   3   2 -36 682.111 364.556  14
   3  -2 -36 88.4166 573.336  13
   3   2 -35 8522.68 975.421  14
  -3  -2  35 6361.40 926.480  16
   3  -2 -35 7448.00 854.585  14
   3  -2 -35 5101.57 1325.18  13
  -3  -2  34 4742.83 844.828  16
   3   2 -34 5139.11 783.362  14
   3  -2 -34 5409.48 765.764  14
   3  -2 -34 3054.72 925.225  13
   3  -2 -33 1297.45 425.341  14
  -3  -2  33 1379.62 499.669  16
   3   2 -33 1915.41 499.376  14
   3  -2 -33 949.368 538.449  13
  -3  -2  32 90.5441 339.506  16
   3  -2 -32-466.447 568.584  13
   3   2 -32 235.086 258.726  14
   3  -2 -32-71.4221 319.799  14
   3  -2 -31 373.565 219.945  15
   3  -2 -31 538.618 355.395  14
  -3  -2  31 364.263 462.692  16
   3   2 -31 1296.54 519.167  14
   3  -2 -31 100.280 591.924  13
   3  -2 -30 502.796 589.119  13
   3  -2 -30 399.622 312.193  15
  -3  -2  30 167.588 275.899  16
   3   2 -30 355.883 232.356  14
   3  -2 -30 631.919 343.802  14
  -3  -2  29 19790.0 2307.06   1
  -3  -2  29 19466.9 2251.79   3
   3  -2 -29 20478.9 2461.18   5
  -3   2  29 19092.5 2293.44   3
  -3  -2  29 19734.8 1654.10  16
   3  -2 -29 19485.9 1388.56  15
   3   2 -29 21884.5 1523.51  14
   3  -2 -29 18848.9 1382.84  14
   3  -2 -29 15289.6 1616.22  13
   3  -2 -28-11.8365 401.435  13
  -3  -2  28 331.271 509.407   3
  -3  -2  28 115.848 295.098  16
  -3  -2  28-324.152 458.305   1
  -3   2  28-73.6300 397.924   3
   3  -2 -28 86.9568 214.501  15
   3   2 -28 107.843 196.572  14
   3  -2 -28 7.29892 225.392  14
   3  -2 -28 70.9099 486.847   5
   3  -2 -27-59.3490 377.732  13
  -3  -2  27-217.836 363.602   3
  -3  -2  27 237.189 302.192  16
  -3  -2  27 671.598 676.176   1
  -3   2  27-767.817 719.384   3
   3  -2 -27-99.6476 214.958  15
   3   2 -27 112.975 218.181  14
   3  -2 -27 28.2843 195.253  14
   3  -2 -27 282.728 437.187   5
   3  -2 -26 116.561 294.615  13
   3   2 -26 654.770 342.401  14
   3  -2 -26 440.347 206.075  15
  -3  -2  26 1962.74 738.757   1
  -3  -2  26 653.584 417.198  16
  -3  -2  26 1132.58 632.957   3
  -3   2  26 894.518 655.249   3
   3  -2 -26 1330.50 686.208   5
   3  -2 -25 309.504 470.056   5
   3  -2 -25-109.480 277.651  13
   3   2 -25-56.5440 205.484  14
  -3  -2  25 179.068 268.501  16
  -3  -2  25-772.120 571.627   3
  -3  -2  25-204.242 473.354   1
   3  -2 -25-58.2137 231.504  15
  -3   2  25-131.156 312.395   3
   3  -2 -24 2291.90 825.142   5
   3  -2 -24 1327.06 428.938  13
   3  -2 -24 1608.70 350.668  10
  -3  -2  24 1994.21 512.615  16
  -3  -2  24 1890.92 724.589   3
   3  -2 -24 1299.23 400.637  15
  -3  -2  24 1487.57 711.755   1
  -3   2  24 1569.42 616.899   3
   3   2 -24 1401.43 357.617  14
   3  -2 -23 404.419 444.394   5
  -3   2  23 573.824 482.649   3
  -3  -2  23 869.547 502.914   1
   3  -2 -23 803.903 247.274  10
   3  -2 -23 775.363 337.636  15
  -3  -2  23 957.710 516.370   3
   3   2 -23 707.185 259.733  14
  -3  -2  22 9210.25 1422.11   3
  -3   2  22 8377.05 1302.23   3
  -3  -2  22 7235.62 1264.41   1
   3   2 -22 7790.11 1146.81   5
   3  -2 -22 8628.49 1462.94   5
   3  -2 -21 1083.07 560.382   5
  -3  -2  21 562.809 446.540   1
  -3  -2  21 564.654 443.680   3
  -3   2  21 974.186 447.599   3
   3   2 -21 1033.83 512.448   5
   3   2 -20 39685.8 2447.77   5
  -3  -2  20 42203.4 2791.24   3
  -3   2  20 40276.7 2665.22   3
  -3  -2  20 39509.1 2670.66   1
   3  -2 -20 41264.0 2894.28   5
   3  -2 -19 5438.90 1087.36   5
  -3  -2  19 5971.31 1070.80   3
  -3  -2  19 5923.04 1022.01   1
  -3   2  19 5654.88 988.701   3
   3   2 -19 6061.50 957.447   5
  -3  -2  18 37847.6 2439.77   1
  -3  -2  18 38625.1 2554.20   3
  -3   2  18 34347.8 2319.05   3
   3  -2 -18 34709.9 2535.19   5
   3   2 -18 36075.8 2250.64   5
   3  -2 -17 356.618 433.526   5
  -3  -2  17-196.902 358.334   3
  -3   2  17-221.232 408.843   3
  -3  -2  17-248.725 364.369   1
   3   2 -17-20.2632 252.981   5
  -3  -2  16 180890. 5260.14   3
   3   2 -16 172635. 4723.60   5
  -3   2  16 161930. 4743.26   3
  -3  -2  16 173135. 4942.08   1
   3  -2 -16 165859. 5166.93   5
   3  -2 -15 1005.16 526.039   5
  -3   2  15 752.021 396.893   3
  -3  -2  15 689.199 365.749   3
  -3  -2  15 1001.04 551.212   1
   3   2 -15 1418.64 461.808   5
  -3  -2  14 98834.4 3740.71   3
  -3   2  14 95435.6 3375.50   3
  -3  -2  14 98055.7 3544.94   1
   3   2 -14 87458.3 3264.23   5
   3  -2 -14 93422.0 3711.42   5
  -3  -2  13 764.168 403.320   1
  -3  -2  13 1653.72 561.455   3
  -3   2  13 893.249 400.400   3
   3   2 -13 817.234 315.650   5
   3  -2 -13 974.615 561.132   5
   3   2 -12 76401.1 2904.39   5
  -3  -2  12 79797.4 3161.93   3
   3   2 -12 85956.1 3689.81   2
  -3  -2  12 78575.6 3075.19   1
  -3   2  12 74423.6 2838.20   3
   3  -2 -12 76260.2 3173.07   5
   3   2 -11 14597.5 1548.02   2
  -3  -2  11 14067.8 1278.86   1
  -3   2  11 13636.8 1170.99   3
   3   2 -11 14391.7 1266.51   5
   3  -2 -11 12988.4 1313.65   5
   3   2 -10 17148.6 1627.09   2
  -3  -2  10 16439.5 1385.34   1
   3  -2 -10 16582.7 1438.00   5
  -3   2  10 16584.8 1219.65   3
   3   2 -10 16803.6 1337.11   5
   3   2  -9 155.505 307.541   2
  -3  -2   9 146.256 237.479   1
  -3   2   9-40.6273 182.095   3
   3   2  -9 234.146 274.150   5
   3  -2  -9 50.9326 303.031   5
  -3  -2   8 6409.79 831.435   1
   3   2  -8 6440.31 1081.09   2
   3  -2  -8 5501.10 841.622   4
  -3   2   8 5070.29 641.909   3
   3   2  -8 6628.49 824.033   5
   3  -2  -8 5808.63 831.313   5
   3  -2  -7 4171.27 730.288   4
  -3   2   7 3855.14 514.726   3
  -3  -2   7 3934.97 722.099   1
   3  -2  -7 4448.59 705.156   6
   3   2  -7 3642.14 817.252   2
   3   2  -7 3988.04 636.753   5
   3  -2  -7 3956.04 653.149   5
   3  -2  -6 120.745 239.579   6
   3  -2  -6 37.9990 318.089   4
  -3  -2   6 89.9225 233.392   1
   3   2  -6-25.4823 211.682   5
   3   2  -6 150.193 336.711   2
  -3   2   6-231.351 177.722   3
   3  -2  -6-284.216 275.611   5
  -3  -2   5 142.869 316.786   1
   3  -2  -5 146.212 271.003   4
  -3   2   5 179.211 156.277   3
   3  -2  -5-38.6817 301.746   6
   3   2  -5 136.167 383.965   2
   3   2  -5 17.3234 292.024   5
   3  -2  -5 279.066 262.919   5
   3   2  -4 39300.8 2194.44   2
   3  -2  -4 37228.4 1897.77   6
   3   2  -4 38428.0 1927.39   5
   3  -2  -4 39381.3 1803.17   5
   3  -2  -4 38589.3 2135.65   4
  -3  -2   4 36509.2 1909.64   1
   3  -2  -3 26987.6 1834.73   4
   3  -2  -3 26321.4 1604.44   6
   3   2  -3 29294.1 1833.96   2
   3  -2  -3 26737.5 1446.60   5
   3   2  -3 27416.1 1619.78   5
  -3  -2   3 26134.1 1622.53   1
   3   2  -2 7572.35 964.742   2
   3   2  -2 7955.75 932.322   5
   3  -2  -2 6417.14 951.548   4
   3  -2  -2 6664.81 821.279   6
   3  -2  -2 6596.06 715.396   5
  -3  -2   2 7448.83 878.342   1
  -3  -2   1 93.5957 334.364   1
   3  -2  -1 434.120 374.479   6
   3  -2  -1-46.9246 313.975   4
  -3  -2   1 84.6158 155.236  18
   3   2  -1 357.692 317.812   2
   3  -2  -1-76.2474 199.600   5
   3   2   0 8430.74 955.311   2
  -3  -2   0 7329.91 695.795  18
   3  -2   0 7930.48 896.656   6
   3  -2   0 8421.37 1080.69   4
   3  -2   0 7080.27 708.181   5
  -3  -2   0 7362.40 922.756   1
   3   2   1 22671.7 1541.84   2
   3  -2   1 21584.6 1631.65   4
   3   2   1 19883.6 785.299   6
  -3  -2  -1 17804.7 1136.86  18
   3  -2   1 21887.2 1462.09   6
   3  -2   1 19360.1 1113.93   5
  -3  -2  -1 21117.8 1439.12   1
   3   2   2 21324.2 1478.98   2
   3   2   2 18494.4 782.373   6
   3  -2   2 18872.5 1505.16   4
  -3  -2  -2 18425.0 1213.14  18
   3  -2   2 18647.6 1385.31   6
   3  -2   2 16792.2 991.827   5
   3   2   3 3830.29 667.706   2
   3  -2   3 3883.36 716.303   4
  -3  -2  -3 3428.93 549.599  18
   3   2   3 3966.20 381.370   6
   3  -2   3 4709.66 747.623   6
   3  -2   3 3675.60 460.747   5
   3  -2   4 32847.6 2020.23   4
  -3  -2  -4 32002.4 1759.46  18
   3   2   4 34836.6 1194.05   6
   3  -2   4 38156.8 2010.10   6
   3  -2   4 34216.2 1412.13   5
   3   2   4 39548.8 2084.41   2
   3  -2   5 39926.0 2067.62   6
   3  -2   5 33591.8 2050.30   4
   3   2   5 36941.0 1302.83   6
  -3  -2  -5 36450.7 1949.83  18
   3   2   6 12123.7 794.722   6
   3  -2   6 13364.9 1230.71   6
  -3  -2  -6 10881.4 1112.33  18
  -3  -2  -7 4838.14 782.895  18
   3  -2   7 6586.72 900.675   6
   3   2   7 6559.49 632.159   6
   3   2   7 7449.45 969.382   2
  -3   2  -8 1922.10 531.028  17
  -3  -2  -8 2883.77 671.883  18
   3   2   8 3333.85 679.466   2
   3   2   8 2509.89 433.733   6
   3  -2   8 3085.56 695.604   6
   3   2   9 5999.50 917.082   2
   3  -2   9 4991.16 847.333   6
  -3  -2  -9 5418.95 865.887  18
  -3   2  -9 5198.81 848.098  17
   3   2   9 5041.03 612.095   6
  -3  -2 -10 32582.6 2241.92  18
  -3   2 -10 30094.0 2033.26  17
   3   2  10 36116.2 1683.97   6
   3   2  10 37801.1 2319.28   2
   3  -2  10 35525.7 2216.07   6
   3   2  11 2289.91 623.384   2
  -3   2 -11 2113.45 801.324  18
  -3  -2 -11 1342.86 515.827  18
   3   2  11 2165.17 444.352   6
   3  -2  11 2193.46 580.949   6
  -3   2 -11 1512.40 489.945  17
  -3   2 -12 15908.8 1534.10  17
  -3   2 -12 16762.6 1842.44  18
   3   2  12 16834.1 1637.92   2
  -3  -2 -12 15793.4 1686.72  18
   3  -2  12 15909.0 1563.40   6
   3   2  12 17231.8 1298.63   6
   3   2  13 7445.87 1104.04   2
  -3   2 -13 5819.37 1126.68  18
  -3  -2 -13 5936.04 1028.37  18
  -3   2 -13 6195.12 1015.06  17
   3  -2  13 7139.92 1088.98   6
   3   2  13 6764.01 866.021   6
  -3   2 -14 68089.5 3291.34  17
  -3  -2 -14 63380.1 3523.40  18
   3  -2  14 68351.3 3339.92   6
   3   2  14 67247.6 2739.92   6
  -3   2 -14 73254.4 4009.65  18
   3   2  14 69573.5 3363.04   2
  -3   2 -15 4593.18 1114.34  18
  -3   2 -15 4055.41 823.223  17
  -3  -2 -15 4153.70 932.476  18
   3   2  15 5464.15 814.447   6
   3  -2  15 5489.00 1048.79   6
   3   2  15 6852.32 1144.29   2
   3   2  16 88005.0 3406.59   6
  -3   2 -16 92381.3 4749.67  18
  -3  -2 -16 87311.5 4358.68  18
  -3   2 -16 90555.8 3988.90  17
   3  -2  16 92150.5 4107.21   6
   3   2  16 96126.0 4192.04   2
   3   2  17 2794.60 688.585   6
   3   2  17 3755.22 900.624   2
  -3  -2 -17 2307.46 810.225  18
  -3   2 -17 2070.83 648.903  17
  -3   2 -17 2236.88 829.355  18
   3  -2  17 3263.47 821.986   6
  -3  -2 -18 31435.7 2793.61  18
   3  -2  18 27361.4 2358.66   6
  -3   2 -18 32554.9 2515.59  17
   3   2  18 28707.9 2036.31   6
  -3   2 -18 30315.4 2888.12  18
   3   2  18 29312.9 2382.95   2
   3   2  19 177.756 471.113   2
  -3  -2 -19-169.123 483.617  18
  -3   2 -19 308.578 342.031  18
   3  -2  19 238.809 417.235   6
   3   2  19 234.396 287.008   6
   3  -2  20 83854.7 2327.51  12
   3  -2  20 87883.0 2342.28   7
  -3   2 -20 82846.6 4912.63  18
  -3  -2 -20 89181.4 4897.12  18
   3  -2  20 89963.1 4474.36   6
   3   2  20 80810.4 3838.57   6
   3   2  20 88260.1 4424.96   2
   3  -2  21 8603.64 779.982  12
   3  -2  21 9313.99 788.091   7
   3  -2  21 9291.23 1524.28   6
   3   2  21 8203.84 690.655   7
  -3  -2 -21 9362.36 1699.67  18
   3   2  21 9848.90 919.488  16
  -3   2 -21 9691.83 1708.43  18
   3   2  21 9323.09 1326.28   6
   3   2  21 9265.15 1458.49   2
   3  -2  22 47002.0 1794.08  12
   3  -2  22 50458.6 1837.47   7
   3   2  22 47333.6 2043.91  16
  -3   2 -22 45344.1 3791.69  18
  -3  -2 -22 48137.9 3849.71  18
   3  -2  22 50621.2 2363.11  16
   3  -2  22 47062.5 3378.88   6
   3   2  22 45534.6 2949.72   6
   3   2  22 43954.6 1586.81   7
   3   2  22 49614.9 3433.14   2
   3  -2  23 12593.5 946.591   7
   3   2  23 10671.3 806.060   7
  -3   2 -23 11683.5 1923.18  18
  -3  -2 -23 11932.8 1967.13  18
   3   2  23 10989.2 1025.48  16
   3  -2  23 11389.8 1701.22   6
   3  -2  23 10907.6 1128.94  16
   3  -2  23 11208.0 901.596  12
   3   2  23 11543.6 1716.92   2
   3   2  24 12980.5 1932.18   2
   3  -2  24 14139.3 1998.08   6
   3  -2  24 15043.2 1069.96  12
   3  -2  24 17115.2 1097.87   7
   3   2  24 13950.4 921.358   7
  -3   2 -24 16986.2 2436.06  18
   3  -2  24 17369.8 1430.31  16
   3   2  24 17687.9 1327.96  16
  -3  -2 -24 17861.3 2373.87  18
   3  -2  25 1259.27 362.830  12
  -3   2 -25 652.526 587.555  18
   3  -2  25 1084.70 296.066   7
   3   2  25 488.489 445.390   2
   3   2  25 904.552 225.660   7
  -3  -2 -25 2498.05 1075.99  18
   3  -2  25 1122.84 334.335  16
   3   2  25 864.812 316.649  16
   3  -2  25 1629.65 739.034   6
  -3  -2 -25 412.481 463.640  13
   3   2  26 14301.8 1270.23  16
   3  -2  26 13587.0 1030.16  12
   3  -2  26 14965.4 1081.63   7
   3   2  26 13852.9 943.972   7
  -3   2 -26 12546.6 2100.62  18
  -3  -2 -26 14322.3 2242.83  18
   3   2  26 11944.8 1811.90   2
   3  -2  26 14869.2 1371.80  16
   3  -2  26 12596.5 1890.82   6
   3  -2  27 19990.7 1257.55   7
   3  -2  27 20208.8 1265.37  12
   3   2  27 17563.8 1091.25   7
   3   2  27 18894.6 1478.73  16
  -3   2 -27 16958.9 2527.82  18
  -3  -2 -27 17900.7 2551.04  18
   3  -2  27 20694.1 1621.79  16
   3  -2  27 20793.1 2467.00   6
   3   2  27 19945.7 2350.23   2
   3  -2  28 6413.95 719.524   7
   3  -2  28 5592.28 695.410  12
   3   2  28 4945.17 589.741   7
   3  -2  28 5882.60 837.645  16
   3   2  28 5037.35 796.881  16
   3   2  29 16421.2 1395.74  16
   3  -2  29 17593.2 1190.92   7
   3  -2  29 17086.6 1176.87  12
   3   2  29 15450.6 1003.91   7
   3  -2  29 18338.4 1563.53  16
   3  -2  30 6160.83 718.611  12
   3   2  30 5869.77 635.536   7
   3   2  30 4477.02 729.022  16
   3  -2  30 6896.05 754.789   7
   3  -2  30 4606.93 832.560  16
   3  -2  31 2625.57 437.808  12
   3  -2  31 3048.19 548.057   7
   3   2  31 2535.84 418.063   7
   3  -2  31 1872.27 471.169  16
   3   2  31 1818.73 517.674  16
   3   2  32-429.989 348.528  16
   3  -2  32 355.805 263.969  12
   3  -2  32 217.363 216.137   7
   3   2  32 88.1245 166.205   7
   3  -2  32 461.632 421.389  16
   3  -2  33 374.343 260.658  12
   3  -2  33 540.522 307.429   7
   3  -2  33 517.927 391.946  16
   3   2  33 385.956 396.486  16
   3  -2  34 1324.49 334.992  12
   3  -2  34 1278.16 343.995   7
   3  -2  34 649.501 370.184  16
   3   2  34 1035.83 398.455  16
   3  -2  35 4453.75 567.699  12
   3  -2  35 3840.05 533.979   7
   3  -2  35 4019.44 721.537  16
   3   2  35 4602.77 784.532  16
   3  -2  36 3008.44 614.277  16
   3  -2  36 1998.78 400.871   7
   3   2  36 2273.54 539.739  16
   3  -2  36 2481.37 442.028  12
   3  -2  37 632.135 248.392  12
   3  -2  37 875.974 239.345   7
   3  -2  37 253.468 295.054  16
   3   2  37 603.582 381.489  16
   3  -2  38 699.809 220.194  12
   3  -2  38 819.430 233.111   7
   3  -2  38 534.578 321.561  16
   3   2  38 348.467 330.423  16
   3  -2  39 330.717 192.061  12
   3  -2  39-308.642 331.599  16
   3   2  39 353.245 333.220  16
   3  -2  40 260.258 156.052  12
   3  -2  40-301.731 257.756  16
   3   2  40 487.043 355.040  16
   3  -2  41 407.697 161.992  12
   3   2  41 451.492 279.528  16
   3  -2  42 154.981 113.937  12
   3  -2  42-27.5982 178.689  16
   3   2  42 34.4257 255.281  16
   3   2  43 666.467 284.273  16
   3  -2  43 654.475 217.955  16
  -3  -3  44 551.682 156.747  12
   3   3 -44 1110.49 342.063  14
   3  -3 -44 725.233 226.314  14
   3  -3 -43 2036.02 349.469  14
  -3  -3  43 1673.75 282.864  12
   3   3 -43 2173.34 472.354  14
   3  -3 -42 2439.19 402.090  14
   3   3 -42 2586.60 497.979  14
  -3  -3  41 1001.63 319.389  16
   3   3 -41 1380.79 414.282  14
   3  -3 -41 1265.04 338.268  14
  -3  -3  40 7320.25 750.288  16
   3  -3 -40 10448.0 856.958  14
   3   3 -40 9516.41 966.093  14
  -3  -3  39 970.086 383.554  16
   3   3 -39 1677.68 489.726  14
   3  -3 -39 1470.33 382.026  14
  -3  -3  38 4414.96 664.890  16
   3  -3 -38 5208.96 648.076  14
   3   3 -38 5136.79 758.316  14
  -3  -3  37 305.802 258.996  16
   3  -3 -37 443.889 288.491  14
   3   3 -37 579.026 283.566  14
  -3  -3  36 4732.82 788.980  16
   3  -3 -36 5567.57 745.253  14
   3   3 -36 5955.65 841.779  14
   3   3 -35-86.4461 261.989  14
  -3  -3  35 831.938 399.470  16
   3  -3 -35-3.96274 218.743  14
   3  -3 -35-14.6920 506.297  13
   3  -3 -34 3800.13 632.759  14
  -3  -3  34 3936.71 723.546  16
   3  -3 -34 3769.48 584.656  15
   3   3 -34 4090.38 710.651  14
   3  -3 -34 2778.75 893.370  13
  -3  -3  33 612.753 425.119  16
   3  -3 -33 290.463 212.583  15
   3   3 -33 985.091 463.968  14
   3  -3 -33-66.3596 295.809  14
   3  -3 -33 119.977 432.762  13
   3  -3 -32 2804.36 884.619  13
   3  -3 -32 2897.50 526.039  15
  -3  -3  32 1989.49 595.371  16
   3   3 -32 3209.28 658.745  14
   3  -3 -32 2924.85 573.866  14
   3   3 -31 13083.6 1267.10  14
   3  -3 -31 9694.22 1014.15  14
   3  -3 -31 8579.90 1247.59  13
  -3  -3  31 12302.4 1275.73  16
   3  -3 -31 10475.2 1027.50  15
  -3  -3  30 12714.2 1350.19  16
   3  -3 -30 13332.7 1154.58  15
   3   3 -30 14717.2 1341.66  14
   3  -3 -30 12251.2 1451.87  13
   3  -3 -30 11895.7 1118.90  14
   3  -3 -29-134.484 490.220  13
  -3  -3  29-44.7428 355.543  16
   3  -3 -29 68.6892 219.833  15
   3   3 -29 169.689 305.053  14
   3  -3 -28-91.7914 318.569  13
   3  -3 -28 94.3147 222.239  15
  -3  -3  28 871.223 498.102  16
   3   3 -28 777.967 398.170  14
  -3  -3  27 24947.9 1873.84  16
   3   3 -27 27303.3 1801.72  14
  -3   3  27 23521.1 2513.11   3
   3  -3 -27 24655.4 1418.96  10
   3  -3 -27 23134.0 1574.68  15
   3  -3 -27 28711.4 2851.75   5
  -3  -3  27 24476.4 2599.92   1
   3  -3 -27 19396.6 1636.85  13
   3  -3 -26-184.996 279.270  13
   3  -3 -26-113.698 189.056  10
  -3  -3  26 154.119 416.743   1
  -3  -3  26 201.304 347.196  16
  -3  -3  26-385.216 482.361   3
   3  -3 -26 38.4980 212.753  15
   3   3 -26 49.5176 243.026  14
  -3   3  26-154.119 340.968   3
   3  -3 -26-131.443 367.962   5
   3  -3 -25 2696.10 631.265  13
   3  -3 -25 4034.49 579.796  10
  -3  -3  25 3844.76 1039.43   1
  -3  -3  25 4679.86 827.493  16
  -3  -3  25 3857.01 1028.23   3
  -3   3  25 3402.32 951.277   3
   3   3 -25 5618.24 795.252  14
   3  -3 -25 4301.54 1087.49   5
   3  -3 -24 6373.52 1343.81   5
  -3  -3  24 5205.56 1185.36   1
   3  -3 -24 6588.93 723.204  10
  -3  -3  24 6824.99 976.920  16
  -3  -3  24 5661.34 1185.38   3
   3   3 -24 6729.01 835.902  14
   3  -3 -24 5376.72 804.760  13
  -3   3  24 4575.83 1101.26   3
  -3  -3  23 33127.0 2855.69   3
   3  -3 -23 31542.5 1557.94  10
  -3   3  23 28911.2 2614.69   3
  -3  -3  23 32296.1 2059.17  16
   3   3 -23 35654.7 1974.64  14
  -3  -3  23 32493.3 2852.30   1
   3  -3 -23 35840.8 2995.65   5
   3  -3 -23 29847.4 1718.14  13
   3  -3 -22 563.061 613.865   5
   3  -3 -22 55.4886 205.100  13
  -3  -3  22-140.172 257.967  16
  -3  -3  22-508.530 579.930   3
   3   3 -22 173.754 170.784  15
   3  -3 -22 204.115 202.616  10
  -3   3  22 59.7663 257.201   3
   3   3 -22 394.371 305.184  14
  -3  -3  22 284.676 383.168   1
  -3  -3  21 7798.48 1312.42   3
  -3   3  21 6308.67 1169.07   3
  -3  -3  21 7671.40 1337.34   1
   3  -3 -21 6962.23 745.591  10
  -3  -3  21 7445.64 952.544  16
   3  -3 -21 7792.44 1392.17   5
   3   3 -21 7294.82 754.986  15
   3   3 -21 7908.94 914.611  14
   3  -3 -21 6200.00 731.290  13
  -3  -3  20 16643.2 1893.08   3
   3   3 -20 16276.5 1262.63  14
   3  -3 -20 13859.1 1008.38  10
  -3   3  20 12272.3 1593.49   3
  -3  -3  20 14903.6 1801.42   1
  -3  -3  20 16429.7 1396.26  16
   3  -3 -20 14047.6 1035.79  13
   3  -3 -20 13923.4 1770.51   5
   3   3 -19 24522.1 1531.56  14
  -3  -3  19 25337.4 2270.28   3
  -3   3  19 20366.3 1987.25   3
   3  -3 -19 22362.2 1249.45  10
  -3  -3  19 24535.2 2245.67   1
   3  -3 -19 22742.4 2222.38   5
   3  -3 -18 107.565 461.845   5
  -3   3  18-96.7666 286.479   3
  -3  -3  18-454.874 516.937   1
  -3  -3  18-38.0414 364.823   3
  -3  -3  17 7044.55 1173.05   1
  -3  -3  17 7435.00 1190.95   3
  -3   3  17 6691.27 1092.76   3
   3  -3 -17 6524.35 1167.42   5
  -3  -3  16 11252.8 1483.72   3
  -3  -3  16 10322.9 1397.55   1
  -3   3  16 10224.3 1261.70   3
   3  -3 -16 9282.73 1322.60   5
   3  -3 -15 1003.79 502.656   5
  -3   3  15 907.254 377.958   3
  -3  -3  15 874.050 508.349   1
  -3  -3  15 132.491 283.844   3
  -3  -3  14 6845.71 1094.16   3
   3  -3 -14 6958.86 1117.37   5
  -3   3  14 6297.88 946.881   3
  -3  -3  14 7280.60 1144.98   1
   3  -3 -13 3997.41 863.465   4
  -3   3  13 3893.80 728.278   3
   3   3 -13 4713.51 1021.75   2
   3   3 -13 3739.01 652.325   5
  -3  -3  13 3669.65 786.459   1
   3  -3 -13 3551.66 775.066   5
   3  -3 -12 3641.83 790.828   4
  -3   3  12 2930.84 643.665   3
   3   3 -12 4413.04 992.872   2
   3   3 -12 3755.89 683.267   5
  -3  -3  12 3580.62 751.778   1
   3  -3 -12 3464.79 773.431   5
  -3  -3  11 5426.78 940.923   1
   3  -3 -11 5187.23 970.638   4
   3   3 -11 6587.74 1173.22   2
  -3   3  11 4964.23 760.857   3
   3   3 -11 5596.25 811.856   5
   3  -3 -11 4957.17 858.285   5
   3  -3 -10 3463.13 813.136   4
   3   3 -10 4479.43 1050.94   2
  -3  -3  10 4003.04 784.165   1
   3   3 -10 4354.24 697.808   5
   3  -3 -10 4098.75 765.120   5
   3  -3  -9 10355.9 1324.19   4
   3   3  -9 9850.62 1453.61   2
  -3  -3   9 10625.2 1232.28   1
   3   3  -9 8098.10 1269.62  17
   3   3  -9 10932.2 1132.96   5
   3  -3  -9 10420.5 1139.41   5
   3  -3  -8-111.826 332.554   4
  -3  -3   8-220.379 339.759   1
   3   3  -8-40.5431 404.833  17
   3   3  -8 163.711 214.237   5
   3   3  -8-592.582 346.018   2
   3  -3  -8 18.7248 218.347   5
  -3  -3   7 14040.4 1388.58   1
   3   3  -7 11850.9 1574.53   2
   3   3  -7 12787.6 1475.94  17
   3  -3  -7 14542.3 1573.12   4
   3  -3  -7 13440.3 1217.46   5
   3  -3  -6 4510.64 778.727   6
   3  -3  -6 5297.10 985.861   4
  -3  -3   6 5120.14 852.414   1
   3   3  -6 4765.68 904.133  17
   3   3  -6 3947.68 926.919   2
   3  -3  -6 3895.60 623.203   5
   3  -3  -5 2708.25 650.176   4
   3   3  -5 2499.16 767.422   2
   3  -3  -5 2204.08 529.064   6
   3   3  -5 2441.60 644.932  17
  -3  -3   5 2622.95 659.574   1
   3  -3  -5 2537.74 509.772   5
   3   3  -4 326.876 428.630   2
   3  -3  -4 460.539 416.035   4
  -3  -3   4 401.708 375.200   1
   3   3  -4 482.470 389.783  17
   3  -3  -4 420.522 236.620   5
   3  -3  -4 212.848 335.274   6
  -3  -3   3 10726.1 1263.55   1
   3  -3  -3 10931.3 1357.81   4
   3   3  -3 10632.9 1370.31   2
   3  -3  -3 9893.92 1108.82   6
   3   3  -3 8161.86 1074.35  17
   3  -3  -3 10160.3 904.101   5
   3   3  -2 29492.5 2193.52   2
   3  -3  -2 30696.2 2239.70   4
   3  -3  -2 28784.3 1848.15   6
   3   3  -2 31285.9 1944.85  17
  -3  -3   2 28456.6 1976.31   1
   3   3  -1 805.878 896.860   2
   3  -3  -1 264.985 349.053   4
  -3  -3   1 855.000 802.150   1
   3  -3  -1 718.424 422.739   6
   3   3  -1 11.5256 231.381  17
   3   3   0 79258.6 3461.77   2
   3  -3   0 72543.1 3416.05   4
   3  -3   0 74708.1 2968.60   6
   3   3   0 77224.5 2839.19  17
  -3  -3   0 78603.1 3258.01   1
  -3  -3  -1 1139.63 678.377   1
   3  -3   1 1266.33 460.932   4
   3   3   1 2026.20 808.007   2
   3  -3   1 1613.70 688.825   6
   3   3   2 107405. 3929.00   2
   3  -3   2 98489.5 4009.56   4
  -3  -3  -2 101964. 3128.42  18
   3  -3   2 98358.0 3453.70   6
  -3  -3  -2 105247. 3760.71   1
  -3  -3  -3 301.960 698.552   1
   3  -3   3-113.488 365.142   4
   3  -3   3 717.068 639.430   6
   3   3   3 392.062 670.776   2
  -3  -3  -3 422.778 356.278  18
   3  -3   4 95365.7 3938.58   4
   3   3   4 103276. 3916.39   2
  -3  -3  -4 97391.4 3364.52  18
  -3  -3  -4 101123. 3846.87   1
   3  -3   4 96325.5 3505.54   6
   3  -3   5 41816.1 2629.53   4
  -3  -3  -5 37930.9 2169.01  18
   3  -3   5 43908.4 2443.25   6
  -3  -3  -5 45129.0 2557.81   1
   3   3   5 46811.2 2642.67   2
   3  -3   6 17548.6 1697.29   4
  -3  -3  -6 22046.1 1739.78  18
   3  -3   6 18420.8 1610.64   6
   3   3   6 18842.4 1754.45   2
   3   3   7 8579.19 1231.66   2
   3  -3   7 8267.83 1193.89   4
  -3  -3  -7 8004.47 1070.97  18
   3  -3   7 8071.75 1075.53   6
   3  -3   8 1937.67 595.953   4
   3   3   8 2401.30 709.413   2
  -3   3  -8 1942.31 685.710  17
   3  -3   8 1717.54 579.191   6
  -3  -3  -8 1618.09 496.126  18
   3  -3   9 32297.1 2295.86   4
  -3  -3  -9 31023.9 2258.49  18
  -3   3  -9 31438.7 2428.46  17
   3  -3   9 32490.6 2197.40   6
   3   3   9 36481.4 2465.53   2
   3  -3  10 18196.7 1758.00   4
  -3  -3 -10 16249.6 1710.34  18
  -3   3 -10 16642.0 1787.70  17
   3  -3  10 17807.4 1668.01   6
   3   3  10 18697.8 1865.36   2
   3  -3  11 10516.3 1332.31   4
  -3  -3 -11 10010.5 1373.76  18
  -3   3 -11 10858.0 1503.51  17
   3  -3  11 10674.3 1310.19   6
   3   3  11 12658.8 1535.03   2
  -3   3 -12 8794.81 1363.31  17
   3   3  12 6705.17 1145.03   2
  -3  -3 -12 8932.24 1336.54  18
   3  -3  12 5938.21 1009.97   6
  -3   3 -13 453.982 531.986  18
  -3  -3 -13-10.4077 279.360  18
   3   3  13 179.011 391.503   2
  -3   3 -13-136.855 295.663  17
   3  -3  13 643.678 496.947   6
  -3   3 -14 29375.0 2761.10  18
  -3  -3 -14 31263.1 2625.90  18
  -3   3 -14 29798.8 2589.09  17
   3  -3  14 30882.9 2380.42   6
   3   3  14 34402.9 2665.60   2
   3  -3  15 516.131 470.195   6
  -3   3 -15 1122.63 424.989  17
  -3   3 -15 1011.91 637.333  18
  -3  -3 -15 1379.85 640.863  18
   3   3  15 490.872 525.286   2
   3   3  16 127.678 336.667   2
  -3  -3 -16-259.208 396.694  18
  -3   3 -16-172.742 445.328  18
   3  -3  16-23.5515 263.404   6
  -3   3 -16 79.1334 428.394  17
  -3  -3 -17 7981.96 1439.75  18
  -3   3 -17 8581.85 1574.50  18
   3   3  17 8915.13 814.228  16
   3  -3  17 11108.3 1519.84   6
   3  -3  17 8986.38 792.558  12
  -3   3 -17 8356.49 1429.40  17
   3  -3  17 10440.4 802.977   7
   3  -3  17 10184.7 843.905   8
   3   3  17 11850.2 1693.25   2
   3  -3  18 4656.15 1022.69   6
   3  -3  18 4291.37 580.640   7
   3  -3  18 3839.95 525.312  12
   3   3  18 4003.67 483.873   7
   3   3  18 5917.25 1297.75   2
  -3  -3 -18 2953.58 893.917  18
  -3   3 -18 3741.55 967.114  17
   3   3  18 3488.04 540.371  16
  -3   3 -18 2752.43 1003.68  18
   3  -3  18 4490.86 569.089   8
   3  -3  19 2864.97 796.830   6
   3  -3  19 3699.55 511.677   8
   3  -3  19 3688.34 508.833   7
  -3  -3 -19 3826.90 1078.79  18
   3   3  19 3161.12 441.404   7
   3   3  19 4016.74 1055.32   2
  -3   3 -19 3966.17 1157.34  18
  -3   3 -19 3905.73 1029.87  17
   3  -3  19 3274.70 474.391  12
   3   3  19 3538.60 528.145  16
   3  -3  20 4211.18 575.306   7
   3  -3  20 4131.78 550.741  12
  -3  -3 -20 3821.42 1067.49  18
   3  -3  20 5165.29 781.441  16
   3   3  20 3876.65 463.357   7
  -3   3 -20 4617.21 1297.03  18
   3   3  20 4868.20 1197.78   2
  -3   3 -20 4293.89 1106.26  17
   3   3  20 5084.07 683.137  16
   3  -3  20 3393.86 897.177   6
   3  -3  20 4319.28 552.303   8
   3  -3  21 210.288 237.658   8
   3   3  21 306.028 219.950   7
   3  -3  21 133.525 173.668  12
   3  -3  21 96.0143 389.181   6
   3  -3  21 302.619 248.305   7
   3   3  21 553.222 421.981   2
  -3  -3 -21-208.401 445.028  18
   3  -3  21-213.970 235.928  16
   3   3  21-112.355 209.701  16
  -3   3 -21-265.055 512.964  18
   3  -3  22 16849.1 1118.08   7
   3  -3  22 13985.4 1036.33  12
   3   3  22 13299.8 904.318   7
  -3  -3 -22 13439.4 2071.12  18
   3  -3  22 15997.5 1392.07  16
   3   3  22 14458.4 1152.41  16
   3  -3  22 13911.2 1911.06   6
  -3   3 -22 12194.7 2061.95  18
   3  -3  22 15797.8 1057.91   8
   3   3  22 15431.6 2095.73   2
  -3   3 -23 976.792 559.569  18
   3  -3  23 1704.38 369.749   8
   3  -3  23 1762.63 416.819  12
   3  -3  23 1715.37 394.953   7
   3   3  23 1367.63 301.174   7
   3   3  23 1571.47 754.160   2
  -3  -3 -23 1241.64 652.785  18
   3  -3  23 1435.28 557.344  16
   3   3  23 1565.70 426.163  16
   3  -3  23 2010.25 811.930   6
   3  -3  24-280.772 196.512   8
   3  -3  24 129.384 240.556  12
   3  -3  24-106.412 209.090   7
  -3  -3 -24-665.313 696.784  18
   3   3  24-104.103 174.210   7
  -3   3 -24 76.5922 624.934  18
   3  -3  24 316.841 351.583  16
   3   3  24-359.257 293.813  16
   3  -3  24-375.521 438.897   6
   3   3  24 298.716 482.368   2
   3  -3  25 5507.45 682.458  12
   3   3  25 5312.94 571.559   7
   3   3  25 4888.78 741.797  16
   3  -3  25 3589.84 735.556  16
   3  -3  25 6552.04 759.413   7
   3  -3  26 2599.88 531.582  12
   3  -3  26 2895.01 513.933   7
   3  -3  26 2846.61 660.250  16
   3   3  26 2079.02 525.210  16
   3   3  26 2072.89 373.959   7
   3  -3  27 4165.82 606.379  12
   3  -3  27 3184.16 541.257   7
   3  -3  27 3332.64 736.005  16
   3   3  27 4045.64 689.198  16
   3  -3  28 3313.09 525.082  12
   3  -3  28 3308.63 533.245   7
   3  -3  28 2632.83 606.810  16
   3   3  28 2837.11 592.371  16
  -3  -3 -28 2355.09 881.537  13
   3  -3  29 32160.2 1594.50   7
   3  -3  29 31901.1 1588.43  12
   3  -3  29 27948.3 1909.96  16
   3   3  29 30758.7 1865.14  16
   3  -3  30 10368.0 938.492   7
   3  -3  30 10616.3 913.483  12
   3  -3  30 9138.27 1079.11  16
   3   3  30 10684.7 1096.47  16
   3  -3  31 414.691 279.978  12
   3  -3  31-195.901 203.915   7
   3  -3  31 339.577 280.517  16
   3   3  31 510.223 382.706  16
   3  -3  32 5808.01 676.569   7
   3  -3  32 6412.02 720.062  12
   3  -3  32 7091.90 958.817  16
   3   3  32 6848.84 903.261  16
   3  -3  33 591.209 270.748  12
   3  -3  33 571.145 286.304   7
   3  -3  33 15.2975 283.372  16
   3   3  33 882.333 438.041  16
   3   3  34 20506.6 1528.72  16
   3  -3  34 20720.9 1186.53  12
   3  -3  34 19219.3 1459.08  16
   3  -3  35 108.223 247.983  12
   3  -3  35 445.313 382.383  16
   3   3  35 160.243 280.253  16
   3  -3  36 1472.29 331.217  12
   3   3  36 1610.46 550.954  16
   3  -3  36 1996.19 494.780  16
   3  -3  37 5655.15 564.133  12
   3  -3  37 4619.33 689.245  16
   3   3  37 5240.45 720.625  16
   3  -3  38 3846.18 591.750  16
   3   3  38 3157.74 624.203  16
   3  -3  38 4725.60 495.604  12
   3  -3  39 717.394 209.958  12
   3  -3  39 555.566 256.286  16
   3   3  39 1311.36 419.413  16
   3  -3  40 10462.9 621.513  12
   3   3  40 9882.30 853.052  16
   3  -3  41 1148.71 239.074  12
   3  -3  41 434.070 186.863  16
   3   3  41 994.067 318.884  16
   3  -3  42 5295.68 379.135  12
   3   3  42 4936.20 530.262  16
   3  -4 -42 515.798 202.400  14
   3   4 -42 209.387 263.787  14
  -3  -4  41 1615.06 227.571  12
   3  -4 -41 1759.11 303.401  14
   3   4 -41 1608.68 422.437  14
  -3  -4  40 4561.07 410.009  12
   3  -4 -40 5980.98 571.152  14
   3   4 -40 4207.85 687.085  14
  -3  -4  39 660.096 194.695  12
   3   4 -39 646.006 303.928  14
   3  -4 -39 775.810 275.613  14
   3  -4 -38 2137.09 398.178  14
   3   4 -38 2229.33 569.965  14
   3  -4 -38 939.304 620.998  13
   3   4 -37 1763.84 555.794  14
   3  -4 -37 2619.28 462.274  14
   3  -4 -37 1224.19 613.882  13
   3   4 -36 2987.65 627.979  14
   3  -4 -36 3595.36 584.674  14
   3  -4 -36 1714.96 808.224  13
   3  -4 -35 947.783 285.544  15
   3   4 -35 950.333 410.762  14
   3  -4 -35 1448.16 444.368  14
   3  -4 -35 898.802 580.619  13
   3  -4 -34 6883.07 736.994  15
  -3  -4  34 6382.22 875.259  16
  -3  -4  34 7451.37 616.578  10
   3   4 -34 8447.08 1131.41  14
   3  -4 -34 7509.78 812.915  14
   3  -4 -33 5629.17 1001.71  13
  -3  -4  33 6609.38 612.747  10
  -3  -4  33 6341.01 885.402  16
   3  -4 -33 7014.76 787.277  15
   3  -4 -33 6897.07 829.911  14
   3   4 -33 6804.36 959.908  14
   3  -4 -32 5016.17 1006.36  13
   3  -4 -32 3536.47 621.314  14
  -3  -4  32 3888.20 724.256  16
   3  -4 -32 4004.73 599.885  15
   3   4 -32 3591.28 759.405  14
   3  -4 -31 216.737 376.961  13
   3  -4 -31 621.660 285.528  15
  -3  -4  31 282.205 350.017  16
   3   4 -31 315.191 409.737  14
   3  -4 -31 616.209 402.197  14
   3  -4 -30 14489.1 1224.46  15
   3   4 -30 17371.4 1630.60  14
  -3  -4  30 14155.8 1433.93  16
   3  -4 -30 12714.9 1357.13  13
   3  -4 -29 1208.67 535.528  13
   3  -4 -29 1540.77 443.656  15
  -3  -4  29 2076.56 651.729  16
   3   4 -29 2215.88 610.115  14
   3  -4 -28 3587.08 735.592  13
  -3  -4  28 4599.32 868.117  16
   3  -4 -28 3473.04 637.709  15
   3   4 -28 4504.90 870.544  14
   3  -4 -28 4484.88 641.633  10
   3  -4 -27 28137.6 1544.46  10
  -3  -4  27 28356.7 2017.15  16
   3  -4 -27 26312.4 1851.71  13
   3   4 -27 31990.9 2188.76  14
   3  -4 -26 5289.55 855.729  13
   3  -4 -26 5227.89 671.490  10
  -3  -4  26 5768.51 911.110  16
   3   4 -26 5474.05 945.454  14
   3   4 -25 33577.5 2239.39  14
  -3  -4  25 30297.7 2101.89  16
   3  -4 -25 28573.9 1571.19  10
   3  -4 -25 29066.3 1811.10  13
  -3  -4  24 326.611 390.581  16
   3  -4 -24 128.171 198.672  10
   3  -4 -24-149.088 312.486  13
   3   4 -24-105.246 320.680  14
  -3  -4  23 3569.62 722.759  16
   3  -4 -23 3802.84 545.245  10
   3  -4 -23 3871.42 683.706  13
   3   4 -23 3495.71 750.047  14
   3  -4 -23 3654.09 1042.15   5
  -3  -4  22 7524.02 1382.88   1
   3   4 -22 8361.90 851.399  15
   3  -4 -22 7827.60 806.277  10
  -3  -4  22 8402.19 1115.49  16
  -3  -4  22 7936.38 1458.37   3
   3   4 -22 8208.30 1093.59  14
   3  -4 -22 7715.37 874.214  13
   3  -4 -22 7467.19 1391.40   5
   3  -4 -21 926.001 349.616  13
   3  -4 -21 1398.85 392.989  10
  -3  -4  21 1303.64 509.846  16
  -3  -4  21 1325.88 673.467   3
   3   4 -21 1458.87 370.416  15
  -3  -4  21 1448.88 731.977   1
   3   4 -21 846.349 484.240  14
   3  -4 -21 1642.98 711.864   5
   3  -4 -20 3349.07 559.629  13
  -3  -4  20 3798.25 761.062  16
  -3  -4  20 4152.87 1076.20   3
   3   4 -20 3672.55 547.234  15
   3  -4 -20 3614.83 501.167  10
  -3  -4  20 3429.90 998.618   1
   3   4 -20 4071.51 724.657  14
   3  -4 -20 4918.02 1164.66   5
   3   4 -19 12097.9 1277.17  14
  -3  -4  19 12030.2 1695.97   3
   3  -4 -19 11365.1 946.433  10
  -3  -4  19 12399.4 1323.51  16
  -3  -4  19 12991.2 1789.34   1
   3   4 -19 10090.0 939.389  15
   3  -4 -19 10584.3 1603.58   5
   3  -4 -19 9551.80 922.654  13
   3  -4 -18 1740.12 425.825  13
  -3  -4  18 1790.16 633.471   1
   3  -4 -18 1958.41 419.689  10
  -3  -4  18 1920.61 768.994   3
  -3  -4  18 3350.94 713.318  16
   3   4 -18 2190.49 426.974  15
   3   4 -18 3005.42 717.872  14
   3  -4 -18 1884.32 613.180   5
   3  -4 -17 437.647 233.408  13
  -3  -4  17-199.040 462.483   1
   3  -4 -17 596.567 298.178  10
  -3  -4  17 231.850 462.944   3
   3   4 -17 449.819 308.152  14
   3   4 -17 442.574 274.273  15
   3  -4 -17 248.212 186.539   9
   3  -4 -17 316.611 425.761   5
   3  -4 -16 2073.36 434.309  10
  -3  -4  16 2722.46 853.203   1
  -3  -4  16 2142.19 735.482   3
   3   4 -16 1996.70 426.476  15
   3  -4 -16 2137.45 410.540   9
   3   4 -16 2272.76 620.081  14
   3  -4 -16 1907.14 380.906  13
   3  -4 -16 1590.14 537.646   5
   3  -4 -15 192.249 156.188  13
  -3  -4  15 879.557 659.211   3
   3  -4 -15 297.223 281.025   4
  -3  -4  15 129.374 373.367   1
   3  -4 -15 13.6333 186.808  10
   3  -4 -15 128.198 151.004   9
   3   4 -15 103.176 191.280  15
   3   4 -15 232.798 254.762  14
   3  -4 -15 195.457 358.883   5
   3  -4 -14 1070.66 293.438  13
  -3  -4  14 202.871 347.708   1
   3  -4 -14 977.400 598.512   4
  -3  -4  14 1491.16 685.948   3
   3  -4 -14 1467.12 331.032  10
   3   4 -14 1500.10 369.370  15
   3  -4 -14 676.139 290.438   9
   3   4 -14 1256.52 441.552  14
   3  -4 -14 598.233 354.886   5
   3  -4 -13 2119.11 357.011  13
  -3  -4  13 2562.44 773.162   1
   3  -4 -13 2563.45 727.929   4
   3  -4 -13 2459.27 420.076  10
   3   4 -13 2258.07 438.962  15
   3  -4 -13 2225.48 399.094   9
   3   4 -13 3218.49 902.104   2
   3   4 -13 2786.32 699.139  14
  -3  -4  12 817.273 455.496   1
   3  -4 -12 262.279 170.514  10
   3  -4 -12 903.662 478.577   4
   3   4 -12 463.996 439.232   2
   3   4 -12 593.816 382.712  14
   3  -4 -11 235.019 334.278   4
   3   4 -11 407.295 349.153  17
   3   4 -11 1895.84 800.074   2
  -3  -4  11 1290.59 481.809   1
   3  -4 -10 367.349 439.714   4
   3   4 -10-694.020 541.268  17
   3   4 -10 544.896 551.544   2
  -3  -4  10 87.0665 395.491   1
   3  -4  -9 632.468 502.107   4
   3   4  -9 161.739 287.836  17
   3   4  -9 291.973 372.118   2
  -3  -4   9 414.708 289.492   1
   3  -4  -8 274.765 351.842   4
  -3  -4   8 537.319 472.034   1
   3   4  -8 195.498 455.024   2
   3   4  -8 208.462 314.496  17
   3  -4  -7 23754.6 2293.58   4
  -3  -4   7 25560.3 2139.75   1
   3   4  -7 23719.9 2408.50   2
   3   4  -7 20161.0 2097.21  17
  -3  -4   6 2918.59 769.976   1
   3  -4  -6 2311.97 800.703   4
   3   4  -6 2474.29 965.330   2
   3   4  -6 1811.55 629.672  17
   3  -4  -5 3299.18 878.611   4
   3   4  -5 3157.10 790.780  17
   3   4  -5 3374.99 1008.48   2
  -3  -4   5 4178.64 898.982   1
  -3  -4   4 8073.91 1287.26   1
   3  -4  -4 6703.39 1243.69   4
   3   4  -4 4742.46 957.865  17
   3   4  -4 6516.79 1212.21   2
  -3  -4   3 13602.9 1558.29   1
   3  -4  -3 13761.5 1764.88   4
   3   4  -3 11576.9 1541.18   2
   3  -4  -3 12806.8 1375.29   6
   3  -4  -2-697.880 501.170   4
  -3  -4   2-104.680 328.115   1
   3  -4  -2 35.3574 434.508   6
   3   4  -2 125.100 522.767   2
   3  -4  -1 1807.31 596.995   4
  -3  -4   1 3038.03 825.196   1
   3   4  -1 2901.72 925.747   2
   3  -4  -1 2188.21 601.975   6
  -3  -4   0 11595.3 1416.93   1
   3  -4   0 10847.8 1523.22   4
   3   4   0 11664.2 1528.30   2
   3  -4   0 10921.1 1260.40   6
   3  -4   1 173.000 330.035   4
  -3  -4  -1 842.921 482.889   1
   3   4   1 1152.23 602.705   2
   3  -4   1 942.081 503.601   6
   3  -4   2 1314.54 730.543   4
   3   4   2 1777.32 954.463   2
   3  -4   2 1007.21 449.232   6
  -3  -4  -2 2043.50 1138.03   1
   3   4   3 36621.3 2726.72   2
   3  -4   3 31668.6 2644.39   4
  -3  -4  -3 36485.1 2555.07   1
   3  -4   3 34610.9 2221.74   6
   3  -4   4 1143.30 629.926   4
  -3  -4  -4 730.073 390.822   1
   3   4   4 979.943 982.777   2
   3  -4   4 973.545 543.738   6
   3  -4   5 378.432 394.142   4
  -3  -4  -5 564.878 488.129   1
   3   4   5 646.333 538.566   2
   3  -4   5 604.605 462.414   6
  -3  -4  -6 1404.88 617.347   1
   3  -4   6 1593.29 715.680   4
  -3   4  -6 631.067 357.394  17
   3   4   6 697.422 516.364   2
   3  -4   6 1147.38 521.403   6
   3   4   7 7985.13 1287.72   2
  -3  -4  -7 6342.27 1143.37   1
   3  -4   7 5819.98 1167.29   4
  -3   4  -7 6863.03 1314.17  17
   3  -4   7 5878.03 993.809   6
  -3  -4  -8 6637.73 1165.84   1
   3  -4   8 5083.80 1083.27   4
  -3   4  -8 4550.98 1073.43  17
   3  -4   8 5718.46 1025.16   6
   3   4   8 5944.03 1136.69   2
  -3  -4  -9 5963.13 1157.35   1
   3  -4   9 4838.75 1155.51   4
   3  -4   9 4893.84 919.596   6
  -3   4  -9 4617.91 1145.61  17
   3   4   9 5739.87 1128.01   2
   3  -4   9 4477.02 546.227   8
   3  -4  10 2138.59 423.058   8
  -3  -4 -10 3261.93 885.486   1
   3  -4  10 1675.42 666.700   4
  -3  -4 -10 1890.52 641.442  18
  -3   4 -10 1814.10 838.492  17
   3   4  10 2417.33 818.319   2
   3   4  10 2260.09 401.465  16
   3  -4  10 1825.89 573.430   6
  -3  -4 -11 2690.97 711.332   1
   3  -4  11 2251.10 455.058   8
   3  -4  11 2607.00 823.767   4
   3  -4  11 2214.89 673.850   6
  -3  -4 -11 2072.93 714.981  18
  -3   4 -11 2446.11 881.451  17
   3  -4  11 2269.60 376.207  12
   3   4  11 2337.25 347.396   7
   3   4  11 2463.02 776.569   2
   3   4  11 2488.14 428.049  16
  -3  -4 -12 3278.90 868.729   1
   3  -4  12 2477.84 442.239   8
   3  -4  12 2591.27 761.801   4
   3  -4  12 2542.90 420.897   7
   3  -4  12 1993.77 369.888  12
  -3  -4 -12 1253.61 557.601  18
  -3   4 -12 1251.72 663.017  17
   3   4  12 2042.50 368.200   7
   3   4  12 3155.09 904.436   2
   3   4  12 2116.31 392.153  16
   3  -4  12 2229.73 691.619   6
   3  -4  13 935.662 274.138   8
   3  -4  13 1132.86 264.814  12
  -3   4 -13 518.243 338.914  17
   3  -4  13 1084.73 695.594   4
   3  -4  13 826.537 245.836   7
  -3  -4 -13 1279.11 640.975  18
   3   4  13 790.354 231.969   7
   3   4  13 1169.04 578.421   2
   3   4  13 1274.06 338.353  16
   3  -4  13 841.780 417.812   6
   3  -4  14 20201.3 1144.32   7
   3  -4  14 18705.1 1083.38  12
   3   4  14 22079.1 1070.17   7
   3   4  14 18867.7 1189.05  16
  -3  -4 -14 15587.4 1988.80  18
  -3   4 -14 18436.7 2272.62  17
   3  -4  14 22279.0 2096.60   6
  -3   4 -14 17420.2 2341.10  18
   3  -4  14 23022.4 1331.87   8
   3   4  14 24931.9 2442.84   2
   3  -4  15 11337.5 875.141   7
   3  -4  15 10201.5 809.690  12
   3   4  15 11055.8 767.841   7
   3   4  15 11250.3 948.216  16
  -3   4 -15 9992.81 1822.45  18
  -3  -4 -15 8383.94 1494.70  18
  -3   4 -15 8752.17 1686.65  17
   3  -4  15 11269.0 1512.37   6
   3  -4  15 11815.7 944.752   8
   3   4  15 12757.6 1794.91   2
   3  -4  16 8615.56 790.333   7
  -3   4 -16 7182.86 1528.90  17
   3   4  16 8959.21 706.990   7
  -3   4 -16 8183.27 1622.15  18
  -3  -4 -16 6261.51 1319.14  18
   3   4  16 8658.29 856.208  16
   3  -4  16 9537.17 1416.17   6
   3  -4  16 10222.5 895.079   8
   3  -4  16 8871.52 786.739  12
   3   4  16 10922.2 1663.64   2
   3  -4  17 6281.66 698.852   7
   3  -4  17 7529.89 733.237  12
   3  -4  17 5710.01 1128.05   6
   3   4  17 5912.54 578.916   7
  -3   4 -17 5883.47 1442.62  18
  -3  -4 -17 6988.78 1400.34  18
  -3   4 -17 7343.69 1588.89  17
   3   4  17 6919.36 1448.18   2
   3   4  17 7896.58 816.859  16
   3  -4  17 7763.00 794.204   8
   3  -4  18 8913.50 831.081   7
   3  -4  18 8600.43 787.234  12
   3   4  18 9837.67 746.463   7
  -3   4 -18 7013.80 1562.32  18
  -3  -4 -18 6804.11 1385.46  18
  -3   4 -18 7519.48 1573.32  17
   3  -4  18 9665.74 1460.11   6
   3  -4  18 10431.0 914.083   8
   3   4  18 9558.00 1793.29   2
   3   4  18 8807.34 884.700  16
   3  -4  19 9628.44 894.263   7
   3  -4  19 10164.7 877.538  12
   3   4  19 10668.2 785.595   7
  -3   4 -19 9062.09 1869.05  18
   3  -4  19 11818.0 961.956   8
  -3  -4 -19 7856.44 1565.09  18
  -3   4 -19 10099.6 1840.64  17
   3   4  19 10129.3 982.754  16
   3  -4  19 10916.4 1601.27   6
   3   4  19 13683.5 2004.17   2
   3  -4  20 71.1574 228.454   8
   3  -4  20 81.8164 175.803  12
   3  -4  20 100.766 237.573   7
   3  -4  20-376.009 534.790   6
  -3   4 -20-650.358 752.293  18
  -3  -4 -20 139.958 359.974  18
  -3   4 -20-668.533 665.227  17
   3   4  20 153.114 389.956   2
   3  -4  20 52.1134 238.372  16
   3   4  20 638.245 325.165  16
   3   4  20-34.0171 132.247   7
   3  -4  21 2049.19 461.261   8
   3  -4  21 1370.98 326.401  12
   3  -4  21 1058.73 371.235   7
   3   4  21 2013.40 488.315  16
   3  -4  21 2126.40 545.352  16
   3  -4  22 2169.85 435.306  12
   3   4  22 2286.90 541.409  16
   3  -4  22 1696.86 383.845   7
   3  -4  22 1909.13 569.262  16
   3  -4  22 2204.75 471.357   8
   3  -4  23 7457.61 792.736   7
   3  -4  23 7793.93 789.329  12
   3   4  23 8661.90 975.281  16
   3  -4  23 7060.39 966.709  16
   3  -4  23 8591.71 828.201   8
   3  -4  24 244.876 183.764   8
   3  -4  24 182.232 208.732  12
   3  -4  24 591.260 323.416   7
   3   4  24 373.019 338.308  16
   3  -4  24 721.290 398.626  16
   3  -4  25 350.952 266.354  12
   3   4  25 121.745 256.987  16
   3  -4  25 185.202 177.714   8
   3  -4  25 736.877 372.760  16
   3  -4  26 9925.56 868.721  12
   3  -4  26 9436.43 1079.56  16
   3   4  26 10378.8 1065.92  16
   3  -4  26 12001.1 900.241   8
   3  -4  27 3128.92 517.033  12
   3   4  27 2815.18 607.095  16
   3  -4  27 2911.53 696.068  16
   3  -4  27 3758.11 542.850   8
   3  -4  28 456.775 260.986  12
   3  -4  28-35.8273 269.614  16
   3   4  28 558.749 347.343  16
   3  -4  29 2220.27 431.304  12
   3  -4  29 2143.58 524.291  16
   3   4  29 1710.35 512.789  16
   3  -4  30-112.726 209.974  12
   3   4  30 135.927 259.860  16
   3  -4  30-161.364 299.156  16
   3  -4  31 1826.19 426.163  12
   3  -4  31 1666.19 449.639  16
   3   4  31 1620.66 483.536  16
   3   4  32 396.430 344.477  16
   3  -4  32 105.345 209.621  12
   3  -4  32 119.282 236.013  16
   3  -4  33 101.204 175.347  12
   3  -4  33 297.995 226.802  16
   3   4  33-25.8216 267.836  16
   3  -4  34-122.508 210.405  12
   3   4  34 459.862 302.431  16
   3  -4  34 373.699 313.121  16
   3  -4  35 1745.49 332.289  12
   3  -4  35 1675.33 446.507  16
   3   4  35 1402.98 405.701  16
   3  -4  36 3387.09 479.839  16
   3   4  36 2835.53 610.711  16
   3  -4  37 2128.44 322.746  12
   3  -4  37 1274.13 318.461  16
   3   4  37 1601.92 418.575  16
   3  -4  38 2954.83 350.096  12
   3   4  38 2227.49 428.063  16
   3  -4  39 36.5201 119.228  12
   3   4  39 53.3734 173.760  16
   3   4  40 314.570 187.169  16
   3  -5 -39 2361.70 306.196  14
   3  -5 -38 3788.82 429.611  14
   3   5 -38 2655.33 562.429  14
   3   5 -37 1347.05 539.776  14
   3  -5 -37 1077.38 243.993  14
   3  -5 -37 2006.68 614.877  13
   3   5 -36 3181.69 720.676  14
   3  -5 -36 3702.57 473.179  14
   3  -5 -36 1895.18 655.690  13
   3  -5 -35 1228.88 273.418  15
   3   5 -35 1318.21 454.062  14
   3  -5 -35 1394.47 342.014  14
   3  -5 -35 1510.50 581.289  13
   3  -5 -34 952.577 293.161  14
   3  -5 -34 1318.87 327.091  15
   3   5 -34 1688.32 508.146  14
   3  -5 -34 1319.84 564.914  13
   3  -5 -33 3015.99 766.667  13
   3  -5 -33 3245.89 496.637  15
   3   5 -33 2967.95 692.637  14
   3  -5 -33 2967.83 513.831  14
   3  -5 -32 1229.10 525.244  13
   3  -5 -32 2809.93 524.609  15
  -3  -5  32 2775.54 377.116  10
   3   5 -32 2075.82 566.973  14
   3  -5 -32 3187.99 566.634  14
   3  -5 -31 726.725 496.009  13
   3   5 -31 1390.27 663.335  14
  -3  -5  31 1093.19 256.435  10
   3  -5 -31 1285.88 391.310  15
   3  -5 -31 1199.12 431.316  14
   3  -5 -30 7349.08 1046.31  13
  -3  -5  30 9577.97 726.345  10
   3  -5 -30 8991.10 910.657  15
   3   5 -30 9705.05 1308.92  14
  -3  -5  29 19470.5 1066.81  10
   3  -5 -29 17783.4 1316.06  15
   3  -5 -29 17292.9 1532.26  13
   3   5 -29 19899.9 1849.16  14
   3  -5 -28 20489.2 1227.36  10
  -3  -5  28 18722.8 1073.99  10
   3  -5 -28 15926.2 1295.93  15
   3   5 -28 20357.8 1863.51  14
   3  -5 -28 17203.0 1514.56  13
   3  -5 -27 1067.95 448.810  13
   3   5 -27 930.544 464.801  14
   3  -5 -27 1208.46 344.695  10
  -3  -5  27 1065.33 291.908  10
   3  -5 -26 10326.4 919.766  10
  -3  -5  26 10422.8 841.284  10
   3   5 -26 9905.44 1441.69  14
   3  -5 -26 10173.8 1106.58  13
   3  -5 -25 4053.68 605.337  10
  -3  -5  25 3471.84 523.410  10
   3  -5 -25 3193.74 667.906  13
   3   5 -25 3314.73 970.373  14
  -3  -5  24 24769.0 1348.78  10
   3  -5 -24 25533.4 1470.77  10
   3   5 -24 24181.4 2175.98  14
   3  -5 -24 25591.5 1685.90  13
   3  -5 -23 2977.04 597.753  13
   3  -5 -23 2856.96 502.385  10
   3   5 -23 3205.79 906.134  14
  -3  -5  23 2451.79 435.906  10
   3  -5 -22 10421.4 967.421  10
  -3  -5  22 10656.8 888.126  10
   3   5 -22 9462.50 1382.25  14
   3  -5 -22 11461.2 1068.54  13
   3  -5 -21 2728.83 528.286  13
   3  -5 -21 1770.09 438.531  10
  -3  -5  21 1869.54 375.582  10
   3   5 -21 1880.93 693.665  14
   3   5 -21 2576.65 519.588  15
   3  -5 -20 3587.39 601.704  13
   3  -5 -20 4044.41 617.035  10
  -3  -5  20 3676.93 581.617  10
   3   5 -20 3572.04 515.034  15
   3   5 -20 4605.99 976.978  14
   3  -5 -19 537.704 258.786  10
  -3  -5  19 605.574 299.242  10
   3   5 -19 1198.18 353.871  15
   3   5 -19 768.213 469.195  14
   3  -5 -19 657.690 293.937  13
   3  -5 -18 592.873 241.442  13
   3  -5 -18 1129.11 372.125  10
   3  -5 -18 756.616 260.442   9
   3   5 -18 826.266 284.271  15
   3   5 -18 595.018 452.015  14
  -3  -5  18 928.681 330.108  10
   3  -5 -17 99.2927 172.585  13
   3  -5 -17 372.124 244.558  10
  -3  -5  17 695.158 306.386  10
   3  -5 -17 381.677 217.151   9
   3   5 -17 590.905 279.345  15
   3   5 -17 85.2640 415.427  14
   3  -5 -16 1409.73 369.847  13
  -3  -5  16 885.350 269.158  10
   3  -5 -16 1130.52 374.638  10
   3   5 -16 899.077 335.500  15
   3  -5 -16 1254.92 376.066   9
   3   5 -16 1112.32 643.438  14
   3  -5 -15-13.4752 210.229  10
   3  -5 -15-160.501 564.414   4
   3  -5 -15 314.274 238.018   9
  -3  -5  15 371.069 456.446   1
   3  -5 -15 211.386 246.322  13
  -3  -5  15 127.343 183.358  10
  -3  -5  15 617.969 564.507   3
   3   5 -15 237.841 275.338  15
   3   5 -15-331.486 403.138  14
   3  -5 -14 3732.65 516.834  13
   3  -5 -14 3529.92 984.443   4
  -3  -5  14 4907.70 1209.68   1
   3  -5 -14 4684.13 637.629  10
  -3  -5  14 4189.47 1027.33   3
  -3  -5  14 4166.26 572.655  10
   3   5 -14 2897.10 527.395  15
   3  -5 -14 4141.07 578.363   9
   3   5 -14 3800.84 955.624  14
   3   5 -13 15402.0 1786.26  14
   3  -5 -13 16340.1 1112.10  10
  -3  -5  13 15609.5 1995.29   1
   3  -5 -13 15482.1 1096.43   9
  -3  -5  13 15928.4 1106.51  10
   3   5 -13 15852.0 1229.82  15
   3  -5 -13 15349.9 1038.49  13
   3  -5 -13 13203.6 1913.26   4
   3  -5 -12 212.084 167.045  13
  -3  -5  12 520.361 425.247   1
   3  -5 -12 279.113 412.895   4
  -3  -5  12 411.657 186.149  10
   3   5 -12-191.569 262.035  15
   3  -5 -12 301.722 193.189   9
   3  -5 -12 390.660 252.388  10
   3   5 -12 1184.04 578.506   2
   3   5 -12-30.1149 491.505  14
   3  -5 -11 17758.5 2221.47   4
   3   5 -11 20118.9 2400.81   2
   3  -5 -11 19492.7 1221.07  10
  -3  -5  11 19710.5 2227.72   1
   3   5 -11 11864.2 1984.88  17
  -3  -5  11 18675.6 1188.53  10
   3   5 -11 18226.6 1334.42  15
   3   5 -11 17591.1 1923.53  14
   3  -5 -11 16385.9 1052.16  13
   3  -5 -10 287.420 287.755  13
   3  -5 -10-237.725 430.432   4
   3   5 -10-394.653 592.501  17
   3  -5 -10-83.9379 232.209  10
  -3  -5  10-350.073 225.861  10
   3   5 -10-264.840 328.104  15
   3   5 -10 87.3717 518.782   2
   3   5 -10 443.960 632.961  14
  -3  -5  10-233.111 402.672   1
   3  -5  -9 18795.6 2265.16   4
   3  -5  -9 20492.9 1228.85  10
   3   5  -9 19669.8 2391.66   2
  -3  -5   9 19898.4 2190.68   1
  -3  -5   9 19819.5 1196.10  10
   3   5  -9 21251.3 1438.16  15
   3   5  -9 20437.0 2111.08  14
   3  -5  -9 19276.7 1121.41  13
   3  -5  -8 2477.28 799.524   4
   3  -5  -8 2574.87 492.289  10
  -3  -5   8 2626.51 500.931  10
   3   5  -8 2751.88 534.718  15
   3   5  -8 2689.66 1011.91  14
   3   5  -8 2942.25 1075.34   2
  -3  -5   8 3641.20 1068.62   1
   3  -5  -8 2389.25 499.885  13
   3  -5  -7 35180.8 3118.19   4
   3  -5  -7 35930.0 1576.36  10
   3   5  -7 34538.3 3240.28   2
  -3  -5   7 35646.8 2887.02   1
  -3  -5   7 35568.7 1612.29  10
   3   5  -7 37783.7 1878.71  15
   3   5  -7 34643.6 2724.14  14
   3  -5  -7 31343.8 1428.74  13
   3  -5  -6 190.021 538.889   4
   3   5  -6 1908.99 1081.62  14
  -3  -5   6 1575.46 1035.71   1
   3  -5  -6 261.418 204.765  10
  -3  -5   6 780.547 410.452  10
   3   5  -6 2837.73 1366.60   2
   3   5  -6 1224.71 469.512  15
   3  -5  -6 3927.49 566.221  13
   3  -5  -5 43085.8 3427.97   4
   3   5  -5 42610.2 3573.10   2
  -3  -5   5 43409.7 3196.73   1
   3  -5  -5 41630.0 1695.09  10
  -3  -5   5 44889.3 1799.13  10
   3   5  -5 45720.0 2041.60  15
   3  -5  -5 40293.5 1581.67  13
   3   5  -4 18288.0 2267.41   2
  -3  -5   4 18047.5 2037.24   1
   3  -5  -4 19205.4 1169.80  10
  -3  -5   4 17485.5 1128.20  10
   3  -5  -4 19125.1 2369.20   4
   3   5  -4 20695.4 1394.65  15
   3   5  -4 21135.6 2247.45  14
   3  -5  -4 19582.0 1117.51  13
   3  -5  -3 4323.14 1214.38   4
   3  -5  -3 3498.21 525.300  10
   3   5  -3 4070.73 1163.81   2
  -3  -5   3 3858.79 552.316  10
   3  -5  -3 4000.00 565.593   8
   3  -5  -3 4010.59 538.477  13
   3   5  -3 4300.53 1094.82  14
  -3  -5   3 3519.46 925.771   1
   3   5  -3 3713.07 626.900  15
   3  -5  -2 2433.05 443.011   8
   3  -5  -2 1947.10 879.205   4
   3   5  -2 3214.12 1121.73   2
   3  -5  -2 2852.99 454.600  10
  -3  -5   2 2960.99 930.725   1
  -3  -5   2 3148.80 514.596  10
   3   5  -2 3449.32 599.941  15
   3   5  -2 2862.61 872.885  14
   3  -5  -2 3301.15 483.913  13
  -3  -5   1 9999.02 1642.64   1
   3   5  -1 13796.6 2622.20   2
   3  -5  -1 3925.68 1055.25   4
  -3  -5   1 5871.45 821.511  10
   3  -5  -1 4177.80 559.405  10
   3   5  -1 5943.11 881.934  15
   3  -5  -1 4011.86 566.492   8
   3  -5  -1 10970.1 1030.00  13
   3  -5   0 68294.8 4324.31   4
  -3  -5   0 72850.9 4047.10   1
   3   5   0 71764.9 4454.41   2
   3  -5   0 72085.4 2152.06  10
  -3  -5   0 71331.2 2224.23  10
   3   5   0 82114.0 2720.83  15
   3  -5   0 70182.7 2167.49   8
   3  -5   0 72272.5 2159.89  13
  -3  -5  -1 9251.68 2363.91   1
   3  -5   1 3145.57 640.351   8
   3   5   1 9242.15 2368.67   2
   3  -5   1 2255.28 565.977  10
   3  -5   1 2911.60 1208.50   4
   3   5   1 2087.00 558.493  15
  -3  -5  -1 2575.65 492.869  10
  -3  -5  -2 76328.2 4147.92   1
   3  -5   2 66002.1 4298.80   4
   3   5   2 72888.6 4436.42   2
   3  -5   2 72472.4 2126.67  10
  -3   5  -2 67775.2 4565.33  17
  -3  -5  -2 72889.6 2226.65  10
   3  -5   2 72147.4 2238.78   8
   3  -5   2 67393.2 2134.73  13
   3   5   2 74177.9 2589.62  15
   3  -5   3 3470.57 1159.41   4
   3  -5   3 2723.05 515.420  10
  -3  -5  -3 2497.11 987.849   1
  -3   5  -3 1192.47 650.907  17
  -3  -5  -3 1291.23 327.892  10
   3   5   3 904.925 336.936  15
   3   5   3 3971.03 2296.37   2
   3  -5   3 3210.98 599.966   8
   3  -5   3 4346.15 962.834  13
   3  -5   4 4594.93 1165.88   4
  -3  -5  -4 2925.82 857.640   1
   3  -5   4 4235.56 519.827  10
  -3  -5  -4 4537.96 583.258  10
  -3   5  -4 4568.33 1226.39  17
   3   5   4 4758.49 1146.09   2
   3  -5   4 4143.31 589.804   8
   3  -5   4 4481.59 567.990  13
   3  -5   5 679.849 290.128   8
   3  -5   5 927.078 499.047   4
   3   5   5 1953.52 935.655   2
  -3  -5  -5 1167.95 865.641   1
  -3   5  -5 1495.37 848.816  17
  -3  -5  -5 830.603 276.042  10
   3  -5   5 1233.88 369.749  13
   3   5   6 26715.3 2734.82   2
   3  -5   6 22603.0 2552.85   4
  -3   5  -6 20526.6 2615.01  17
  -3  -5  -6 23663.6 1259.70  10
   3  -5   6 23042.1 1340.61   8
   3  -5   6 25565.5 1386.01  13
  -3  -5  -6 25360.4 2484.75   1
   3   5   7 19292.0 2305.87   2
   3  -5   7 16227.3 2117.93   4
  -3  -5  -7 17168.0 1063.03  10
  -3   5  -7 13817.9 2163.66  17
   3   5   7 14933.9 1087.72  16
   3  -5   7 15387.1 1119.09   8
   3  -5   7 15512.0 1090.71  13
  -3  -5  -7 18545.9 2096.21   1
   3  -5   8 3119.25 505.788   8
   3  -5   8 2271.39 848.695   4
  -3  -5  -8 3249.92 991.874   1
  -3   5  -8 4696.69 1323.79  17
  -3  -5  -8 3228.79 469.476  10
   3   5   8 3161.30 1050.21   2
   3   5   8 3628.79 559.773  16
   3  -5   8 3658.94 574.458  13
   3   5   9 9024.58 1572.53   2
   3  -5   9 7092.64 1428.77   4
   3   5   9 6645.26 624.715   7
  -3  -5  -9 7576.69 715.796  10
  -3   5  -9 5984.57 1412.65  17
   3   5   9 6205.17 730.360  16
   3  -5   9 6231.68 698.515  13
   3  -5   9 6924.38 760.873   8
  -3  -5  -9 8427.17 1481.06   1
   3  -5  10 6068.63 1277.89   4
   3   5  10 5922.16 584.656   7
  -3  -5 -10 5996.32 1300.39   1
   3   5  10 7054.84 1400.52   2
  -3   5 -10 5207.63 1354.05  17
  -3  -5 -10 5791.34 617.135  10
   3   5  10 6502.90 739.918  16
   3  -5  10 5817.99 729.336   8
   3   5  11 23166.4 2515.21   2
   3  -5  11 20098.7 2384.26   4
   3   5  11 20071.2 1059.27   7
   3   5  11 21453.5 1319.35  16
  -3   5 -11 17643.1 2420.50  17
   3  -5  11 22242.1 1365.89   8
  -3  -5 -11 23791.7 2483.01   1
   3  -5  12 62.8456 245.411   8
   3  -5  12-34.8315 143.411  12
   3  -5  12-240.451 551.047   4
  -3  -5 -12 487.624 508.174   1
   3   5  12 122.378 158.899   7
   3   5  12-53.8218 361.797   2
   3   5  12 89.7976 190.788  16
  -3   5 -12-64.0065 439.536  17
   3   5  13 14251.1 2051.66   2
   3  -5  13 13170.5 1072.87   8
   3  -5  13 11730.9 843.398  12
   3   5  13 12375.8 850.084   7
  -3   5 -13 9219.10 1865.86  18
  -3   5 -13 11817.8 1996.78  17
   3   5  13 12400.4 1053.80  16
   3  -5  14 177.075 237.588   8
   3  -5  14 321.201 176.695  12
   3   5  14 490.619 209.681   7
   3   5  14 130.717 202.677  16
   3  -5  15 9427.89 786.671  12
   3  -5  15 10070.4 951.172   8
   3   5  15 8952.81 705.528   7
   3   5  15 10684.8 987.635  16
   3  -5  16 5726.96 625.053  12
   3   5  16 5571.77 735.982  16
   3  -5  16 7723.73 795.706   8
   3  -5  17 2494.02 487.559   8
   3  -5  17 2159.44 394.288  12
   3   5  17 2551.96 502.909  16
   3  -5  18 111.410 267.867   8
   3  -5  18 37.0574 180.175  12
   3   5  18 361.084 282.451  16
   3  -5  19 2305.63 490.222   8
   3  -5  19 1784.15 370.362  12
   3   5  19 2396.63 541.556  16
   3   5  20 32209.8 1756.87  16
   3  -5  20 35448.6 1716.54   8
   3  -5  21 1380.80 302.949  12
   3  -5  21 1582.31 380.210   8
   3   5  21 1035.26 371.269  16
   3  -5  22 350.295 245.973   8
   3  -5  22 625.561 292.212  12
   3   5  22 202.640 290.179  16
   3  -5  23 8288.49 760.384  12
   3   5  23 7979.94 906.234  16
   3  -5  23 10234.0 895.666   8
   3   5  24 125.336 319.210  16
   3  -5  24 90.0912 167.110   8
   3  -5  24-18.5462 163.568  12
   3  -5  25 1062.12 295.942   8
   3  -5  25 1222.33 311.219  12
   3   5  25 744.202 348.010  16
   3  -5  26 1508.10 359.486   8
   3  -5  26 1290.58 307.679  12
   3   5  26 1270.78 422.537  16
   3  -5  27 3928.24 519.199  12
   3  -5  27 5084.84 550.674   8
   3   5  27 3543.31 613.922  16
   3  -5  28 6408.03 619.545  12
   3   5  28 5908.42 772.585  16
   3  -5  28 7765.01 644.359   8
   3  -5  29 850.754 238.314   8
   3  -5  29 296.208 206.795  12
   3   5  29 402.330 240.671  16
   3  -5  30 9311.31 707.743  12
   3   5  30 10138.9 961.274  16
   3  -5  31 1129.51 273.228  12
   3   5  31 966.792 324.545  16
   3  -5  32 17214.4 893.238  12
   3   5  32 18988.1 1250.24  16
   3  -5  33 1646.07 286.664  12
   3   5  33 1992.80 409.840  16
   3  -5  34 10361.1 629.368  12
   3   5  34 10882.2 827.837  16
   3  -5  35 2041.47 268.572  12
   3   5  35 2457.64 406.604  16
   3  -5  36 2619.10 276.785  12
   3   5  36 3010.77 434.576  16
   3  -5  36 2590.24 282.917  13
   3   6 -34 129.511 304.209  14
   3  -6 -34-108.337 148.011  14
   3  -6 -34-78.6010 318.625  13
   3  -6 -33 2945.16 379.695  14
   3   6 -33 2280.19 606.714  14
   3  -6 -33 1956.66 606.107  13
   3  -6 -32 913.516 215.152  15
   3   6 -32 1759.17 564.369  14
   3  -6 -32 1533.60 335.562  14
   3  -6 -32 485.711 413.851  13
   3  -6 -31 542.333 348.579  13
   3  -6 -31 760.585 233.894  15
   3   6 -31 1261.04 505.466  14
   3  -6 -31 835.091 247.517  14
   3  -6 -30 1513.50 560.682  13
  -3  -6  30 1479.47 238.113  10
   3  -6 -30 1480.22 330.078  15
   3  -6 -30 1603.97 362.686  14
   3   6 -30 295.279 471.969  14
   3  -6 -29 873.157 456.819  13
  -3  -6  29 1091.47 261.873   8
  -3  -6  29 771.393 179.456  10
   3  -6 -29 880.775 304.556  15
   3   6 -29 1578.75 639.814  14
   3  -6 -28 319.222 361.415  13
  -3  -6  28 96.2198 151.673  10
   3  -6 -28-348.916 207.245  15
   3   6 -28-607.156 513.152  14
   3  -6 -27 620.012 328.683  13
   3  -6 -27 936.800 295.371  10
  -3  -6  27 518.255 182.550  10
   3  -6 -27 927.547 343.675  15
   3   6 -27 490.833 595.378  14
   3  -6 -26 225.805 274.419  13
   3  -6 -26 1335.17 333.104  10
  -3  -6  26 1326.53 293.022  10
   3   6 -26 2093.16 790.966  14
   3  -6 -25 651.546 350.155  13
   3  -6 -25 606.208 288.553  10
  -3  -6  25 380.142 196.531  10
   3   6 -25 651.886 463.704  14
   3  -6 -24 1244.33 309.719  10
  -3  -6  24 1080.99 260.260  10
   3  -6 -24 1213.96 474.157  13
   3   6 -24 1138.52 666.117  14
   3  -6 -23 5984.76 685.933  10
  -3  -6  23 6648.00 643.443  10
   3   6 -23 5362.48 1142.32  14
   3  -6 -23 7090.68 859.867  13
   3  -6 -22 307.944 289.892  13
   3  -6 -22 47.3916 199.081  10
  -3  -6  22-56.5114 192.163  10
   3   6 -22 376.397 595.634  14
   3  -6 -21 9401.88 878.575  10
  -3  -6  21 9198.29 808.634  10
   3   6 -21 8268.23 1341.53  14
   3  -6 -21 8530.67 1019.09  13
   3  -6 -20 4229.82 677.376  13
   3  -6 -20 3585.07 595.914  10
  -3  -6  20 3764.58 544.597  10
   3   6 -20 3267.32 1043.21  14
   3  -6 -19 15797.5 1169.07  10
  -3  -6  19 14918.1 1055.24  10
   3  -6 -19 15482.1 1008.42   9
   3   6 -19 13298.9 1790.43  14
   3  -6 -19 16107.5 1181.88  13
   3  -6 -18 2454.90 450.542  13
   3  -6 -18 1881.40 434.916  10
  -3  -6  18 1525.97 396.351  10
   3  -6 -18 1482.15 368.853   9
   3   6 -18 1126.23 619.480  14
   3  -6 -17 788.781 253.104  10
  -3  -6  17 920.377 319.104  10
   3  -6 -17 1577.95 439.851  13
   3  -6 -17 830.447 277.666   9
   3   6 -17 747.215 693.777  14
   3  -6 -16 12872.2 1051.59  10
  -3  -6  16 10907.0 905.832  10
   3  -6 -16 11672.8 934.745   9
   3   6 -16 13210.5 1908.76  14
   3   6 -16 12920.9 1091.61  15
   3  -6 -16 13943.0 1056.38  13
   3  -6 -15 8434.10 821.998   9
   3   6 -15 7364.30 1474.28  14
   3  -6 -15 8658.83 858.640  10
  -3  -6  15 8218.17 805.133  10
   3   6 -15 7969.71 877.949  15
   3  -6 -15 8771.21 827.193  13
   3  -6 -14 16291.3 1168.01  10
   3  -6 -14 15745.9 1122.71   9
  -3  -6  14 14832.7 1099.51  10
   3   6 -14 15497.7 2110.41  14
   3   6 -14 16743.8 1253.36  15
   3  -6 -14 17803.5 1164.59  13
   3   6 -13 8026.33 906.881  15
   3  -6 -13 10634.3 962.605  10
  -3  -6  13 9302.71 866.644  10
   3   6 -13 11604.1 1769.44  14
   3  -6 -13 9992.78 895.638   9
   3  -6 -13 10000.3 880.530  13
   3  -6 -12 21184.5 1324.73  10
  -3  -6  12 20420.7 1288.91  10
   3   6 -12 20081.5 1404.24  15
   3  -6 -12 19388.7 1277.78   9
   3   6 -12 25192.0 2584.66  14
   3  -6 -12 21334.7 1246.80  13
   3  -6 -11 13899.9 1077.16  10
  -3  -6  11 13818.7 1086.18  10
   3  -6 -11 13991.3 1059.57   9
   3   6 -11 13298.0 1157.10  15
   3   6 -11 15546.4 2129.56  14
   3  -6 -11 14606.1 1053.61  13
   3  -6 -10 11360.9 975.763  10
   3  -6 -10 12546.7 1005.32   9
  -3  -6  10 13330.7 1103.32  10
   3   6 -10 14465.2 2378.99  14
   3  -6 -10 12407.9 977.144  13
   3   6 -10 12752.6 1188.53  15
  -3  -6   9 75707.5 2494.33  10
   3  -6  -9 70245.1 2238.76  13
   3   6  -9 69665.6 2670.10  15
   3  -6  -9 74452.1 2449.49  10
   3   6  -9 72700.5 4392.20  14
   3  -6  -8 39880.5 1794.36  10
  -3  -6   8 39179.9 1832.39  10
   3   6  -8 43988.5 3576.13  14
   3  -6  -8 41324.5 1805.27  13
  -3  -6   7 75167.3 2465.57  10
   3  -6  -7 79413.9 2480.27  10
   3   6  -7 70641.4 4363.35  14
   3  -6  -7 75706.4 2315.23  13
   3  -6  -6 2894.39 673.256  10
  -3  -6   6 747.717 396.866  10
   3  -6  -5 7254.24 771.289  10
  -3  -6   5 7375.33 776.466  10
   3  -6  -5 7299.52 737.095  13
  -3  -6   4 76.1637 249.376  10
   3  -6  -4 427.841 262.572  10
   3  -6  -3 4984.16 603.784  10
  -3  -6   3 5397.75 674.162  10
   3  -6  -3 4866.74 584.853  13
   3  -6  -2 5213.01 637.553  10
  -3  -6   2 5624.61 691.188  10
   3  -6  -2 4673.13 566.915   8
   3  -6  -2 6537.19 700.365  13
   3  -6  -1 550.088 268.407   8
   3  -6  -1 822.911 323.968  10
   3  -6  -1 690.239 283.889  13
  -3  -6   1 7.30039 210.622  10
   3  -6   0 308.830 246.410  13
   3  -6   0-115.355 229.912   8
   3  -6   0-61.3455 191.957  10
  -3  -6   0 638.786 325.455  10
  -3  -6  -1 5592.35 678.318  10
   3  -6   1 5184.38 602.020  10
   3  -6   1 5552.29 656.325   8
   3  -6   1 5861.60 700.852  13
   3  -6   2 4121.05 583.553   8
  -3  -6  -2 4722.21 624.381  10
   3  -6   2 4149.68 567.713  10
   3  -6   2 5364.81 787.699  13
   3  -6   3 9037.79 835.469   8
   3  -6   3 9373.51 804.825  10
  -3  -6  -3 10103.1 887.786  10
   3  -6   3 11678.9 1052.01  13
  -3  -6  -4 7304.37 770.626  10
   3   6   4 7729.67 790.001  16
   3  -6   4 6847.10 689.251  10
   3  -6   4 7229.32 775.773   8
   3  -6   4 8961.35 912.255  13
   3   6   5 7206.50 803.795  16
   3  -6   5 7743.06 716.589  10
  -3  -6  -5 7416.44 766.353  10
   3  -6   5 7748.94 804.800   8
   3  -6   5 8451.60 896.537  13
   3  -6   6 4653.04 638.146   8
  -3  -6  -6 4732.99 596.587  10
   3   6   6 5383.13 704.308  16
   3  -6   6 5406.21 778.415  13
   3  -6   7 1732.44 537.849  13
   3  -6   7 782.379 269.281   8
   3   6   7 1503.06 321.119   7
  -3  -6  -7 1005.00 307.112  10
   3   6   7 1143.11 366.255  16
   3  -6   8 3128.14 538.728  13
   3  -6   8 3017.56 552.445   8
   3   6   8 3293.99 555.875  16
   3   6   8 3295.42 464.317   7
  -3  -6  -8 2866.07 464.894  10
   3  -6   9 2669.62 574.595  13
   3  -6   9 2272.22 451.622   8
   3   6   9 2320.66 524.278  16
   3   6   9 2433.16 380.801   7
  -3  -6  -9 2252.26 442.313  10
   3   6  10 12170.4 841.571   7
   3  -6  10 11948.2 1060.78  13
  -3  -6 -10 11436.4 908.404  10
   3   6  10 12324.7 1059.91  16
   3  -6  10 11619.0 998.847   8
  -3  -6 -11 24534.0 1263.84  10
   3  -6  11 22561.4 1373.40   8
   3  -6  11 21583.2 1321.09  13
   3   6  11 22656.6 1416.35  16
   3  -6  12 1142.40 448.162   8
   3  -6  12 1395.59 569.684  13
  -3  -6 -12 533.370 220.368  10
   3   6  12 650.657 333.770  16
   3  -6  13 23834.2 1397.37   8
   3   6  13 23578.3 1457.88  16
   3  -6  13 24328.5 1292.01   9
   3  -6  13 22913.0 1355.77  13
   3   6  14 27158.8 1562.98  16
   3  -6  14 25327.0 1317.92   9
   3  -6  14 24628.3 1435.36   8
   3  -6  14 25216.1 1399.06  13
   3   6  15 14027.9 1130.50  16
   3  -6  15 14065.4 1089.71   8
   3  -6  15 12241.2 993.703  13
   3  -6  16 7466.59 780.662   8
   3  -6  16 7249.06 813.622  13
   3   6  17 6401.90 816.183  16
   3  -6  17 6726.01 722.563   8
   3  -6  17 6309.27 726.737  13
   3   6  18 10318.4 1025.86  16
   3  -6  18 10418.4 891.510   8
   3  -6  18 10020.7 886.140  13
   3  -6  19 1440.19 388.953   8
   3  -6  19 922.140 342.596  13
   3   6  19 1142.93 412.913  16
   3  -6  20 2228.97 433.250   8
   3  -6  20 1953.26 411.733  13
   3   6  20 3061.36 580.156  16
   3   6  21 8626.81 890.661  16
   3  -6  21 9593.03 813.224   8
   3  -6  21 7043.69 706.507  13
   3  -6  22 3039.78 453.414   8
   3  -6  22 2797.42 442.164  13
   3   6  22 3085.73 578.005  16
   3  -6  23 3080.75 450.928  13
   3  -6  23 3141.64 384.882  12
   3   6  23 3899.90 591.636  16
   3  -6  23 4020.43 516.846   8
   3  -6  24 4657.74 456.076  12
   3   6  24 6164.24 761.923  16
   3  -6  24 6457.72 606.036   8
   3  -6  24 4590.10 536.417  13
   3  -6  25 4530.78 439.230  12
   3  -6  25 6197.10 572.329   8
   3   6  25 5178.09 680.057  16
   3  -6  25 4672.33 527.470  13
   3  -6  26 187.628 133.245   8
   3  -6  26 137.551 178.035  13
   3  -6  26 75.1463 105.249  12
   3   6  26 37.5555 202.736  16
   3   6  27 7758.10 750.540  16
   3  -6  27 7305.01 557.729   8
   3  -6  27 6411.34 487.636  12
   3  -6  27 5781.07 555.423  13
   3  -6  28 4853.96 393.183  12
   3   6  28 5321.76 643.029  16
   3  -6  28 5889.74 477.129   8
   3  -6  28 4949.60 481.152  13
   3  -6  29 662.491 165.842   8
   3  -6  29 909.858 231.356  13
   3  -6  29 694.744 168.749  12
   3   6  29 643.447 292.568  16
   3  -6  30 1146.45 232.588  13
   3   6  30 1588.11 354.307  16
   3  -6  31 1135.02 201.109  13
   3   6  31 1210.79 315.913  16
   3  -6  32 394.234 116.863  13
   3   6  32 536.971 209.854  16
   3  -7 -28 1969.18 418.389  13
   3  -7 -28 1429.21 266.423  15
   3  -7 -28 1377.20 249.751  14
   3  -7 -27 1083.69 384.850  13
  -3  -7  27 895.179 178.096   8
   3  -7 -27 797.735 229.394  15
   3  -7 -27 729.932 215.238  14
   3  -7 -26 300.690 265.061  13
  -3  -7  26-36.0908 122.935   8
  -3  -7  26 41.5445 92.3553  10
   3  -7 -26 312.624 200.778  15
   3  -7 -25 3077.11 525.946  13
   3  -7 -25 3108.31 399.400  10
  -3  -7  25 2890.23 325.261  10
   3  -7 -25 2780.38 444.840  15
  -3  -7  25 3057.86 373.224   8
   3  -7 -24 784.998 318.141  13
  -3  -7  24 0.43363 146.266   8
   3  -7 -24 589.831 220.343  10
  -3  -7  24 353.329 159.979  10
   3  -7 -24 706.721 282.768  15
   3  -7 -23 198.794 259.834  13
   3  -7 -23 240.680 156.065  10
  -3  -7  23 420.805 146.379  10
   3  -7 -23 60.1083 212.259  15
   3  -7 -22-64.6194 209.424  13
  -3  -7  22-89.2170 148.246  10
   3  -7 -22-265.855 200.276  10
   3  -7 -21 3385.44 598.051  13
   3  -7 -21 4565.35 540.242  10
  -3  -7  21 4311.45 462.778  10
   3  -7 -20 587.803 291.807  13
   3  -7 -20 800.740 270.586  10
  -3  -7  20 880.788 261.853  10
   3  -7 -19 359.493 262.963  13
   3  -7 -19-90.1416 187.189  10
  -3  -7  19 144.340 174.120  10
   3  -7 -18 2624.10 494.748  13
   3  -7 -18 2229.87 410.854  10
  -3  -7  18 1700.71 319.471  10
   3  -7 -18 1797.23 320.090   9
   3  -7 -17 4381.77 491.726   9
   3  -7 -17 4443.29 572.912  10
  -3  -7  17 4649.39 543.007  10
   3  -7 -17 5669.51 643.609  13
  -3  -7  16 9668.05 770.125  10
   3  -7 -16 10638.4 852.489  10
   3  -7 -16 11371.5 893.122  13
   3  -7 -16 9811.17 748.236   9
   3  -7 -15 1555.59 382.380  13
   3  -7 -15 1583.71 390.563  10
  -3  -7  15 1669.95 358.735  10
   3  -7 -15 1326.56 301.684   9
   3  -7 -14 2454.29 430.771  13
   3  -7 -14 2489.34 408.595   9
   3  -7 -14 2042.48 433.100  10
  -3  -7  14 1834.77 376.524  10
   3  -7 -13 7364.05 737.223  10
  -3  -7  13 7250.06 695.377  10
   3  -7 -13 6802.55 692.320   9
   3  -7 -13 8145.14 745.955  13
   3  -7 -12 8316.75 754.998   9
   3  -7 -12 8373.07 786.545  10
  -3  -7  12 8456.51 787.551  10
   3  -7 -12 8597.97 789.611  13
   3  -7 -11 222.825 274.176  13
  -3  -7  11-157.011 205.957  10
   3  -7 -11 141.054 175.384  10
   3  -7 -11 358.404 274.722   9
   3  -7 -10 1275.07 414.877  13
   3  -7 -10 712.814 285.832  10
  -3  -7  10 484.893 302.277  10
   3  -7 -10 780.277 304.127   9
   3  -7  -9 5685.74 674.849   9
   3  -7  -9 6043.49 677.538  10
  -3  -7   9 6172.02 694.094  10
   3  -7  -9 4345.92 634.351  13
   3  -7  -8 4624.80 639.828  13
  -3  -7   8 4303.72 617.294  10
   3  -7  -8 3954.29 558.029  10
   3  -7  -8 3474.23 556.434   9
   3  -7  -7 8156.78 798.789  10
  -3  -7   7 8600.49 809.304  10
   3  -7  -7 9488.35 825.609  13
   3  -7  -7 8405.09 821.979   9
   3  -7  -6 3689.21 597.007   9
  -3  -7   6 3475.80 610.801  10
   3  -7  -6 3173.39 536.672  10
   3  -7  -5 17564.6 1124.94  10
  -3  -7   5 18127.8 1161.43  10
   3  -7  -5 19148.6 1202.11   9
   3  -7  -5 18291.3 1117.52  13
   3  -7  -4 1608.04 458.763  10
  -3  -7   4 915.206 413.395  10
   3  -7  -4 1664.56 462.239   9
   3  -7  -3 11462.6 908.295  10
   3  -7  -3 12080.7 975.054   9
  -3  -7   3 10911.8 889.823  10
   3  -7  -3 11153.7 905.906  13
   3  -7  -2 1317.10 437.515   9
  -3  -7   2 1225.11 429.811  10
   3  -7  -1 12142.5 897.711  10
  -3  -7   1 13293.2 1002.66  10
   3  -7  -1 13523.7 1015.29   9
   3  -7  -1 11953.6 839.073   8
   3  -7  -1 13995.7 1008.20  13
   3  -7   0 6268.86 753.168   9
  -3  -7   0 4905.82 621.362  10
   3   7   0 9665.62 1069.27  16
   3  -7   0 5208.96 609.396  10
   3  -7   0 5162.31 573.027   8
   3  -7   0 8157.93 770.185  13
   3  -7   1 674.168 254.165  10
  -3  -7  -1 903.870 301.167  10
   3  -7   1 1360.90 335.695   8
   3   7   1 1359.62 536.494  16
   3  -7   1 1032.64 374.965   9
   3  -7   2 1600.95 357.907   8
   3  -7   2 2125.41 379.071  10
  -3  -7  -2 2262.15 449.134  10
   3  -7   2 2126.39 422.293   9
   3  -7   2 2965.68 570.917  13
   3  -7   3 1844.15 360.688   8
  -3  -7  -3 3399.08 560.260  10
   3   7   3 2900.95 412.978   7
   3  -7   3 2255.62 409.251  10
   3  -7   3 2617.91 464.993   9
   3  -7   4 12029.2 952.909   9
   3   7   4 11957.3 797.272   7
   3  -7   4 10980.8 816.554  10
  -3  -7  -4 12511.7 947.286  10
   3  -7   4 10761.6 845.937   8
   3   7   5 18118.7 951.401   7
  -3  -7  -5 19197.2 1145.27  10
   3  -7   5 17424.0 1012.92  10
   3  -7   5 18510.8 1095.62   8
   3  -7   5 19751.8 1198.65   9
   3  -7   6 9755.99 846.810   9
  -3  -7  -6 10301.2 845.160  10
   3  -7   6 9278.93 804.797   8
  -3  -7  -7 32380.2 1441.40  10
   3  -7   7 34078.1 1531.24   9
   3   7   7 32299.6 1600.31  16
   3  -7   7 29967.2 1398.72   8
   3  -7   7 33463.1 1475.59  13
   3  -7   8 1903.57 418.682   8
   3   7   8 2191.77 687.021  16
  -3  -7  -8 1605.93 368.467  10
   3  -7   8 2939.54 515.368   9
   3  -7   9 4383.71 541.746   8
  -3  -7  -9 4870.44 548.841  10
   3  -7   9 5033.70 594.643   9
   3  -7   9 5387.38 607.390  13
   3  -7  10 1318.70 326.262   8
  -3  -7 -10 1325.43 328.003  10
   3  -7  10 1583.78 335.820   9
   3   7  11 24792.5 1377.08  16
  -3  -7 -11 22835.0 1128.43  10
   3  -7  11 20982.9 1199.33   8
   3  -7  11 21944.5 1148.02   9
   3  -7  11 20014.4 1174.93  13
   3  -7  12 43.2211 195.617   8
   3   7  12-1.07292 165.865  11
  -3  -7 -12 264.001 182.947  10
   3   7  12-39.8343 212.169  16
   3  -7  12 464.542 237.823   9
   3  -7  13 1460.87 363.986   8
   3  -7  13 1382.16 310.425  13
   3   7  13 936.835 246.749  11
   3   7  13 2034.05 456.139  16
   3  -7  13 1484.34 316.737   9
   3  -7  14-180.686 216.812   8
   3  -7  14 371.076 235.624  13
   3   7  14 419.564 313.329  16
   3  -7  14 100.792 155.347   9
   3  -7  15 3833.37 521.030   8
   3  -7  15 3048.84 443.979  13
   3   7  15 3559.91 546.720  16
   3  -7  16 776.698 261.290   8
   3  -7  16 1138.36 313.100  13
   3   7  16 1210.50 362.988  16
   3   7  17 6700.60 720.140  16
   3  -7  17 6042.93 605.866   8
   3  -7  17 4379.11 545.155  13
   3  -7  18 455.202 197.638   8
   3  -7  18 708.336 275.873  13
   3   7  18 498.763 267.356  16
   3  -7  19 9.02500 160.129   8
   3  -7  19 216.132 165.010  13
   3   7  19-132.139 223.064  16
   3  -7  20 988.785 259.933   8
   3  -7  20 802.330 243.836  13
   3   7  20 974.837 334.145  16
   3  -7  21-97.5554 189.669   8
   3  -7  21 125.337 124.990  13
   3   7  21-145.933 200.857  16
   3  -7  22-204.466 144.831  13
   3  -7  22 61.4901 143.094   8
   3   7  22-52.8830 192.282  16
   3  -7  23 2626.83 317.547  13
   3   7  23 3373.76 465.393  16
   3  -7  23 2789.81 350.210   8
   3  -7  24 1229.07 218.154   8
   3  -7  24 1283.49 233.874  13
   3   7  24 1323.41 324.930  16
   3   7  25 3867.50 455.949  16
   3  -7  25 3727.80 334.393   8
   3  -7  25 3073.08 312.189  13
   3  -7  26 775.659 162.210  13
   3   7  26 688.539 217.437  16
   3  -8 -19 711.056 238.791  13
  -3  -8  19 354.279 165.787   8
   3  -8 -19 560.414 194.659  10
   3  -8 -19 66.7567 125.032  15
   3  -8 -18 3177.55 371.216  10
  -3  -8  18 2742.95 282.062  10
   3  -8 -18 2301.69 336.411  15
  -3  -8  18 3181.35 339.912   8
   3  -8 -17 4025.72 401.653  10
  -3  -8  17 4293.13 385.070  10
   3  -8 -17 2969.53 409.426  15
   3  -8 -17 4699.66 504.634  13
  -3  -8  17 4316.07 412.484   8
   3  -8 -16 1083.79 262.081  13
  -3  -8  16 840.317 198.737   8
   3  -8 -16 793.955 211.646  10
  -3  -8  16 945.294 231.215  10
   3  -8 -15 171.865 213.878  13
  -3  -8  15-410.295 190.282   8
   3   8 -15-156.061 128.551  11
   3  -8 -15 191.942 196.809  10
  -3  -8  15 76.2964 148.536  10
   3   8 -14 5589.79 463.507  11
  -3  -8  14 6114.28 497.320  10
   3  -8 -14 5749.83 511.524  10
   3  -8 -14 6378.03 463.231   9
   3  -8 -14 6792.12 603.565  13
  -3  -8  14 5616.43 505.132   8
   3  -8 -13 860.872 191.459   9
   3   8 -13 850.734 218.217  11
   3  -8 -13 839.219 252.795  10
  -3  -8  13 1272.04 253.862  10
   3  -8 -12 5631.12 519.831  10
  -3  -8  12 5422.04 495.833  10
   3  -8 -12 6091.64 492.790   9
   3  -8 -12 6686.42 590.401  13
   3  -8 -11 11349.7 732.185  10
  -3  -8  11 10507.0 682.261  10
   3  -8 -11 11114.7 687.869   9
   3  -8 -10 16950.8 901.683  10
  -3  -8  10 16881.4 881.295  10
   3  -8 -10 18174.5 907.703   9
   3   8 -10 18886.6 958.149  16
   3  -8  -9 1106.56 285.000  10
  -3  -8   9 921.064 275.390  10
   3  -8  -9 1449.09 314.669   9
   3   8  -8 6587.15 624.813  16
  -3  -8   8 6747.53 582.810  10
   3  -8  -8 6550.27 557.877  10
   3  -8  -8 7766.44 652.584  13
   3  -8  -8 6020.45 547.954   9
   3  -8  -7 424.789 206.866   9
  -3  -8   7 244.456 215.694  10
   3  -8  -7 288.004 163.586  10
   3  -8  -6 5352.67 509.816  10
  -3  -8   6 5944.37 552.568  10
   3   8  -6 5002.36 575.899  16
   3  -8  -6 5828.74 542.705   9
   3  -8  -6 7187.67 617.282  13
   3   8  -5 3198.56 339.599   7
   3  -8  -5 3310.24 412.979  10
  -3  -8   5 3003.15 421.158  10
   3  -8  -5 3798.92 485.590   9
   3   8  -5 3734.30 544.824  16
   3   8  -4 5285.31 597.749  16
   3   8  -4 5229.23 439.403   7
   3  -8  -4 4393.46 472.692  10
  -3  -8   4 4982.80 528.337  10
   3  -8  -4 6040.27 577.765   9
   3   8  -3 4196.73 369.574   7
   3  -8  -3 4201.41 446.118  10
  -3  -8   3 4733.01 519.293  10
   3   8  -3 5896.22 601.625  16
   3  -8  -3 5568.09 570.684   9
   3  -8  -3 6407.83 570.010  13
   3  -8  -2 283.513 185.359  10
  -3  -8   2 1147.87 326.201  10
   3  -8  -2 587.017 246.386   9
   3   8  -2 6044.24 801.263  16
   3  -8  -2 7264.99 685.049  13
  -3  -8   1 13271.9 824.151  10
   3   8  -1 15335.6 910.230  16
   3  -8  -1 13879.8 853.253   9
   3  -8  -1 14046.6 835.410  13
  -3  -8   0 4962.47 531.440  10
   3   8   0 6433.20 712.404  16
   3  -8   0 5697.30 574.489   9
   3   8   1 16337.1 959.551  16
   3  -8   1 11623.4 701.765  10
  -3  -8  -1 14460.4 849.715  10
   3  -8   1 14106.9 850.801   9
   3  -8   1 17685.2 907.772  13
   3  -8   2 2823.77 358.419  10
  -3  -8  -2 2257.43 360.107  10
   3  -8   3 2401.50 314.676   8
  -3  -8  -3 2339.20 359.966  10
   3   8   3 3309.53 468.396  16
   3  -8   3 2785.16 379.175   9
   3  -8   4 588.146 177.092   8
  -3  -8  -4 1142.57 289.028  10
   3   8   4 825.913 253.690  11
   3   8   4 2757.69 453.955  16
   3  -8   4 594.891 218.250   9
   3  -8   4 3405.71 454.205  13
   3  -8   5 3160.05 342.201   8
   3  -8   5 4090.08 435.485  13
   3   8   5 2904.63 402.073  11
  -3  -8  -5 4042.31 446.871  10
   3   8   5 4770.86 528.880  16
   3  -8   5 4159.86 465.284   9
   3   8   6 427.533 206.053  11
   3  -8   6 536.537 206.008   9
   3   8   6 791.217 300.488  16
   3  -8   6 479.538 167.138   8
  -3  -8  -6 671.886 212.537  10
   3  -8   7 3551.66 385.501   8
  -3  -8  -7 3842.90 409.883  10
   3   8   7 2492.26 378.706  11
   3   8   7 4445.38 486.452  16
   3  -8   7 4065.24 428.008   9
   3  -8   7 3584.96 408.486  13
   3  -8   8-168.448 121.776   8
   3  -8   8 231.476 133.533   9
   3   8   8 111.501 139.060  11
  -3  -8  -8-100.807 128.616  10
   3   8   8 291.934 260.564  16
   3   8   9 2944.84 420.192  16
   3  -8   9 3071.56 368.121   9
  -3  -8  -9 3029.07 327.908  10
   3  -8   9 3640.19 396.752   8
   3  -8   9 2935.09 355.151  13
   3  -8  10 179.723 151.493   8
   3  -8  10 51.6546 123.901  13
   3   8  10 67.3771 116.447  11
   3  -8  10-78.5435 141.936   9
  -3  -8 -10 144.788 141.003  10
   3   8  10 280.482 185.322  16
   3  -8  11 182.327 141.322  13
   3  -8  11 87.6951 124.666   9
   3   8  11 106.760 186.932  16
   3  -8  11 103.946 134.623   8
   3  -8  12 415.479 189.638   8
   3  -8  12 472.327 170.731  13
   3   8  12 334.856 194.276  16
   3  -8  13 83.3974 134.111   8
   3  -8  13 88.3266 129.133  13
   3   8  13-237.990 183.574  16
   3  -8  14 1252.62 230.572   8
   3  -8  14 1408.84 230.630  13
   3   8  14 827.271 227.892  16
   3  -8  15-43.4824 142.956   8
   3  -8  15 56.8868 117.791  13
   3   8  15-147.820 157.848  16
   3   8  16 9893.68 645.919  16
   3  -8  16 8816.11 487.859  13
   4   0 -46 1214.54 278.927  14
   4   0 -45 33.0327 184.217  14
   4   0 -44 1815.02 333.157  14
   4   0 -43-181.484 210.108  14
   4   0 -42 1273.35 363.230  14
   4   0 -41 174.697 225.646  14
   4   0 -40 5320.54 701.919  14
   4   0 -39 296.647 306.866  14
   4   0 -38 12388.4 1098.53  14
   4   0 -37 435.753 288.166  14
   4   0 -36 13854.3 1204.82  14
   4   0 -35-178.199 235.914  14
   4   0 -34 1754.75 428.262  14
   4   0 -33-80.7458 274.922  14
   4   0 -32 3927.20 613.993  14
   4   0 -32 3415.10 535.340  15
   4   0 -31 30.8120 246.156  14
   4   0 -31 206.836 192.754  15
   4   0 -30 5715.15 747.731  15
   4   0 -30 6000.42 764.300  14
   4   0 -30 5996.35 1388.49   5
   4   0 -29-145.453 210.205  14
  -4   0  29-542.676 539.121   3
   4   0 -29-38.1690 207.112  15
   4   0 -29 191.954 684.182   5
  -4   0  28 13269.0 1861.79   3
   4   0 -28 11582.5 1017.77  15
   4   0 -28 11215.5 1035.74  14
   4   0 -28 11217.1 1778.25   5
   4   0 -27-258.937 453.846   5
  -4   0  27 238.905 528.244   3
   4   0 -27 107.856 216.528  15
   4   0 -27 57.6093 195.279  14
  -4   0  26 253.677 521.745   3
   4   0 -26 56.7008 175.411  15
   4   0 -26 361.124 193.727  14
   4   0 -26 114.037 335.426   5
  -4   0  25-269.327 464.331   3
   4   0 -25 272.730 268.085  15
   4   0 -25 85.7857 170.204  14
   4   0 -25 137.681 566.435   5
   4   0 -24 14337.6 1899.39   5
  -4   0  24 16337.8 1995.36   3
   4   0 -24 14951.0 1135.20  15
   4   0 -24 14972.3 1120.72  14
  -4   0  23 673.398 547.500   3
   4   0 -23-14.9868 364.985   5
  -4   0  22 20125.3 2051.23   3
   4   0 -22 19184.5 2044.25   5
  -4   0  21 404.481 440.986   3
   4   0 -21 209.279 304.759   5
  -4   0  20 100888. 4289.83   3
   4   0 -20 91429.2 4261.88   5
  -4   0  19 181.091 314.217   3
   4   0 -19 189.662 521.694   5
  -4   0  18 88711.0 3830.62   3
   4   0 -18 80159.0 3866.66   5
  -4   0  17 80.4620 255.470   3
   4   0 -17-124.461 338.627   5
   4   0 -16 95777.0 4030.51   5
  -4   0  16 95614.0 3732.25   3
  -4   0  15-68.9774 308.160   3
   4   0 -15-4.78634 293.870   5
  -4   0  14 342.518 260.990   3
   4   0 -14 747.723 514.403   5
  -4   0  13-449.137 354.575   3
   4   0 -13 85.9032 381.507   5
  -4   0  12 20481.2 1543.28   3
  -4   0  12 19548.6 1214.48   1
   4   0 -12 18807.8 1722.94   5
  -4   0  11-139.314 267.812   3
  -4   0  11-65.0309 153.676   1
   4   0 -11-116.271 374.476   5
  -4   0  10 14438.9 1231.27   3
  -4   0  10 15025.4 965.353   1
   4   0 -10 14824.0 1419.72   5
  -4   0   9-159.288 156.845   1
  -4   0   9 42.2449 196.628   3
  -4   0   8 147727. 3580.11   3
  -4   0   8 153808. 2854.74   1
   4   0  -8 155365. 4394.12   5
  -4   0   7 0.40420 204.230   3
   4   0  -7-88.4705 288.215   6
  -4   0   7-30.6336 177.553   1
   4   0  -7 86.0068 322.790   5
  -4   0   6 65206.3 1786.90   1
  -4   0   6 63840.3 2225.18   3
   4   0  -6 59331.7 2408.83   6
   4   0  -6 62272.0 2708.22   5
  -4   0   5-15.9243 174.037   3
  -4   0   5-227.821 175.199  18
  -4   0   5-79.5838 161.855   1
   4   0  -5 200.626 249.983   6
   4   0  -5 111.875 167.141   2
   4   0  -5-136.113 242.614   5
  -4   0   4 53707.2 1621.89   1
   4   0  -4 53816.3 2481.57   5
   4   0  -4 49433.6 2210.44   6
   4   0  -4 52478.0 1928.80   2
  -4   0   4 55935.8 1904.03   3
  -4   0   4 47547.8 1831.14  18
  -4   0   3 359.186 266.259   1
  -4   0   3 277.521 263.066  18
  -4   0   3 57.8473 186.425   3
   4   0  -3 391.371 448.794   6
   4   0  -3 126.681 217.320   2
   4   0  -3 542.589 468.762   5
   4   0  -2 149344. 3677.80   6
  -4   0   2 155409. 2975.17   3
  -4   0   2 147673. 3515.64  18
   4   0  -2 155657. 4090.47   5
  -4   0   2 150855. 2814.70   1
   4   0  -1 70.7269 134.614   2
  -4   0   1 639.748 283.664   1
   4   0  -1 503.659 292.125   6
   4   0  -1 404.272 396.559   5
  -4   0   1 314.288 261.983  18
   4   0   0 2694.92 448.461   2
  -4   0   0 2242.05 492.645  18
   4   0   0 2231.42 495.527   6
   4   0   0 2706.48 596.289   5
  -4   0  -1 97.2937 229.084  18
   4   0   1 55.9693 118.960   2
   4   0   1 90.2320 215.853   6
   4   0   1 57.4226 283.545   5
   4   0   2 3049.24 440.560   2
  -4   0  -2 4061.79 688.271  18
   4   0   2 2527.34 602.655   6
   4   0   2 3317.65 639.330   5
  -4   0  -3 144.803 338.811  18
   4   0   3 89.7818 156.147   2
   4   0   3-57.8503 269.329   6
   4   0   3 47.8562 254.911   5
  -4   0  -4 67570.4 2963.49  18
   4   0   4 61490.3 2503.80   6
   4   0   4 64177.9 1994.91   2
  -4   0  -5-282.993 331.607  18
   4   0   5 6.11022 113.736   2
   4   0   5-3.32295 232.772   6
   4   0   6 1975.65 542.918   6
  -4   0  -6 2254.89 641.269  18
   4   0   6 1913.51 392.370   2
   4   0   7 268.424 294.315   6
  -4   0  -7-27.0831 337.085  18
   4   0   7 19.6457 167.873   2
   4   0   8 37635.5 2147.26   6
   4   0   8 36984.1 1755.12   2
  -4   0  -9 153.114 329.894  18
   4   0   9-150.158 192.571   2
   4   0   9 210.185 309.674   6
   4   0  10 48040.6 2116.05   2
   4   0  10 47011.9 2506.06   6
   4   0  11-121.278 219.043   2
  -4   0 -11 210.626 399.916  18
   4   0  11 87.7336 275.816   6
   4   0  12 684.664 308.412   6
   4   0  12 709.059 325.128   2
  -4   0 -12 444.379 354.181  18
   4   0  13 356.182 306.824   2
  -4   0 -13-21.5196 438.481  18
   4   0  13-77.2924 279.774   6
   4   0  14 113633. 4282.92   6
  -4   0 -14 102870. 4853.77  18
   4   0  14 106792. 3666.60   2
   4   0  15 327.068 324.552   2
  -4   0 -15-431.761 494.987  18
   4   0  15 120.120 421.260   6
   4   0  16 61627.6 3262.53   6
  -4   0 -16 56003.7 3770.54  18
   4   0  16 61044.7 2929.12   2
   4   0  17 55.0920 251.479   2
  -4   0 -17-97.3910 380.671  18
   4   0  17 19.6051 340.967   6
   4   0  18 111060. 4674.96   6
  -4   0 -18 104631. 5410.28  18
   4   0  18 104596. 4075.47   2
   4   0  19 125.479 220.876   2
   4   0  19 288.907 366.097   6
  -4   0 -19-434.601 538.208  18
   4   0  20 14588.1 952.005   7
  -4   0 -20 15871.5 2202.27  18
   4   0  20 14126.3 1779.25   6
   4   0  20 12498.8 1557.35   2
   4   0  21-230.237 365.438   2
   4   0  21 163.507 161.486   7
   4   0  21 191.562 322.190   6
  -4   0 -21-444.271 616.875  18
   4   0  22 24018.7 1185.92  12
   4   0  22 24081.7 1312.96   7
   4   0  22 25722.7 1581.98  16
   4   0  22 26869.5 2537.40   6
   4   0  22 23704.8 2215.84   2
  -4   0 -22 27293.1 3004.94  18
   4   0  23 161.869 158.059  12
   4   0  23-87.5557 297.090   2
   4   0  23 7.84635 163.291   7
  -4   0 -23 154.283 381.049  18
   4   0  23-144.784 251.704  16
   4   0  23-76.5867 351.916   6
   4   0  24 16654.6 1011.70  12
   4   0  24 17672.2 1108.18   7
  -4   0 -24 18061.4 2546.20  18
   4   0  24 19916.5 1448.67  16
   4   0  24 18478.4 2155.17   6
   4   0  25-59.8057 159.661  12
   4   0  25-230.114 231.250   7
   4   0  25-126.287 225.192  16
   4   0  25-375.423 494.034   6
  -4   0 -25 191.484 473.726  18
   4   0  26 5186.78 585.076  12
   4   0  26 6054.12 718.042   7
  -4   0 -26 6006.77 1510.88  18
   4   0  26 6869.49 893.955  16
   4   0  26 5066.42 1195.83   6
   4   0  27-86.8452 177.571  12
   4   0  27-32.8988 187.016   7
   4   0  27-332.564 304.214  16
   4   0  28 5294.98 592.715  12
   4   0  28 5053.76 654.150   7
   4   0  28 5518.69 885.590  16
   4   0  29-205.540 260.823   7
   4   0  29 119.478 328.103  16
   4   0  30 341.607 330.784  16
   4   0  30 93.9658 242.445   7
   4   0  31-4.87620 183.908   7
   4   0  31 289.172 245.426  16
   4   0  32 7706.29 751.962   7
   4   0  32 8432.08 1000.73  16
   4   0  33 55.9233 250.501  16
   4   0  33 83.4240 166.645   7
   4   0  34-92.8197 176.762   7
   4   0  34-179.048 304.045  16
   4   0  35 186.955 155.850   7
   4   0  35 136.928 317.811  16
   4   0  36 3529.79 467.254   7
   4   0  36 2485.94 508.239  16
   4   0  37-108.269 157.076   7
   4   0  37 153.983 244.379  16
   4   0  38 7169.65 612.801   7
   4   0  38 6364.98 846.724  16
   4   0  39-7.51628 155.549   7
   4   0  39-101.642 250.463  16
   4   0  40 6755.28 517.972   7
   4   0  40 6424.39 704.822  16
   4   0  41-7.78640 121.951   7
   4   0  41 35.2785 191.190  16
   4   0  42 4855.96 533.169  16
   4   1 -46-116.390 175.459  14
   4  -1 -46-301.776 180.231  14
   4  -1 -45 17970.8 956.928  14
   4   1 -45 19095.2 1035.78  14
   4   1 -44 8141.17 744.878  14
   4  -1 -44 8228.03 713.115  14
   4   1 -43 717.698 262.946  14
   4  -1 -43 1475.35 375.421  14
   4  -1 -42 1069.44 339.381  14
   4   1 -42 575.524 287.001  14
   4   1 -41 775.059 309.688  14
   4  -1 -41 919.395 353.826  14
   4   1 -40 258.500 294.350  14
   4  -1 -40 241.898 241.507  14
   4   1 -39 145.818 232.527  14
   4  -1 -39 115.235 271.081  14
   4   1 -38 16736.7 1276.09  14
   4  -1 -38 16139.8 1198.56  14
   4  -1 -37 2967.83 554.112  14
   4   1 -37 3009.15 573.955  14
   4   1 -36 13725.8 1188.99  14
   4  -1 -36 12705.2 1103.03  14
   4   1 -35 1543.82 435.265  14
   4  -1 -35 1655.71 486.870  14
   4  -1 -34 4043.00 614.985  15
   4   1 -34 3754.17 625.024  14
   4  -1 -34 3674.56 628.022  14
   4  -1 -33 15941.5 1199.51  15
   4   1 -33 17029.6 1336.81  14
   4  -1 -33 16706.8 1281.18  14
   4   1 -32 33729.2 1863.19  14
   4  -1 -32 31469.8 1761.45  14
   4  -1 -32 30271.0 1653.06  15
   4  -1 -31 1247.62 389.723  15
   4   1 -31 1330.47 467.407  14
   4  -1 -31 1663.94 451.287  14
   4   1 -30 2.15749 210.237  15
   4  -1 -30 49.4882 239.748  15
   4   1 -30-35.1943 249.111  14
   4  -1 -30 485.023 299.755  14
   4  -1 -30 643.471 576.348  13
   4   1 -29 7736.77 890.479  14
   4  -1 -29 7090.40 830.651  15
  -4  -1  29 8304.44 1574.16   3
   4   1 -29 6651.18 764.558  15
  -4   1  29 8500.40 1495.92   3
   4  -1 -29 8504.86 1670.25   5
   4  -1 -29 7516.08 882.173  14
   4   1 -29 8160.41 1344.19   5
   4  -1 -29 5074.95 1059.37  13
  -4  -1  28 11148.7 1777.03   3
  -4   1  28 9523.71 1609.13   3
   4  -1 -28 10067.5 1018.65  15
   4   1 -28 10492.3 1030.48  14
   4  -1 -28 10611.2 1015.07  14
   4   1 -28 9121.28 1520.66   5
   4  -1 -28 11057.6 1763.90   5
   4   1 -28 10292.8 938.577  15
   4  -1 -28 6284.45 1148.16  13
   4   1 -27 17436.0 1284.62  14
  -4  -1  27 16323.0 2132.29   3
  -4   1  27 15818.0 2057.79   3
   4  -1 -27 18047.9 1315.99  15
   4  -1 -27 17373.3 1264.04  14
   4   1 -27 16743.8 1222.20  15
   4   1 -27 16871.1 2032.59   5
   4  -1 -27 17772.9 2209.59   5
   4  -1 -26 1267.78 418.406  15
  -4  -1  26 1705.91 800.071   3
  -4   1  26 1690.68 658.186   3
   4   1 -26 1186.04 300.316  15
   4   1 -26 1457.66 403.807  14
   4  -1 -26 1471.61 382.622  14
   4   1 -26 1422.75 651.981   5
   4  -1 -26 1342.48 615.075   5
  -4   1  25 10822.3 1642.40   3
  -4  -1  25 11694.5 1713.23   3
   4  -1 -25 10358.8 985.869  15
   4   1 -25 10505.2 960.036  15
   4   1 -25 10248.5 973.310  14
   4   1 -25 10276.7 1547.72   5
   4  -1 -25 10489.9 974.707  14
   4  -1 -25 11245.7 1697.48   5
  -4  -1  24 37527.0 2980.52   3
  -4   1  24 35785.7 2821.45   3
   4  -1 -24 38174.3 1853.47  15
   4   1 -24 33456.3 2746.33   5
   4   1 -24 37660.8 1768.56  14
   4  -1 -24 37360.7 1767.05  14
   4  -1 -24 36973.5 3045.65   5
   4   1 -24 38457.3 1822.73  15
  -4  -1  23 1078.08 509.436   1
   4  -1 -23 979.087 317.783  15
  -4  -1  23 843.736 589.435   3
  -4   1  23 298.735 447.214   3
   4   1 -23 703.325 237.680  15
   4   1 -23 495.091 224.143  14
   4  -1 -23 931.433 298.853  14
   4   1 -23 167.758 317.791   5
   4  -1 -23 51.0655 309.457   5
  -4  -1  22 5170.13 1041.64   3
  -4   1  22 4852.92 1108.19   3
  -4  -1  22 4398.63 950.797   1
   4   1 -22 5089.03 1098.82   5
   4  -1 -22 4370.92 1037.39   5
  -4   1  21 14854.2 1712.12   3
  -4  -1  21 15126.2 1748.63   3
   4   1 -21 14624.0 1708.70   5
  -4  -1  21 12833.8 1506.78   1
   4  -1 -21 14189.0 1845.77   5
  -4  -1  20-199.231 331.921   1
  -4  -1  20-600.673 426.246   3
  -4   1  20-619.504 486.882   3
   4   1 -20-152.824 456.725   5
   4  -1 -20-193.610 370.742   5
  -4   1  19 1866.99 604.989   3
  -4  -1  19 1620.16 562.373   1
  -4  -1  19 1008.89 367.383   3
   4   1 -19 1732.58 637.338   5
   4  -1 -19 1641.18 658.598   5
  -4   1  18 7961.00 1124.74   3
  -4  -1  18 8108.86 1248.45   3
   4  -1 -18 7497.99 1258.01   5
  -4  -1  18 7482.95 1080.18   1
   4   1 -18 8162.72 1267.78   5
  -4  -1  17 4575.58 846.817   1
  -4  -1  17 5131.44 912.363   3
  -4   1  17 5222.94 928.792   3
   4   1 -17 4307.15 895.833   5
   4  -1 -17 3827.44 907.282   5
  -4  -1  16 39986.8 2527.80   3
  -4   1  16 38597.3 2349.04   3
  -4  -1  16 36404.4 2219.62   1
   4   1 -16 39373.4 2555.81   5
   4  -1 -16 39315.0 2673.52   5
  -4  -1  15 1346.89 491.664   1
  -4  -1  15 1629.08 543.440   3
  -4   1  15 1669.12 515.784   3
   4   1 -15 1310.15 477.312   5
   4  -1 -15 820.448 449.940   5
  -4  -1  14 509.559 369.913   1
  -4  -1  14-42.8120 294.075   3
  -4   1  14 480.051 298.296   3
   4   1 -14 1075.87 590.458   5
   4  -1 -14-135.906 311.331   5
  -4  -1  13 7023.18 998.919   3
  -4   1  13 5990.94 869.986   3
  -4  -1  13 6328.64 887.558   1
   4   1 -13 7332.05 1080.80   5
   4  -1 -13 7162.33 1083.60   5
  -4  -1  12 13393.0 1305.65   3
  -4   1  12 13266.4 1207.10   3
  -4  -1  12 11895.8 1140.06   1
   4   1 -12 13615.0 1455.18   5
   4  -1 -12 13402.8 1479.65   5
  -4  -1  11 320.993 211.861   1
  -4  -1  11 594.517 442.435   3
  -4   1  11 337.535 203.275   3
   4   1 -11 215.310 282.363   5
   4  -1 -11 476.192 395.234   5
  -4  -1  10 34325.1 2002.94   3
  -4  -1  10 31709.9 1745.10   1
  -4   1  10 31742.1 1691.63   3
   4   1 -10 29300.6 2044.06   5
   4  -1 -10 32532.5 2149.73   5
  -4  -1   9 1505.91 454.329   3
  -4   1   9 1409.96 373.087   3
   4   1  -9 1899.25 607.388   2
  -4  -1   9 835.141 303.236   1
   4   1  -9 1607.34 518.762   5
   4  -1  -9 1225.59 512.553   5
  -4  -1   8 23752.8 1457.01   1
  -4  -1   8 25824.7 1663.42   3
   4   1  -8 22135.0 1701.18   2
   4   1  -8 23445.7 1787.10   5
  -4   1   8 22880.0 1302.13   3
   4  -1  -8 24025.5 1722.33   6
   4  -1  -8 25666.4 1834.74   5
   4  -1  -7 1345.93 435.710   6
  -4  -1   7 1119.02 319.406   1
   4   1  -7 1205.03 447.433   2
   4   1  -7 1148.80 396.522   5
  -4   1   7 895.742 278.660   3
   4  -1  -7 711.920 310.964   5
  -4  -1   6 5007.80 681.475   1
  -4   1   6 5960.56 606.153   3
   4  -1  -6 5883.40 838.474   6
   4   1  -6 4606.51 798.155   2
   4  -1  -6 6027.51 918.526   5
   4   1  -6 4914.75 838.903   5
  -4  -1   5 47069.9 1959.39   1
   4   1  -5 40868.4 2226.86   2
   4  -1  -5 47474.3 2337.91   6
   4   1  -5 47893.5 2475.57   5
   4  -1  -5 49269.5 2389.96   5
   4   1  -4 303765. 4898.85   6
   4  -1  -4 312126. 5774.59   6
   4   1  -4 320915. 6172.62   5
   4  -1  -4 322223. 5871.24   5
  -4  -1   4 304662. 5056.37   1
  -4  -1   3 6517.91 796.434   1
   4   1  -3 5922.53 878.028   2
   4  -1  -3 6828.43 1166.44   6
   4  -1  -3 6806.22 954.811   5
   4   1  -3 7328.69 810.728   6
   4   1  -3 6893.08 1115.40   5
   4   1  -2 191507. 4404.81   2
   4   1  -2 188412. 3769.81   6
   4  -1  -2 198077. 4590.35   6
   4  -1  -2 187482. 4396.64   5
  -4  -1   2 191632. 4041.80   1
   4   1  -1 17707.7 1364.25   2
  -4  -1   1 16361.7 1024.71  18
   4   1  -1 16649.8 1175.88   6
   4  -1  -1 18038.7 1547.27   6
   4  -1  -1 16663.3 1353.19   5
   4   1  -1 18202.9 1570.78   5
  -4  -1   1 17028.5 1222.78   1
   4   1   0 276097. 5103.26   2
  -4  -1   0 255640. 4319.85  18
   4   1   0 266024. 4492.34   6
   4  -1   0 275264. 5407.51   6
   4   1   0 286040. 5774.47   5
   4  -1   0 271559. 5094.75   5
  -4  -1   0 252808. 4717.43   1
   4   1   1 14503.8 1216.01   2
  -4  -1  -1 15249.1 1161.08  18
   4   1   1 13348.4 1092.01   6
   4  -1   1 15250.1 1330.26   6
   4   1   1 15987.7 1464.18   5
   4  -1   1 14898.9 1225.50   5
   4   1   2 157601. 3830.83   2
   4   1   2 147879. 3429.53   6
   4  -1   2 157192. 4151.69   6
   4  -1   2 153902. 3797.66   5
  -4  -1  -3-218.523 216.373  18
   4   1   3 38.1841 194.856   2
   4  -1   3-150.609 266.401   6
   4   1   3 197.845 230.424   6
   4  -1   3-35.0027 191.040   5
  -4  -1  -4 96.3500 207.190  18
   4   1   4 791.975 313.363   2
   4   1   4 530.791 258.906   6
   4  -1   4 692.061 542.091   6
   4  -1   4 1165.87 391.643   5
  -4   1  -5 117313. 4259.28  18
   4   1   5 115697. 3212.59   6
   4  -1   5 127251. 3904.50   6
   4   1   5 124294. 3541.64   2
  -4   1  -6-283.151 461.927  18
  -4  -1  -6-99.5343 325.386  18
   4   1   6 123.175 186.586   2
   4  -1   6 128.003 321.216   6
   4   1   6 54.9636 217.649   6
  -4   1  -7 23514.3 2046.83  18
  -4  -1  -7 21671.4 1775.33  18
  -4   1  -7 23598.6 1446.11  17
   4   1   7 25015.2 1604.28   6
   4  -1   7 27024.4 1900.93   6
   4   1   7 26117.9 1712.30   2
  -4   1  -8 3190.44 759.508  18
  -4  -1  -8 2969.64 705.329  18
   4   1   8 3177.78 605.719   2
  -4   1  -8 3096.76 545.201  17
   4  -1   8 4065.48 823.467   6
   4   1   8 3323.24 630.121   6
  -4   1  -9 3856.63 908.999  18
   4  -1   9 3037.97 644.619   6
   4   1   9 3434.67 664.491   2
  -4  -1  -9 3352.99 729.553  18
   4   1   9 3282.99 625.809   6
   4   1  10 2583.14 555.387   6
  -4   1 -10 2219.15 748.073  18
  -4  -1 -10 1562.91 560.150  18
   4   1  10 2968.84 650.334   2
   4  -1  10 2649.58 641.740   6
  -4   1 -11 100.183 317.358  18
   4   1  11 37.5976 258.447   2
  -4  -1 -11-421.883 485.663  18
   4  -1  11-17.4382 253.416   6
   4   1  11-121.226 262.854   6
   4  -1  12 1855.52 633.856   6
   4   1  12 2033.76 589.973   2
  -4   1 -12 1239.79 591.757  18
  -4  -1 -12 1387.41 572.935  18
   4   1  12 1550.89 534.604   6
   4  -1  13 2915.77 761.767   6
   4   1  13 2460.04 592.244   2
  -4  -1 -13 2360.26 693.720  18
   4   1  13 3058.30 673.759   6
  -4   1 -13 2911.18 918.861  18
  -4   1 -14 8965.51 1483.12  18
   4  -1  14 8723.33 1288.77   6
   4   1  14 8798.79 1172.71   6
  -4  -1 -14 7957.15 1345.41  18
   4   1  14 9530.01 1234.92   2
   4   1  15 140.515 234.189   2
  -4  -1 -15 248.567 344.001  18
   4  -1  15 146.975 357.761   6
   4   1  15-33.9253 279.817   6
  -4   1 -15-346.057 543.778  18
  -4   1 -16 60522.1 4051.19  18
  -4  -1 -16 61403.7 3845.93  18
   4  -1  16 70988.9 3719.70   6
   4   1  16 65818.7 3266.29   6
   4   1  16 68789.1 3416.37   2
   4   1  17 906.950 434.652   2
  -4   1 -17 904.939 787.118  18
  -4  -1 -17 1606.27 765.772  18
   4  -1  17 669.303 353.299   6
   4   1  17 1145.15 473.113   6
   4   1  18 178.472 393.019   2
  -4   1 -18 82.9527 420.689  18
  -4  -1 -18 409.862 434.050  18
   4  -1  18 366.404 456.058   6
   4   1  18 422.480 343.567   6
   4  -1  19 13059.7 912.195   7
   4   1  19 11913.3 854.504   7
  -4   1 -19 11408.5 1840.61  18
  -4  -1 -19 12686.8 1899.38  18
   4  -1  19 14033.1 1821.82   6
   4   1  19 13933.3 1668.59   6
   4   1  19 13583.1 1643.96   2
   4  -1  20 1805.90 318.292  12
   4  -1  20 1363.13 330.415   7
   4   1  20 1429.17 559.528   2
   4   1  20 1601.98 360.437   7
  -4   1 -20 2616.80 946.059  18
  -4  -1 -20 1888.65 850.268  18
   4  -1  20 2048.51 783.710   6
   4   1  20 1410.44 661.759   6
   4  -1  21 2025.47 401.867  12
   4  -1  21 2416.10 441.173   7
   4   1  21 2152.75 758.209   2
  -4  -1 -21 1730.45 780.453  18
   4   1  21 1589.19 342.428  16
   4  -1  21 2449.86 747.772   6
   4   1  21 2907.13 803.731   6
  -4   1 -21 1915.65 908.772  18
   4   1  21 2353.12 427.596   7
   4  -1  22 216.326 168.435  12
   4   1  22 88.0432 212.492   7
   4  -1  22 390.450 228.003   7
   4   1  22 784.410 440.747   2
  -4   1 -22 562.011 452.791  18
  -4  -1 -22-190.435 410.529  18
   4  -1  22-122.034 399.593   6
   4   1  22-228.679 461.544   6
   4   1  22 83.0491 242.275  16
   4  -1  23 1564.33 367.665  12
   4   1  23 1583.06 706.756   2
   4  -1  23 2020.00 416.760   7
   4   1  23 1853.15 377.621   7
  -4   1 -23 1884.11 880.942  18
  -4  -1 -23 922.418 530.469  18
   4  -1  23 1783.54 471.060  16
   4   1  23 1784.51 511.334  16
   4   1  23 1966.74 730.886   6
   4  -1  23 1495.11 799.849   6
   4  -1  24 2398.44 438.797  12
   4   1  24 2516.33 438.592   7
   4  -1  24 3084.68 509.226   7
   4   1  24 1996.98 758.162   2
  -4   1 -24 2721.87 1101.64  18
  -4  -1 -24 2309.08 910.894  18
   4  -1  24 2543.30 555.166  16
   4   1  24 2512.96 579.127  16
   4  -1  24 2198.86 857.383   6
   4   1  24 3024.24 879.888   6
   4  -1  25 28963.6 1428.05  12
   4  -1  25 32111.8 1540.50   7
   4   1  25 29778.3 1441.23   7
  -4   1 -25 30713.0 3432.36  18
  -4  -1 -25 29920.2 3249.10  18
   4  -1  25 31092.7 1929.84  16
   4   1  25 30264.9 1785.34  16
   4  -1  25 29471.4 2964.64   6
   4   1  25 27976.9 2617.12   6
   4   1  25 26542.4 2616.37   2
   4  -1  26 16254.4 1078.53  12
   4  -1  26 17907.3 1159.55   7
   4   1  26 15708.1 1081.77   7
  -4   1 -26 17443.7 2634.68  18
  -4  -1 -26 16787.1 2548.04  18
   4  -1  26 17635.1 1451.73  16
   4   1  26 16983.5 1374.16  16
   4  -1  26 17865.3 2385.15   6
   4   1  26 14104.8 1941.91   6
   4   1  26 14719.1 1975.87   2
   4  -1  27 7337.22 742.630  12
   4  -1  27 7064.20 745.968   7
   4   1  27 6605.67 704.085   7
   4   1  27 6265.29 874.825  16
   4  -1  27 7328.09 940.446  16
   4  -1  28 1632.33 381.703  12
   4  -1  28 1234.81 373.109   7
   4   1  28 1033.06 284.334   7
   4  -1  28 1816.74 547.728  16
   4   1  28 2271.76 572.146  16
   4  -1  29 18434.9 1147.61  12
   4  -1  29 19967.2 1242.57   7
   4   1  29 19470.3 1177.62   7
   4  -1  29 20754.3 1592.40  16
   4   1  29 19342.9 1500.65  16
   4  -1  30 40165.5 1667.45  12
   4  -1  30 38656.9 1751.34   7
   4   1  30 37314.8 1653.12   7
   4  -1  30 39375.1 2211.15  16
   4   1  30 40595.8 2220.73  16
   4  -1  31 3369.75 489.865  12
   4  -1  31 3657.52 570.996   7
   4   1  31 2967.34 503.063   7
   4  -1  31 2462.07 538.642  16
   4   1  31 3152.51 648.632  16
   4  -1  32 17309.4 1067.15  12
   4  -1  32 17784.3 1143.71   7
   4   1  32 16966.5 1067.73   7
   4  -1  32 18176.4 1479.47  16
   4   1  32 15292.8 1446.12  16
   4  -1  33 5470.57 597.429  12
   4  -1  33 5673.63 664.326   7
   4   1  33 5525.58 598.023   7
   4   1  33 5325.30 867.536  16
   4  -1  33 5535.16 816.925  16
   4  -1  34 6229.02 618.164  12
   4  -1  34 6938.02 719.392   7
   4   1  34 6067.84 626.632   7
   4  -1  34 6396.42 872.094  16
   4   1  34 5789.16 884.872  16
   4  -1  35 4732.44 532.605  12
   4  -1  35 4912.43 577.242   7
   4   1  35 4531.28 540.347   7
   4  -1  35 4266.57 673.597  16
   4   1  35 5179.18 775.026  16
   4  -1  36 8.00203 162.745  12
   4  -1  36 108.256 228.038   7
   4   1  36 255.980 192.175   7
   4  -1  36-395.205 326.012  16
   4   1  36 377.681 348.320  16
   4  -1  37 1268.67 249.292  12
   4  -1  37 870.474 277.574   7
   4   1  37 1005.11 249.379   7
   4  -1  37 863.504 307.481  16
   4   1  37 1349.12 423.238  16
   4  -1  38 3111.95 363.761  12
   4   1  38 3442.11 403.307   7
   4  -1  38 3466.43 577.336  16
   4  -1  38 3207.63 409.697   7
   4   1  38 2751.99 531.923  16
   4  -1  39 6883.40 572.996   7
   4  -1  39 6411.33 478.292  12
   4   1  39 6449.43 485.743   7
   4  -1  39 5919.78 681.020  16
   4   1  39 4733.82 713.863  16
   4  -1  40 3950.67 415.220   7
   4  -1  40 3205.74 489.883  16
   4   1  40 3368.35 525.978  16
   4  -1  41 11530.2 822.659  16
   4   1  41 12295.3 902.534  16
   4   1  42 199.214 186.173  16
   4   2 -45 4289.78 529.146  14
   4  -2 -45 4040.26 418.663  14
   4  -2 -44 62.1170 196.808  14
   4   2 -44 295.297 249.331  14
   4   2 -43 6179.28 638.510  14
   4  -2 -43 5944.64 574.018  14
   4   2 -42-153.731 257.041  14
   4  -2 -42 1502.16 466.054  14
   4  -2 -41 3015.92 490.849  14
   4   2 -41 3360.18 586.542  14
   4  -2 -40 2270.35 456.738  14
   4   2 -40 2880.92 545.350  14
   4   2 -39 24.6490 285.526  14
   4  -2 -39 183.059 245.823  14
   4   2 -38 9034.64 962.537  14
   4  -2 -38 8072.62 839.102  14
   4   2 -37 695.044 315.147  14
   4  -2 -37 320.556 243.403  14
   4  -2 -36 1520.44 445.407  14
   4   2 -36 1234.93 477.792  14
   4  -2 -35 1217.56 338.864  15
   4   2 -35 1321.09 479.185  14
   4  -2 -35 913.319 357.116  14
   4  -2 -34 1953.29 466.404  15
   4   2 -34 2124.45 524.020  14
   4  -2 -34 1312.29 384.265  14
   4   2 -33 8564.99 989.073  14
   4  -2 -33 7338.21 850.995  15
   4  -2 -33 7816.73 885.622  14
   4  -2 -33 5623.26 1080.38  13
   4   2 -32 8637.47 1011.99  14
   4  -2 -32 7706.67 871.329  14
   4  -2 -32 7660.10 867.344  15
   4  -2 -32 5200.45 1091.73  13
   4  -2 -31 29176.2 1685.96  15
   4   2 -31 30634.7 1820.96  14
   4  -2 -31 28385.8 1676.07  14
   4   2 -30 16180.2 1327.39  14
   4  -2 -30 14808.3 1215.83  14
   4  -2 -30 14780.7 1225.12  15
   4  -2 -29 1129.95 367.337  15
   4   2 -29 1151.20 406.915  14
   4  -2 -29 810.343 347.039  14
   4  -2 -29 273.357 436.865  13
   4  -2 -28 1115.96 611.457  13
  -4   2  28 404.767 386.834   3
   4   2 -28 1085.28 349.674  15
   4  -2 -28 713.123 358.909  15
   4   2 -28 1050.90 408.197  14
   4  -2 -28 526.386 331.893  14
   4  -2 -27 40754.7 2025.56  15
  -4  -2  27 42550.9 3466.44   3
  -4   2  27 36382.9 3088.40   3
   4   2 -27 40684.3 1881.38  15
   4   2 -27 41807.2 2088.30  14
   4  -2 -27 37714.4 1902.04  14
   4  -2 -27 46299.7 3608.09   5
  -4  -2  27 37795.2 3050.57   1
   4  -2 -26 97.4602 289.324  13
  -4  -2  26 274.248 419.864   1
  -4  -2  26-712.973 403.794   3
   4   2 -26 51.9882 197.648  15
  -4   2  26-562.505 531.334   3
   4  -2 -26 311.624 193.468  15
   4   2 -26 521.110 281.252  14
   4  -2 -26-100.758 216.903  14
   4  -2 -26 535.267 702.223   5
   4  -2 -25 5116.36 783.652  13
   4   2 -25 8036.73 830.828  15
   4  -2 -25 7550.31 904.803  15
  -4   2  25 7457.81 1394.29   3
  -4  -2  25 7588.07 1398.99   3
   4   2 -25 8056.01 903.377  14
   4  -2 -25 6562.41 791.453  14
   4  -2 -25 8044.00 1576.00   5
  -4  -2  25 6807.82 1347.52   1
   4   2 -24 13567.5 1157.58  14
  -4  -2  24 14111.9 1872.34   3
  -4   2  24 11715.3 1639.33   3
   4   2 -24 13694.4 1091.75  15
   4  -2 -24 10505.1 998.168  14
  -4  -2  24 11375.4 1680.69   1
   4  -2 -24 14087.1 1936.78   5
   4  -2 -24 10669.5 1145.95  13
   4  -2 -24 13342.4 1186.78  15
   4  -2 -23 3781.06 639.919  13
   4   2 -23 4144.39 579.944  15
  -4  -2  23 5010.35 1085.17   1
   4  -2 -23 4353.51 693.332  15
  -4  -2  23 4161.94 1077.64   3
  -4   2  23 4059.59 937.227   3
   4   2 -23 4086.67 638.924  14
   4  -2 -23 2567.02 495.430  14
   4   2 -23 4216.61 935.971   5
   4  -2 -23 3734.13 970.061   5
   4  -2 -22 3672.72 619.461  13
  -4  -2  22 5517.23 1161.46   3
   4   2 -22 4541.65 637.299  15
   4  -2 -22 5426.52 733.201  15
  -4   2  22 5246.36 1089.89   3
  -4  -2  22 6577.92 1234.20   1
   4   2 -22 4777.65 689.228  14
   4   2 -22 6197.53 1118.54   5
   4  -2 -22 5222.63 1200.37   5
  -4  -2  21 171.906 298.690   1
   4   2 -21 85.8288 164.972  15
   4  -2 -21 49.5875 216.337  10
  -4  -2  21-62.1161 305.300   3
  -4   2  21 532.943 505.723   3
   4   2 -21 622.305 315.856  14
   4   2 -21 147.660 411.265   5
   4  -2 -21-49.5023 328.687   5
   4  -2 -21 629.321 306.032  15
   4  -2 -20 3210.73 506.868  10
  -4  -2  20 2667.93 766.523   3
  -4   2  20 2351.22 660.794   3
   4  -2 -20 3383.93 598.516  15
  -4  -2  20 2168.02 712.906   1
   4   2 -20 2478.79 741.417   5
   4  -2 -20 2442.08 780.553   5
  -4  -2  19 15700.5 1783.18   3
  -4   2  19 12078.4 1475.56   3
  -4  -2  19 13929.2 1622.94   1
   4   2 -19 14118.4 1583.24   5
   4  -2 -19 13309.8 1712.36   5
  -4  -2  18 19565.5 1988.17   3
  -4   2  18 17757.6 1705.18   3
  -4  -2  18 18832.9 1806.95   1
   4   2 -18 18480.3 1799.74   5
   4  -2 -18 17647.8 1949.14   5
  -4  -2  17 359.695 388.995   1
  -4  -2  17 82.4466 273.128   3
  -4   2  17-196.755 286.521   3
   4   2 -17 8.44929 301.713   5
   4  -2 -17 140.809 328.900   5
  -4  -2  16 197.745 266.230   1
  -4  -2  16 175.590 314.594   3
  -4   2  16 238.145 280.872   3
   4   2 -16 587.744 382.545   5
   4  -2 -16 701.413 476.644   5
  -4  -2  15 5450.30 939.467   1
  -4  -2  15 5412.74 993.807   3
  -4   2  15 4121.28 771.719   3
   4   2 -15 5258.78 960.782   5
   4  -2 -15 4336.53 937.861   5
  -4  -2  14 68555.6 3335.22   3
  -4  -2  14 68564.3 3100.72   1
  -4   2  14 63945.9 2813.54   3
   4   2 -14 67136.6 3232.69   5
   4  -2 -14 68788.1 3446.55   5
  -4  -2  13 394.174 351.400   1
  -4  -2  13 371.715 512.112   3
  -4   2  13 76.1501 288.474   3
   4   2 -13 589.345 437.447   5
   4  -2 -13-40.9074 414.073   5
  -4  -2  12 81767.6 3466.11   3
   4   2 -12 90254.5 3963.47   2
  -4  -2  12 79548.3 3306.42   1
   4   2 -12 80266.4 3432.28   5
   4  -2 -12 80392.3 3549.50   5
   4   2 -11 72519.9 3534.00   2
  -4  -2  11 68887.1 2973.63   1
   4   2 -11 68169.9 3188.44   5
   4  -2 -11 69757.9 3246.59   5
  -4  -2  10 239.562 235.112   1
   4   2 -10 344.730 380.677   2
   4   2 -10 555.892 439.743   5
   4  -2 -10 91.7639 248.058   5
  -4  -2   9 2013.96 573.992   1
   4   2  -9 2551.84 681.797   2
   4   2  -9 2048.93 600.558   5
   4  -2  -9 1928.64 602.621   5
   4   2  -8 14262.5 1401.97   5
  -4  -2   8 14090.0 1334.37   1
   4   2  -8 13015.3 1548.24   2
   4  -2  -8 14233.4 1411.64   6
   4  -2  -8 13955.3 1359.38   5
  -4  -2   7 17605.2 1450.92   1
   4   2  -7 14736.4 1579.55   2
   4  -2  -7 16587.0 1524.02   6
   4   2  -7 17255.3 1532.92   5
   4  -2  -7 16995.9 1447.35   5
  -4  -2   6 22112.1 1624.32   1
   4   2  -6 19545.0 1824.66   2
   4  -2  -6 21401.3 1694.93   6
   4   2  -6 22226.8 1742.45   5
   4  -2  -6 21633.6 1631.45   5
  -4  -2   5 24287.7 1655.30   1
   4   2  -5 22010.5 1927.43   2
   4  -2  -5 22411.5 1753.95   6
   4   2  -5 22673.5 1793.75   5
   4  -2  -5 22799.6 1642.12   5
  -4  -2   4 61186.2 2675.42   1
   4   2  -4 58809.1 2966.48   2
   4  -2  -4 59370.9 2751.44   6
   4   2  -4 62560.8 2880.90   5
   4  -2  -4 57241.2 2486.09   5
   4   2  -3 6700.34 1017.06   2
   4  -2  -3 6734.08 1027.73   6
   4   2  -3 6802.58 1049.23   5
   4  -2  -3 5908.46 823.001   5
  -4  -2   3 6918.26 923.003   1
   4   2  -2 7774.96 1056.39   2
   4  -2  -2 7823.00 1086.80   6
   4   2  -2 9071.88 1167.98   5
   4  -2  -2 7515.60 893.978   5
  -4  -2   2 8637.26 1012.20   1
   4   2  -1 58486.0 2874.65   2
   4  -2  -1 57489.1 2684.75   6
   4  -2  -1 53019.0 2254.38   5
  -4  -2   1 57770.5 2634.69   1
   4   2   0 14064.8 1392.87   2
   4  -2   0 15027.9 1396.36   6
  -4  -2   0 13837.2 1314.93   1
   4  -2   0 13057.8 1097.38   5
   4   2   1 6071.46 959.079   2
   4  -2   1 5032.84 959.551   6
   4  -2   1 4787.79 645.335   5
  -4  -2  -1 5858.01 895.761   1
   4   2   2 38509.1 2256.48   2
  -4  -2  -2 32168.4 1690.89  18
   4  -2   2 36309.2 2257.11   6
   4  -2   2 33621.1 1717.57   5
  -4  -2  -2 36425.7 2189.93   1
   4   2   3 107944. 3737.67   2
   4  -2   3 104994. 3740.88   6
   4  -2   3 99170.3 2933.54   5
   4   2   4 26063.7 1885.54   2
  -4  -2  -4 24092.2 1641.87  18
   4  -2   4 25516.3 1954.70   6
  -4  -2  -5 34285.8 2015.20  18
   4  -2   5 40306.0 2368.39   6
   4   2   5 40603.0 2294.57   2
   4   2   6 947.063 493.591   2
  -4  -2  -6 771.004 359.771  18
   4  -2   6 1297.99 592.945   6
  -4  -2  -7 36692.2 2297.51  18
   4  -2   7 37709.1 2371.50   6
   4   2   7 37916.4 2365.88   2
  -4  -2  -8 5281.75 906.925  18
  -4   2  -8 5284.19 916.681  17
   4  -2   8 7924.18 1137.54   6
   4   2   8 6809.02 1075.74   2
  -4   2  -9 9637.37 1456.37  18
   4  -2   9 7470.71 1116.41   6
  -4   2  -9 8916.19 1150.07  17
  -4  -2  -9 7924.19 1139.38  18
   4   2   9 7090.27 1080.52   2
  -4   2 -10 1568.41 654.325  18
  -4  -2 -10 1790.24 592.380  18
  -4   2 -10 1733.65 558.074  17
   4   2  10 1868.03 638.417   2
   4  -2  10 2127.95 659.084   6
  -4   2 -11 1303.83 640.216  18
  -4  -2 -11 378.252 328.310  18
   4   2  11 831.289 469.918   2
  -4   2 -11 445.511 303.685  17
   4  -2  11 1081.36 546.376   6
  -4   2 -12 441.625 375.664  18
  -4  -2 -12 536.349 401.442  18
   4   2  12 1795.44 629.948   2
  -4   2 -12 517.607 413.269  17
   4  -2  12 1728.42 609.102   6
  -4   2 -13 133298. 5880.36  18
   4  -2  13 140896. 5084.20   6
   4   2  13 144193. 5095.31   2
   4  -2  14 509.640 559.741   6
  -4  -2 -14 700.825 566.357  18
  -4   2 -14 596.868 595.627  18
   4   2  14-168.995 309.886   2
   4  -2  15-513.622 377.809   6
  -4   2 -15 740.819 549.637  18
  -4  -2 -15-307.098 480.038  18
   4   2  15-159.244 379.033   2
  -4   2 -16 4178.53 1147.16  18
   4   2  16 5790.50 1167.82   2
  -4  -2 -16 4174.20 1116.81  18
   4  -2  16 4413.99 1012.00   6
   4  -2  17 1172.28 326.562  12
   4  -2  17 329.229 188.022   7
   4  -2  17 3.81694 461.708   6
  -4   2 -17 980.895 582.254  18
   4   2  17 448.673 206.430   7
   4   2  17 659.858 512.410   2
  -4  -2 -17 648.505 443.270  18
   4  -2  18 644.724 230.003   8
   4  -2  18 1088.87 300.828  12
   4  -2  18 787.028 261.830   7
   4  -2  18 531.031 491.323   6
   4   2  18 740.639 239.098   7
   4   2  18 426.440 357.563   2
  -4  -2 -18 731.355 661.410  18
   4   2  18 866.142 323.540  16
  -4   2 -18 1540.47 751.942  18
   4  -2  19 2551.58 449.656   8
   4  -2  19 2660.60 427.939  12
  -4   2 -19 2575.21 1008.00  18
   4  -2  19 2382.41 410.906   7
   4   2  19 2081.65 396.234   7
   4   2  19 2505.54 820.049   2
  -4  -2 -19 1979.44 771.678  18
   4   2  19 2119.71 402.183  16
   4  -2  19 3133.36 901.026   6
   4  -2  20 690.755 266.304   8
   4  -2  20 563.280 271.582  12
   4  -2  20 763.877 243.864   7
   4   2  20 458.606 234.880   7
   4   2  20-43.1432 299.839   2
  -4   2 -20 1210.70 816.409  18
  -4  -2 -20 273.102 353.596  18
   4   2  20 672.318 293.319  16
   4  -2  20 404.045 510.812   6
   4  -2  21 1362.10 311.895   8
   4  -2  21 1168.82 327.753  12
   4  -2  21 728.812 243.953   7
   4   2  21 1086.28 297.105   7
   4   2  21 613.532 485.239   2
  -4   2 -21 1808.16 868.400  18
   4   2  21 1266.94 341.808  16
   4  -2  21 1352.73 740.924   6
  -4  -2 -21 676.787 476.408  18
   4  -2  22 6257.87 695.203  12
   4  -2  22 6643.44 699.856   7
   4   2  22 6630.36 693.001   7
  -4   2 -22 6153.29 1525.47  18
  -4  -2 -22 6265.01 1482.61  18
   4   2  22 7216.59 845.358  16
   4  -2  22 7209.17 1432.47   6
   4   2  22 7325.97 1430.55   2
   4  -2  23 260.175 212.540  12
   4  -2  23 222.322 215.552   7
   4   2  23 564.523 254.346   7
   4   2  23 42.7053 361.056   2
  -4   2 -23 8.53949 576.714  18
  -4  -2 -23-304.027 518.639  18
   4   2  23 441.783 314.313  16
   4  -2  23 394.702 449.869   6
   4  -2  24 1580.48 376.152  12
   4  -2  24 1395.13 343.181   7
   4   2  24 1596.05 358.741   7
   4   2  24 1232.42 637.835   2
  -4  -2 -24 1560.74 689.201  18
   4   2  24 1639.79 448.271  16
  -4   2 -24 1181.79 792.765  18
   4  -2  24 1657.49 757.932   6
   4  -2  25 19847.1 1260.25  12
   4  -2  25 21907.2 1324.49   7
   4   2  25 18157.3 1142.15   7
   4   2  25 22985.4 1550.14  16
   4  -2  26 2629.91 472.384  12
   4  -2  26 2275.50 420.976   7
   4   2  26 2308.39 444.793   7
   4  -2  26 1966.18 516.189  16
   4   2  26 2167.66 533.710  16
   4  -2  27 692.051 253.494  12
   4   2  27 1157.39 508.192  16
   4  -2  27 360.310 254.596   7
   4   2  27 467.097 244.067   7
   4  -2  27 1603.92 526.889  16
   4  -2  28 14305.4 1040.17  12
   4  -2  28 14455.2 1053.20   7
   4   2  28 11549.2 922.552   7
   4  -2  28 13861.1 1318.20  16
   4   2  28 13393.4 1257.82  16
   4  -2  29 1041.21 333.089  12
   4   2  29 998.791 301.531  16
   4  -2  29 912.828 374.801   7
   4   2  29 542.182 248.755   7
   4  -2  29 1043.30 377.531  16
   4  -2  30 495.104 247.015  12
   4  -2  30 954.573 324.952   7
   4   2  30 570.289 229.323   7
   4  -2  30 1204.30 448.838  16
   4   2  30 910.413 420.410  16
   4   2  31 843.261 396.853  16
   4  -2  31 107.599 193.119  12
   4  -2  31 231.309 219.036   7
   4   2  31-115.550 190.000   7
   4  -2  31 269.706 340.200  16
   4  -2  32 6240.76 700.847   7
   4  -2  32 6840.02 701.766  12
   4   2  32 5721.90 607.957   7
   4  -2  32 6356.25 881.207  16
   4   2  32 6552.10 858.485  16
   4  -2  33 1508.76 357.145  12
   4  -2  33 1579.00 357.227   7
   4   2  33 1195.70 297.004   7
   4  -2  33 988.905 301.640  16
   4   2  33 1182.01 472.966  16
   4  -2  34 96.2446 191.813  12
   4  -2  34 119.173 197.882   7
   4   2  34 86.0249 162.467   7
   4  -2  34-417.184 315.137  16
   4   2  34 469.911 364.705  16
   4  -2  35 3796.66 521.480   7
   4  -2  35 3654.59 485.129  12
   4   2  35 3576.11 430.748   7
   4  -2  35 3690.09 573.475  16
   4   2  35 4180.06 686.279  16
   4  -2  36 8407.81 722.301   7
   4  -2  36 8400.14 680.150  12
   4   2  36 7869.07 588.615   7
   4  -2  36 7698.72 838.154  16
   4   2  36 9263.32 946.100  16
   4  -2  37 118.491 166.307  12
   4  -2  37 80.3577 168.669   7
   4   2  37 2.66699 212.524  16
   4  -2  37 14.5175 212.041  16
   4  -2  38 316.284 174.476  12
   4  -2  38 201.814 208.266   7
   4   2  38 159.481 251.146  16
   4  -2  38 248.716 260.560  16
   4  -2  39 229.116 141.320  12
   4  -2  39 26.6291 176.438  16
   4   2  39 586.980 244.954  16
   4  -2  40 510.987 147.962  12
   4   2  40 488.569 222.980  16
   4   2  41 19.3960 193.025  16
   4  -3 -43 5177.55 473.923  14
   4   3 -43 4595.07 574.986  14
   4   3 -42 159.195 278.832  14
   4  -3 -42 80.0829 177.608  14
   4   3 -41 1250.86 386.562  14
   4  -3 -41 699.319 257.075  14
   4   3 -40 1710.35 460.382  14
   4  -3 -40 1798.27 375.268  14
   4  -3 -39 222.486 243.711  14
   4   3 -39 484.304 348.583  14
   4   3 -38 3163.12 644.804  14
   4  -3 -38 2284.12 436.308  14
   4   3 -37 7007.05 903.263  14
   4  -3 -37 5810.90 699.879  14
  -4  -3  36 9428.31 921.652  16
   4  -3 -36 10448.8 849.696  15
   4   3 -36 13047.3 1208.40  14
   4  -3 -36 11406.4 970.840  14
   4  -3 -36 7121.15 1195.84  13
  -4  -3  35 192.355 264.540  16
   4  -3 -35 171.295 211.211  15
   4   3 -35-182.154 271.675  14
   4  -3 -35-291.174 259.155  14
   4  -3 -35 779.265 591.902  13
  -4  -3  34 11853.5 1133.32  16
   4  -3 -34 13541.1 1066.20  15
   4   3 -34 16122.0 1393.19  14
   4  -3 -34 14641.8 1152.18  14
   4  -3 -34 9841.57 1410.43  13
  -4  -3  33 2560.64 604.740  16
   4  -3 -33 2961.52 553.438  15
   4   3 -33 4122.00 729.715  14
   4  -3 -33 2572.99 512.810  14
  -4  -3  32 1591.63 496.418  16
   4  -3 -32 1600.10 411.234  15
   4   3 -32 1823.44 533.559  14
   4  -3 -32 1729.17 496.494  14
   4  -3 -32 1361.52 651.865  13
   4  -3 -31-550.909 479.289  13
  -4  -3  31 137.382 313.855  16
   4  -3 -31-32.5645 215.994  15
   4   3 -31 208.468 275.110  14
   4  -3 -31-169.435 287.895  14
   4  -3 -30 19981.8 1397.31  14
  -4  -3  30 19067.5 1554.47  16
   4  -3 -30 20587.0 1455.39  15
   4   3 -30 23427.3 1707.84  14
   4  -3 -29 212.575 350.193  13
  -4  -3  29 509.975 314.441  16
   4  -3 -29 1111.47 438.508  15
   4   3 -29 616.081 420.025  14
   4  -3 -29 376.867 284.320  14
   4  -3 -28 596.308 457.081  13
  -4  -3  28 414.299 324.567  16
   4  -3 -28 483.793 251.022  15
   4   3 -28 502.671 338.718  14
   4  -3 -28 750.870 314.077  14
   4  -3 -27 15347.6 1327.35  15
  -4  -3  27 14641.0 1418.41  16
   4   3 -27 15986.6 1168.18  15
   4   3 -27 16667.0 1427.90  14
   4  -3 -27 10703.4 1043.44  14
   4  -3 -27 10996.7 1242.76  13
   4  -3 -26 319.938 278.635  13
  -4  -3  26 507.705 307.969  16
   4   3 -26 631.649 201.666  15
   4  -3 -26 564.117 334.382  15
   4   3 -26 811.050 367.944  14
   4  -3 -25 6956.26 787.841  10
  -4  -3  25 7227.76 1406.60   1
  -4  -3  25 7972.45 1007.64  16
   4  -3 -25 8100.08 953.181  15
   4   3 -25 7318.53 830.870  15
   4   3 -25 8224.22 988.094  14
   4  -3 -25 6950.56 909.722  13
   4  -3 -25 7182.85 1476.61   5
   4  -3 -24 9562.44 1042.99  15
  -4  -3  24 10224.1 1730.55   3
   4   3 -24 10823.4 1133.96  14
   4  -3 -24 9758.41 919.010  10
  -4  -3  24 10285.9 1149.70  16
   4   3 -24 10098.9 949.967  15
  -4  -3  24 9933.32 1645.02   1
   4  -3 -24 9698.49 1658.58   5
   4  -3 -24 9018.75 987.173  13
   4  -3 -23 612.319 288.688  13
  -4  -3  23 707.142 501.958   1
   4  -3 -23 757.858 296.552  10
  -4  -3  23 241.209 306.805  16
  -4  -3  23 873.288 618.710   3
   4   3 -23 892.362 348.374  15
   4  -3 -23 334.595 330.741  15
   4   3 -23 751.390 346.925  14
   4  -3 -23 779.687 538.867   5
   4  -3 -22 1742.12 453.707  13
   4  -3 -22 2444.10 458.183  10
  -4  -3  22 1891.50 461.481  16
  -4  -3  22 2426.63 911.852   3
   4   3 -22 1938.68 435.497  15
   4  -3 -22 796.977 340.827  15
   4   3 -22 2084.91 485.046  14
  -4  -3  22 1871.98 733.346   1
   4  -3 -22 2369.55 877.151   5
   4   3 -21 10797.1 1089.76  14
  -4  -3  21 12414.3 1776.66   3
  -4  -3  21 10355.1 1628.08   1
   4  -3 -21 11897.0 976.172  10
  -4  -3  21 10889.0 1147.45  16
   4   3 -21 11578.7 1013.63  15
   4  -3 -21 11453.7 1725.94   5
   4  -3 -21 10571.1 972.061  13
   4  -3 -20 5082.11 639.216  10
   4   3 -20 5527.98 774.570  14
  -4  -3  20 5332.60 811.937  16
  -4  -3  20 5183.05 1256.73   3
  -4  -3  20 4683.56 1098.26   1
   4   3 -20 5058.46 681.442  15
   4  -3 -20 4979.94 639.849  13
   4  -3 -20 4272.89 1050.75   5
   4  -3 -19 57.0884 175.917  13
   4  -3 -19 181.769 164.184  10
  -4  -3  19 140.346 323.227   1
  -4  -3  19 148.353 383.705   3
  -4  -3  19-299.215 301.734  16
   4   3 -19 263.471 185.282  15
   4   3 -19-112.597 200.993  14
   4  -3 -19 6.92944 321.231   5
  -4  -3  18 44112.2 3120.93   3
   4  -3 -18 40606.5 1758.32  10
  -4  -3  18 43134.3 3025.01   1
   4  -3 -18 43441.2 1643.80   9
   4   3 -18 41238.7 1863.35  15
   4   3 -18 44792.0 2123.22  14
   4  -3 -18 39285.0 2949.65   5
   4  -3 -18 37001.0 1625.99  13
  -4  -3  17 16562.2 1946.29   3
   4  -3 -17 17251.9 1125.34  10
  -4  -3  17 16204.4 1846.78   1
   4   3 -17 16946.5 1175.12  15
   4   3 -17 19227.9 1358.17  14
   4  -3 -17 14827.7 1820.49   5
  -4  -3  16 2173.38 712.307   1
   4  -3 -16 2583.26 460.346  10
   4   3 -16 2402.47 449.520  15
  -4  -3  16 2869.84 804.390   3
   4  -3 -16 1821.08 640.155   5
  -4  -3  15 42869.4 2892.22   3
  -4  -3  15 41343.8 2834.96   1
   4   3 -15 41912.1 2606.79   5
   4  -3 -15 40310.7 2809.38   5
  -4  -3  14 355.668 393.280   1
   4   3 -14 298.070 380.802   5
  -4  -3  14 309.538 373.847   3
   4  -3 -14 298.736 348.432   5
  -4  -3  13 1643.81 565.676   1
  -4  -3  13 751.125 458.053   3
   4   3 -13 1516.76 676.633   2
   4   3 -13 827.824 417.912   5
   4  -3 -13 1218.41 466.428   5
   4   3 -12 27461.0 2485.49   2
  -4  -3  12 26596.7 2141.09   1
   4   3 -12 27004.3 2044.32   5
   4  -3 -12 22665.2 1956.75   5
  -4  -3  11 6495.72 1067.55   1
   4   3 -11 7195.00 1271.49   2
   4   3 -11 7375.50 1067.02   5
   4  -3 -11 6545.07 1062.56   5
   4   3 -10 4837.55 1109.07   2
  -4  -3  10 4810.39 927.860   1
   4   3 -10 5310.73 911.662   5
   4  -3 -10 4099.79 784.431   5
  -4  -3   9 3037.68 834.337   1
   4   3  -9 2241.94 811.000   2
   4   3  -9 2386.12 641.271   5
   4  -3  -9 1777.36 526.901   5
  -4  -3   8 40328.7 2517.39   1
   4   3  -8 38162.2 2880.69   2
   4   3  -8 41384.9 2551.44   5
   4  -3  -8 38342.4 2299.53   5
  -4  -3   7 24627.7 1982.68   1
   4   3  -7 23301.8 2248.16   2
   4  -3  -7 24878.6 2038.17   6
   4  -3  -7 24149.2 1770.57   5
  -4  -3   6 24270.1 2012.39   1
   4   3  -6 22203.8 2201.67   2
   4  -3  -6 24283.9 1706.67   5
   4  -3  -6 23492.3 1940.89   6
  -4  -3   5 40020.3 2527.22   1
   4   3  -5 37392.7 2929.86   2
   4  -3  -5 38108.3 2410.20   6
   4  -3  -5 35627.1 2031.54   5
  -4  -3   4 71446.6 3271.65   1
   4   3  -4 66506.9 3683.89   2
   4  -3  -4 70672.6 3273.99   6
  -4  -3   3 5203.38 981.107   1
   4  -3  -3 5743.82 1292.75   6
   4   3  -3 5636.57 1215.15   2
   4   3  -2 36974.3 2729.28   2
   4  -3  -2 34141.7 2247.14   6
  -4  -3   2 38464.6 2452.83   1
   4   3  -1 22134.5 2022.66   2
   4  -3  -1 23390.9 1958.76   6
  -4  -3   1 21566.8 1860.47   1
   4   3   0 14902.4 1732.16   2
   4  -3   0 13166.7 1455.62   6
  -4  -3   0 14044.1 1587.87   1
   4   3   1 20098.2 2046.16   2
   4  -3   1 20253.6 1892.44   6
  -4  -3  -1 19835.7 1883.48   1
   4   3   2 40364.8 2648.59   2
   4  -3   2 37754.8 2422.49   6
  -4  -3  -2 38606.9 2516.06   1
  -4  -3  -3 2932.80 801.003   1
   4   3   3 3080.31 900.806   2
   4  -3   3 3177.39 967.387   6
   4  -3   4 9729.29 1302.69   6
   4   3   4 10605.9 1466.72   2
  -4  -3  -4 10266.8 1417.29   1
   4   3   5 35393.7 2522.10   2
   4  -3   5 31221.4 2255.24   6
  -4  -3  -5 34667.5 2434.74   1
  -4  -3  -6 1842.53 804.217   1
   4   3   6 1612.47 889.393   2
   4  -3   6 1359.84 728.947   6
   4   3   7 61675.5 3373.23   2
  -4  -3  -7 47414.3 2679.97  18
  -4   3  -7 47956.5 3198.92  17
   4  -3   7 57135.8 3109.64   6
  -4  -3  -7 60603.4 3335.04   1
  -4  -3  -8 260.708 279.460  18
  -4   3  -8 44.1455 365.882  17
   4  -3   8 493.737 456.724   6
   4   3   8 583.571 361.739   2
  -4  -3  -9-145.577 332.065  18
  -4   3  -9 34.3826 246.409  17
   4   3   9 470.047 380.808   2
   4  -3   9 448.185 336.005   6
  -4  -3 -10 2926.24 717.054  18
   4  -3  10 3443.28 815.379   6
   4   3  10 4175.19 905.338   2
  -4   3 -10 3394.36 879.087  17
  -4   3 -11 25319.5 2738.06  18
  -4  -3 -11 22773.0 2165.52  18
  -4   3 -11 24314.7 2278.96  17
   4  -3  11 23639.3 2120.93   6
   4   3  11 25613.2 2319.82   2
   4  -3  12 2591.77 418.121   8
   4  -3  12 2640.98 401.252  12
  -4   3 -12 3629.02 1062.88  18
  -4  -3 -12 2536.45 783.949  18
   4   3  12 2564.96 378.285   7
  -4   3 -12 4069.96 967.170  17
   4   3  12 3039.08 837.888   2
   4  -3  12 3037.83 836.897   6
   4  -3  13 207.817 205.611   8
   4  -3  13-30.2927 153.538  12
   4  -3  13 11.2939 173.160  11
  -4   3 -13-523.668 652.537  18
  -4  -3 -13 224.584 354.143  18
   4   3  13 117.802 146.371   7
  -4   3 -13 486.231 435.274  17
   4   3  13-405.097 474.592   2
   4  -3  13 439.728 444.134   6
   4  -3  14 1503.65 338.582   8
  -4   3 -14 289.752 316.251  17
   4  -3  14 1469.04 363.718  12
   4  -3  14 1945.29 383.708   7
   4   3  14 1644.75 333.290   7
  -4   3 -14 1227.96 734.471  18
  -4  -3 -14 1258.94 593.585  18
   4   3  14 1943.45 668.720   2
   4   3  14 1057.82 288.837  16
   4  -3  14 2186.66 780.853   6
   4  -3  15 1203.99 312.266   8
   4  -3  15 848.703 245.483  12
   4  -3  15 709.483 214.429   7
  -4   3 -15 763.344 609.466  18
  -4  -3 -15 920.576 350.475  18
   4   3  15 512.128 221.126   7
   4   3  15 2238.11 721.276   2
   4   3  15 1003.84 338.800  16
   4  -3  15 833.982 444.980   6
   4  -3  16 1977.32 421.336   8
   4  -3  16 1938.04 392.121  12
   4  -3  16 2269.95 413.909   7
  -4   3 -16 1803.25 919.973  18
  -4  -3 -16 1418.76 611.086  18
   4   3  16 2302.55 409.666   7
   4   3  16 1724.42 716.208   2
   4   3  16 2065.35 437.614  16
   4  -3  16 1838.38 674.536   6
   4  -3  17 1031.45 346.359   8
   4  -3  17 1059.47 305.241  12
   4  -3  17 705.504 408.169   6
   4  -3  17 1019.52 299.855   7
  -4   3 -17 1351.00 790.980  18
   4   3  17 806.599 253.503   7
  -4  -3 -17 737.670 705.593  18
   4   3  17 1138.58 655.081   2
   4   3  17 1378.35 354.212  16
   4  -3  18 13249.7 989.567  12
   4  -3  18 13119.2 965.257   7
   4   3  18 12963.0 886.408   7
  -4   3 -18 11394.9 2023.84  18
  -4  -3 -18 11590.0 1903.16  18
   4   3  18 12287.4 1019.04  16
   4  -3  18 13728.2 1804.90   6
   4  -3  18 13750.6 1003.09   8
   4   3  18 13793.1 1946.26   2
   4  -3  19 94.7722 160.522   8
   4  -3  19 425.992 227.018  12
   4  -3  19 122.300 175.434   7
  -4   3 -19-21.1242 413.397  18
   4   3  19 310.558 202.978   7
  -4  -3 -19 188.873 386.177  18
   4   3  19 338.147 323.717   2
   4   3  19 264.705 276.142  16
   4  -3  19 57.2720 396.439   6
   4  -3  20 1575.90 389.749   8
   4  -3  20 1176.65 350.436  12
   4  -3  20 1689.46 402.024   7
   4   3  20 1732.76 832.130   2
  -4   3 -20 1251.06 712.071  18
   4   3  20 1687.30 348.453   7
  -4  -3 -20 2186.06 896.919  18
   4   3  20 2093.21 511.346  16
   4  -3  20 1883.78 633.157   6
   4  -3  21 213.858 217.903   8
   4  -3  21 45.1887 261.129  12
   4   3  21 158.706 262.765  16
   4  -3  21 258.278 198.842   7
   4   3  21 97.5024 176.046   7
  -4   3 -21-1374.30 850.031  18
  -4  -3 -21-266.080 759.523  18
   4   3  21-94.8429 350.730   2
   4  -3  21 294.675 464.376   6
   4  -3  22 3003.75 465.326   8
   4  -3  22 2084.41 434.264  12
   4  -3  22 2670.25 486.859   7
   4   3  22 2966.22 456.511   7
   4   3  22 1750.08 475.220  16
   4  -3  23 3243.25 510.269   8
   4  -3  23 2485.34 481.384  12
   4  -3  23 3266.32 552.428   7
   4   3  23 2900.90 461.604   7
   4   3  23 2130.67 489.341  16
   4  -3  24 11188.5 954.753   7
   4  -3  24 10143.4 908.243  12
   4   3  24 9960.03 826.174   7
   4   3  24 9867.70 1035.84  16
   4  -3  24 11358.9 878.557   8
   4  -3  25 581.036 254.950   8
   4  -3  25 330.614 309.286  12
   4  -3  25 345.177 181.166   7
   4   3  25 352.796 170.217   7
   4   3  25 320.765 329.447  16
   4  -3  26 21504.0 1295.91   7
   4  -3  26 21108.3 1285.91  12
   4   3  26 18424.4 1119.28   7
   4   3  26 19666.3 1465.23  16
   4  -3  27 247.011 237.209  12
   4  -3  27 271.380 220.362   7
   4   3  27 43.1733 156.781   7
   4   3  27 170.166 269.538  16
   4  -3  28 43222.4 1805.49   7
   4  -3  28 42828.8 1788.38  12
   4   3  28 39462.9 1573.50   7
   4   3  28 41806.2 2135.97  16
   4  -3  29 22436.6 1303.67   7
   4  -3  29 22899.9 1313.97  12
   4   3  29 20165.8 1107.39   7
   4   3  29 23013.3 1593.99  16
   4   3  30 12833.3 1191.74  16
   4  -3  30 12942.5 984.785   7
   4  -3  30 12805.7 962.612  12
   4   3  30 11039.3 833.828   7
   4  -3  31 11387.3 904.335   7
   4  -3  31 13499.2 967.059  12
   4   3  31 10864.1 793.076   7
   4   3  31 12968.8 1171.20  16
   4  -3  32 13167.0 945.221   7
   4  -3  32 13109.0 943.902  12
   4   3  32 12672.2 1140.04  16
   4  -3  33 523.328 267.906  12
   4  -3  33 686.656 230.016   7
   4   3  33 620.002 311.780  16
   4  -3  34 4230.87 521.419   7
   4  -3  34 5020.37 546.460  12
   4   3  34 5062.30 720.377  16
   4  -3  35-142.168 194.484  12
   4   3  35-475.332 324.039  16
   4  -3  36 686.078 226.909  12
   4   3  36 618.272 348.049  16
   4  -3  37 7724.75 590.967  12
   4   3  37 6300.03 712.792  16
   4  -3  38 242.436 184.560  12
   4   3  38 329.195 245.074  16
   4  -3  39 619.994 171.688  12
   4   3  39 289.771 231.497  16
   4  -3  40 637.071 145.150  12
   4   3  40 274.246 212.441  16
   4   4 -41 1076.98 342.513  14
   4  -4 -41 1345.91 236.527  14
  -4  -4  40 130.353 97.4962  12
   4   4 -40 52.5847 300.812  14
   4  -4 -40 285.693 175.785  14
   4   4 -39-162.728 342.658  14
   4  -4 -39 176.069 184.969  14
   4   4 -38 4238.50 695.367  14
   4  -4 -38 3671.90 470.488  14
  -4  -4  37 3619.92 364.898  10
   4  -4 -37 2856.82 382.566  15
   4  -4 -37 3839.32 502.000  14
   4   4 -37 3818.84 720.318  14
   4  -4 -37 2857.82 715.672  13
   4  -4 -36 802.174 289.105  15
  -4  -4  36 747.145 199.369  10
   4  -4 -36 995.608 323.484  14
   4   4 -36 1512.60 536.120  14
   4  -4 -36 997.869 503.546  13
  -4  -4  35 1128.18 261.277  10
   4  -4 -35 808.447 259.053  15
   4   4 -35 840.202 399.867  14
   4  -4 -35 811.380 289.710  14
   4  -4 -35 325.742 435.730  13
   4  -4 -34 143.146 265.863  15
   4   4 -34 444.043 426.967  14
   4  -4 -34-111.749 218.783  14
   4  -4 -34-569.661 512.872  13
   4  -4 -33 2155.56 442.363  15
   4   4 -33 2765.19 654.686  14
   4  -4 -33 2551.03 473.835  14
   4  -4 -33 2063.32 709.458  13
   4  -4 -32 1209.94 541.615  13
   4  -4 -32 1783.60 417.731  15
   4   4 -32 2101.37 652.380  14
   4  -4 -32 1951.71 438.032  14
   4  -4 -31 4790.99 890.218  13
   4  -4 -31 5127.18 725.479  15
   4  -4 -31 5684.66 717.932  14
   4   4 -31 6938.64 1036.44  14
   4  -4 -30-1.87496 349.969  13
   4  -4 -30-126.306 217.963  15
   4   4 -30 265.582 385.724  14
   4  -4 -30 177.086 268.167  14
   4   4 -29 10824.8 1221.89  14
   4  -4 -29 7765.97 885.378  14
   4  -4 -29 6936.67 1065.95  13
   4  -4 -29 10021.4 1069.42  15
   4  -4 -28 1868.27 595.948  13
   4  -4 -28 2873.49 618.090  15
   4   4 -28 2217.96 621.002  14
   4   4 -27 14101.0 1459.34  14
   4  -4 -27 13400.5 1234.65  15
   4  -4 -27 11583.0 1211.90  13
   4  -4 -26 9515.87 916.128  10
   4  -4 -26 8897.88 994.275  15
   4   4 -26 9508.96 1233.68  14
   4   4 -26 9374.82 882.475  15
   4  -4 -26 8353.54 1038.73  13
   4  -4 -25 2929.98 621.829  13
   4  -4 -25 2948.58 569.825  10
   4   4 -25 2963.12 570.232  15
   4  -4 -25 2775.38 621.864  15
   4   4 -25 3166.84 723.554  14
   4  -4 -24 342.494 290.534  13
   4  -4 -24 590.200 303.953  10
   4   4 -24 558.527 276.426  15
   4  -4 -24-49.8582 309.377  15
   4   4 -24 270.740 418.432  14
   4  -4 -23 14706.0 1127.06  10
   4   4 -23 14936.7 1471.36  14
   4  -4 -23 13159.9 1163.34  13
   4   4 -23 14122.9 1129.59  15
   4  -4 -22 14465.5 1147.21  10
   4   4 -22 15633.5 1191.56  15
   4   4 -22 15554.9 1535.49  14
   4  -4 -22 14738.0 1168.91  13
   4  -4 -21 4000.94 636.470  13
   4  -4 -21 3857.51 588.396  10
   4   4 -21 4136.88 625.686  15
   4   4 -21 5042.21 861.123  14
   4  -4 -20 33778.6 1711.89  10
  -4  -4  20 33550.6 2947.53   1
   4   4 -20 36900.4 1858.16  15
   4   4 -20 33701.0 2190.34  14
   4  -4 -20 32003.7 1663.11  13
   4  -4 -19 5264.14 617.418   9
   4  -4 -19 4981.16 675.741  10
  -4  -4  19 6187.26 1283.41   1
  -4  -4  19 5117.94 1147.98   3
   4   4 -19 5946.08 949.892  14
   4   4 -19 5496.23 719.543  15
   4  -4 -19 4763.36 623.385  13
   4   4 -18 26659.0 1590.17  15
  -4  -4  18 24799.7 2567.48   3
   4  -4 -18 27208.0 1489.17  10
  -4  -4  18 25238.3 2514.36   1
   4  -4 -18 26319.0 1356.38   9
   4   4 -18 28229.9 2011.48  14
   4  -4 -18 26630.7 1429.23  13
  -4  -4  17 14557.0 1929.23   3
   4  -4 -17 13492.8 1049.88  10
  -4  -4  17 13528.9 1812.89   1
   4  -4 -17 12886.0 966.611   9
   4   4 -17 12471.1 1079.66  15
   4   4 -17 12965.3 1339.11  14
   4  -4 -17 13259.7 989.295  13
  -4  -4  16 90284.9 4660.23   3
   4  -4 -16 86610.8 2614.24  10
  -4  -4  16 89810.0 4603.33   1
   4  -4 -16 82310.7 2448.35   9
   4   4 -16 83997.0 2790.94  15
   4   4 -16 91997.7 3631.08  14
   4  -4 -16 81501.5 2341.66  13
   4   4 -15 19397.4 1633.76  14
  -4  -4  15 21721.5 2284.32   3
   4  -4 -15 19040.9 1213.54  10
  -4  -4  15 19002.7 2126.91   1
   4   4 -15 17425.7 1257.49  15
   4  -4 -15 18597.3 1172.44   9
   4  -4 -15 17070.4 1071.82  13
  -4  -4  14 32214.5 2767.56   3
  -4  -4  14 34344.1 2770.55   1
   4  -4 -14 34521.8 1605.69  10
   4   4 -14 34680.0 1778.56  15
   4  -4 -14 33133.3 1567.73   9
   4   4 -14 36220.3 2273.06  14
   4  -4 -14 31511.7 1417.51  13
  -4  -4  13 41640.5 3046.24   1
   4  -4 -13 37552.6 1659.82  10
   4  -4 -13 37398.4 1653.20   9
   4   4 -13 35534.9 2227.88  14
   4   4 -13 35666.1 1795.78  15
   4  -4 -13 33285.1 1409.23  13
   4   4 -12 12036.3 1789.73   2
  -4  -4  12 10723.1 1555.35   1
   4  -4 -12 10021.4 862.993  10
   4  -4 -12 10727.9 906.306   9
   4   4 -12 10729.2 1017.66  15
   4   4 -12 10007.8 1214.00  14
   4  -4 -12 8985.42 729.038  13
   4   4 -11 14555.5 1971.87   2
  -4  -4  11 13274.5 1680.78   1
   4   4 -11 12175.2 1043.89  15
   4  -4 -11 11975.1 936.105  10
   4  -4 -11 12399.0 995.376   9
   4   4 -11 13263.7 1394.39  14
   4  -4 -11 11159.3 809.559  13
   4  -4 -10 461.739 199.640  13
   4  -4 -10 532.702 274.814  10
   4   4 -10 93.9970 235.653  15
   4   4 -10 476.258 516.596   2
   4  -4 -10-258.580 225.631   9
   4   4 -10-223.256 433.974  14
  -4  -4  10 383.798 354.908   1
   4  -4  -9 4757.62 594.164  10
   4   4  -9 5221.43 1289.58   2
   4  -4  -9 5402.69 655.142   9
  -4  -4   9 5600.20 1237.06   1
   4   4  -9 5188.94 892.454  14
   4   4  -9 5196.96 698.395  15
   4  -4  -9 4490.92 520.317  13
   4   4  -8 23019.3 2528.75   2
  -4  -4   8 24548.5 2302.77   1
   4   4  -8 25107.0 1465.45  15
   4  -4  -8 22438.0 1248.66  10
   4   4  -8 25036.3 1947.11  14
   4  -4  -8 25399.1 1344.35   9
   4  -4  -8 20416.4 1049.29  13
   4  -4  -7 3368.31 943.033   4
   4  -4  -7 2831.51 462.136  10
  -4  -4   7 3929.69 949.175   1
   4   4  -7 3442.95 581.079  15
   4   4  -7 3369.32 1169.33   2
   4  -4  -7 3179.97 517.518   9
   4  -4  -7 2764.62 419.020  13
   4  -4  -6-198.398 590.547   4
  -4  -4   6 471.361 609.936   1
   4   4  -6 420.243 308.908  15
   4   4  -6 489.903 776.053   2
   4  -4  -6 46.0275 177.564   9
  -4  -4   5 6322.93 1243.09   1
   4  -4  -5 5459.76 1159.19   4
   4  -4  -5 5374.14 630.718   9
   4   4  -5 6592.50 1377.13   2
   4   4  -5 5591.96 699.308  15
   4  -4  -4 9104.72 1568.55   4
  -4  -4   4 9827.78 1471.01   1
   4   4  -4 9085.92 1611.67   2
   4   4  -4 8088.28 842.963  15
   4  -4  -4 10012.7 1459.74   6
  -4  -4   4 6972.27 660.220  10
   4  -4  -4 8849.14 808.691   9
  -4  -4   3 19897.5 2045.22   1
   4  -4  -3 17614.8 2111.12   4
   4   4  -3 18957.4 2208.85   2
   4  -4  -3 18975.9 1818.27   6
   4  -4  -3 18436.1 1148.28   9
   4   4  -3 17390.1 1210.55  15
  -4  -4   2 27773.4 2340.25   1
   4  -4  -2 25276.5 2512.07   4
   4   4  -2 25632.7 2669.44   2
   4  -4  -2 25449.0 1344.84   9
   4  -4  -2 26136.9 2120.15   6
   4   4  -2 24521.6 1406.05  15
   4  -4  -1 3955.96 1077.71   4
  -4  -4   1 4902.16 999.644   1
   4  -4  -1 5465.52 1219.16   6
   4  -4  -1 4333.00 582.704   9
   4   4  -1 3105.99 511.584  15
   4   4  -1 3618.62 1007.70   2
   4  -4   0 219.249 438.554   4
   4   4   0-88.8513 340.613   2
  -4  -4   0 605.518 303.670   1
   4  -4   0 316.708 306.374   6
   4   4   0 577.507 230.491  15
   4  -4   0 325.247 224.068   9
   4  -4   1-16.7390 174.113   8
   4  -4   1 111.404 227.300   6
   4  -4   1 391.111 506.868   4
  -4  -4  -1 187.277 508.924   1
   4   4   1 357.470 574.566   2
   4   4   1 224.255 208.979  15
   4  -4   1-76.8930 187.525   9
   4   4   2 7127.08 1868.11   2
   4  -4   2 4342.83 1047.64   4
   4  -4   2 6355.23 1318.83   6
   4   4   2 5909.14 719.780  15
   4  -4   2 4615.98 599.589   9
   4  -4   2 4609.91 572.250   8
  -4  -4  -2 7802.55 1575.96   1
   4  -4   3 52755.5 1913.78   9
   4   4   3 62587.8 3818.70   2
   4  -4   3 51601.9 3584.88   4
   4   4   3 53431.4 2056.39  15
   4  -4   3 56817.6 3163.82   6
   4  -4   3 56262.0 1908.38   8
  -4  -4  -3 61640.4 3585.85   1
   4  -4   3 51537.1 1717.52  13
   4   4   4 11012.0 2194.03   2
   4  -4   4 8228.01 695.620  12
   4  -4   4 9294.14 1430.57   6
   4   4   4 8230.74 803.458  15
   4  -4   4 7963.57 780.854   9
   4  -4   4 9273.66 830.367   8
  -4  -4  -4 8575.70 1664.44   1
   4  -4   4 8714.02 752.406  13
   4  -4   5 564.464 269.370   8
   4  -4   5 623.416 262.023  13
   4  -4   5 507.721 219.683  12
  -4  -4  -5 1162.02 679.320   1
   4   4   5 644.719 466.969   2
   4  -4   5 1136.23 586.515   6
   4   4   5 713.267 287.787  16
   4   4   5 630.623 277.168  15
   4  -4   5 615.525 224.553   9
   4  -4   6 4455.36 503.173  12
   4  -4   6 4390.94 937.562   6
  -4   4  -6 4407.72 1098.53  17
   4  -4   6 4594.32 563.783   9
   4   4   6 4726.64 598.140  16
   4   4   6 6148.25 1276.86   2
   4   4   6 4405.83 586.270  15
   4  -4   6 4732.79 577.768   8
  -4  -4  -6 6190.91 1332.23   1
   4  -4   6 4403.99 577.777  13
   4   4   7 28583.3 2592.90   2
   4  -4   7 25735.6 1210.12  12
  -4   4  -7 24301.6 2606.77  17
   4  -4   7 24978.4 2207.38   6
   4   4   7 26083.4 1329.08  16
   4  -4   7 25227.5 1331.84   9
   4   4   7 25691.0 1402.02  15
   4  -4   7 27904.2 1396.43   8
  -4  -4  -7 28954.0 2575.81   1
   4   4   8 19437.4 2184.36   2
   4  -4   8 18259.1 1051.93  12
   4   4   8 18155.8 1030.63   7
   4   4   8 19236.3 1152.74  16
   4  -4   8 19412.4 1989.71   6
   4   4   8 20665.9 1230.33  15
   4  -4   8 16613.1 1070.93   9
  -4   4  -8 18714.1 2241.33  17
  -4  -4  -8 18794.5 2136.11   1
   4  -4   8 18439.1 1164.57   8
   4   4   9 24331.8 2464.45   2
   4  -4   9 19439.8 1083.38  12
   4   4   9 22471.4 1145.60   7
  -4   4  -9 19145.9 2306.81  17
   4   4   9 20905.9 1236.70  16
   4  -4   9 22088.2 1202.21   9
   4  -4   9 20939.0 2052.63   6
  -4  -4  -9 25176.8 2440.68   1
   4  -4   9 20005.6 1213.08   8
   4   4  10 72299.3 4190.52   2
   4  -4  10 64361.3 1991.87  12
   4   4  10 64111.6 1999.93   7
  -4   4 -10 62655.9 4186.31  17
   4   4  10 66537.5 2218.52  16
   4  -4  10 67722.5 3739.69   6
   4  -4  10 68268.7 2116.09   9
   4  -4  10 66490.8 2210.20   8
   4   4  11 33918.4 2954.16   2
   4  -4  11 29403.6 1362.37  12
   4   4  11 29652.0 1342.42   7
   4   4  11 31740.1 1554.93  11
  -4   4 -11 29300.9 2875.02  17
   4   4  11 31046.1 1528.42  16
   4  -4  11 29898.9 2514.96   6
  -4  -4 -11 36707.0 3033.52   1
   4  -4  11 31090.6 1532.92   8
   4   4  12 33534.1 2919.41   2
   4  -4  12 31400.1 1419.96  12
   4   4  12 31078.1 1357.56   7
   4   4  12 34199.3 1604.11  11
  -4   4 -12 31604.5 3322.98  18
  -4   4 -12 32111.0 3075.31  17
   4   4  12 34537.9 1635.00  16
   4  -4  12 29003.8 2515.16   6
  -4  -4 -12 35525.1 3015.85   1
   4  -4  12 31595.4 1544.05   8
   4   4  13 20245.6 2293.31   2
   4  -4  13 15750.6 999.637   7
   4  -4  13 16997.0 1066.22  12
   4   4  13 15703.5 992.870   7
   4   4  13 17930.0 1129.78  11
  -4   4 -13 15916.4 2339.98  18
  -4   4 -13 16854.3 2235.29  17
   4   4  13 17967.9 1194.18  16
   4  -4  13 16979.9 1948.21   6
  -4  -4 -13 20134.4 2310.57   1
   4  -4  13 16576.4 1150.28   8
   4  -4  14 73030.3 2197.09   7
   4  -4  14 80649.8 2328.71  12
   4   4  14 79005.0 2167.77   7
   4   4  14 83567.4 2465.50  11
  -4   4 -14 76934.6 5244.59  18
  -4   4 -14 82471.6 4948.57  17
   4   4  14 85218.2 2635.50  16
   4  -4  14 78874.2 4212.99   6
  -4  -4 -14 86266.8 4795.55   1
   4  -4  14 86668.4 2595.81   8
   4   4  14 90170.2 4866.78   2
   4  -4  15 115.347 247.600   8
  -4  -4 -15 12.2450 346.374   1
   4  -4  15 89.0613 206.350  12
   4  -4  15-134.976 226.395   7
  -4   4 -15 387.804 670.639  17
  -4   4 -15 432.771 427.935  18
   4   4  15-93.5881 207.441   7
   4   4  15 361.912 313.511   2
   4   4  15 76.2003 251.563  16
   4  -4  15-627.698 467.351   6
   4  -4  16 30104.3 1482.29   7
   4  -4  16 37936.8 1627.29  12
   4   4  16 35507.7 1461.55   7
  -4   4 -16 39205.3 3878.98  18
   4   4  16 41161.9 1891.77  16
   4  -4  16 33902.4 2819.61   6
  -4  -4 -16 38077.8 3322.85   1
   4  -4  16 39642.1 1758.13   8
   4   4  16 38365.3 3258.46   2
   4  -4  17 13583.5 999.785   7
   4  -4  17 14932.4 1038.32  12
   4   4  17 14397.3 964.135   7
   4   4  17 13872.9 1121.98  16
   4  -4  17 14532.9 1885.85   6
   4  -4  17 16581.0 1150.12   8
   4  -4  18 33806.0 1568.13   7
   4  -4  18 36748.7 1629.26  12
   4   4  18 34835.9 1458.16   7
   4   4  18 39031.4 1896.32  16
   4  -4  18 38577.1 1735.09   8
   4  -4  19 21116.5 1276.98   7
   4  -4  19 22646.0 1301.83  12
   4   4  19 21603.5 1164.76   7
   4   4  19 22963.8 1483.47  16
   4  -4  19 24492.7 1393.23   8
   4  -4  20 3459.01 541.178   8
   4  -4  20 2969.23 505.055  12
   4  -4  20 2707.49 449.736   7
   4   4  20 2468.62 399.446   7
   4   4  20 3203.24 600.894  16
   4  -4  21 13572.6 1027.17   7
   4  -4  21 13816.7 1051.39  12
   4   4  21 13933.5 924.271   7
   4   4  21 14823.0 1214.79  16
   4  -4  21 16453.4 1128.86   8
   4  -4  22 121.576 180.306   8
   4  -4  22 204.756 281.021  12
   4  -4  22-6.54376 252.607   7
   4   4  22-79.3022 280.325  16
   4   4  22-59.7355 157.378   7
   4  -4  23 6745.48 759.545   7
   4  -4  23 6857.84 733.920  12
   4   4  23 6679.08 671.499   7
   4   4  23 7622.29 910.636  16
   4  -4  23 8238.91 781.199   8
   4  -4  24-79.9143 248.870   8
   4  -4  24 222.067 218.645  12
   4  -4  24-9.80836 203.851   7
   4   4  24-133.217 155.653   7
   4   4  24 36.2187 240.584  16
   4  -4  25 4104.00 596.612   7
   4   4  25 3815.37 498.786   7
   4  -4  25 4007.89 583.356  12
   4   4  25 4314.05 686.352  16
   4  -4  25 4331.32 560.156   8
   4  -4  26 1193.04 300.958   8
   4  -4  26 898.161 328.799  12
   4   4  26 1416.86 359.846   7
   4   4  26 1349.04 447.416  16
   4  -4  27 291.131 170.487   8
   4  -4  27 873.404 309.067  12
   4   4  27 797.874 287.438  16
   4  -4  28 227.891 200.339  12
   4   4  28-159.735 241.278  16
   4  -4  29 600.232 275.588  12
   4   4  29 860.595 474.650  16
   4  -4  30 165.349 207.159  12
   4   4  30-179.341 313.781  16
   4  -4  31 245.380 195.468  12
   4   4  31 138.039 274.382  16
   4  -4  32 696.639 236.858  12
   4   4  32 400.251 293.690  16
   4  -4  33 61.8422 181.895  12
   4   4  33 346.922 315.151  16
   4  -4  34 1246.95 286.664  12
   4   4  34 1732.35 424.698  16
   4  -4  35 1222.26 261.259  12
   4   4  35 683.834 298.495  16
   4  -4  36 347.759 179.200  12
   4   4  36 421.239 222.040  16
   4  -4  37 6701.23 463.968  12
   4   4  37 5238.09 566.606  16
   4  -4  38-9.83917 115.144  12
   4   5 -38 430.077 374.489  14
   4  -5 -37 337.916 174.384  14
   4   5 -37-117.148 365.137  14
   4  -5 -36 8537.50 628.772  14
   4   5 -36 6571.11 875.398  14
   4  -5 -36 5577.88 788.748  13
  -4  -5  35-142.851 109.757  10
   4  -5 -35-75.2250 126.696  15
   4  -5 -35 334.413 204.833  14
   4  -5 -35-106.442 337.923  13
  -4  -5  34 14637.0 710.187  10
   4  -5 -34 15645.6 933.745  15
   4   5 -34 14756.1 1398.74  14
   4  -5 -34 15367.6 951.496  14
  -4  -5  33 2042.38 293.272  10
   4  -5 -33 1907.46 385.092  15
   4   5 -33 3027.15 714.895  14
   4  -5 -33 2449.44 419.793  14
   4  -5 -33 2004.13 615.174  13
   4  -5 -32 209.318 322.939  13
  -4  -5  32 123.255 127.387  10
   4  -5 -32 31.8564 192.028  15
   4   5 -32-492.937 466.926  14
   4  -5 -32-201.965 223.836  14
   4  -5 -31 3333.60 687.765  13
  -4  -5  31 5362.18 526.854  10
   4  -5 -31 5133.00 657.426  15
   4  -5 -31 5286.63 644.788  14
   4   5 -31 5558.57 948.557  14
   4  -5 -30 516.737 367.714  13
  -4  -5  30-102.670 151.438  10
   4   5 -30 565.399 502.688  14
   4  -5 -30 148.150 235.331  15
   4  -5 -30 84.6528 206.324  14
   4  -5 -29 2102.51 522.086  13
  -4  -5  29 3184.68 433.093  10
   4  -5 -29 2966.30 576.947  15
   4   5 -29 2841.43 713.946  14
   4  -5 -29 2438.76 441.398  14
   4  -5 -28 433.570 431.731  13
  -4  -5  28-42.2017 164.215  10
   4  -5 -28-51.7514 293.835  15
   4   5 -28-142.587 431.399  14
  -4  -5  27 13306.7 913.828  10
   4  -5 -27 12907.1 1156.77  15
   4   5 -27 11341.3 1404.19  14
   4  -5 -27 10041.2 1092.09  13
   4  -5 -26 12.6087 261.737  13
   4  -5 -26 300.327 209.091  10
  -4  -5  26 43.8219 192.866  10
   4  -5 -26-513.561 335.260  15
   4   5 -26-489.839 434.707  14
   4  -5 -25 5875.28 820.951  13
   4  -5 -25 5607.97 708.262  10
  -4  -5  25 6004.44 661.093  10
   4   5 -25 5327.38 650.460  15
   4  -5 -25 5025.35 791.991  15
   4   5 -25 5893.09 1090.15  14
   4  -5 -24 1788.27 490.968  13
   4  -5 -24 1744.52 476.647  10
  -4  -5  24 1782.31 401.082  10
   4   5 -24 1360.43 356.793  15
   4   5 -24 964.113 673.841  14
   4  -5 -23 51.4156 236.468  13
   4  -5 -23-54.1183 286.760  10
  -4  -5  23 352.744 253.008  10
   4   5 -23-144.321 212.176  15
   4   5 -23 312.831 538.474  14
   4  -5 -22 942.854 408.882  13
   4  -5 -22 832.829 332.805  10
  -4  -5  22 500.621 279.203  10
   4   5 -22 953.683 342.264  15
   4   5 -22 419.678 434.128  14
   4  -5 -21 3293.33 595.551  13
   4  -5 -21 3349.36 592.985  10
  -4  -5  21 3566.18 503.139  10
   4   5 -21 2860.34 506.114  15
   4   5 -21 3202.67 817.745  14
   4  -5 -20 11056.1 1010.10  10
  -4  -5  20 9747.50 877.272  10
   4   5 -20 11094.0 1037.79  15
   4  -5 -20 10891.3 897.252   9
   4   5 -20 9972.60 1440.20  14
   4  -5 -20 10621.1 995.486  13
   4  -5 -19 16558.0 1192.08  10
  -4  -5  19 15910.5 1124.41  10
   4   5 -19 15850.5 1230.38  15
   4  -5 -19 15758.8 1089.45   9
   4   5 -19 15311.0 1711.31  14
   4  -5 -19 15530.4 1159.47  13
   4  -5 -18 408.964 238.554  13
   4  -5 -18 436.851 224.378  10
  -4  -5  18-39.7502 197.931  10
   4   5 -18 531.763 337.863  15
   4  -5 -18 435.211 208.764   9
   4   5 -18 135.449 433.537  14
   4  -5 -17 6796.96 764.028   9
   4  -5 -17 6615.10 797.741  10
  -4  -5  17 6906.49 739.639  10
   4   5 -17 6445.02 789.783  15
   4   5 -17 7613.17 1224.28  14
   4  -5 -17 7574.74 768.743  13
   4  -5 -16 12643.9 1033.64  10
  -4  -5  16 12437.7 1001.28  10
   4  -5 -16 12429.1 1016.25   9
   4   5 -16 11935.0 1067.73  15
   4   5 -16 11251.8 1506.14  14
   4  -5 -16 13552.1 1009.52  13
   4  -5 -15 5994.74 709.624   9
   4  -5 -15 6470.94 770.651  10
  -4  -5  15 5544.32 676.123  10
   4   5 -15 5795.86 754.387  15
   4   5 -15 4492.31 1018.81  14
   4  -5 -15 5983.31 671.414  13
   4  -5 -14 3440.29 531.454  10
  -4  -5  14 3486.54 543.182  10
   4   5 -14 3342.43 585.666  15
   4  -5 -14 3965.55 601.886   9
   4   5 -14 3103.46 939.605  14
   4  -5 -14 3195.62 531.674  13
   4  -5 -13 1518.71 337.831  13
   4  -5 -13 2223.03 472.759  10
  -4  -5  13 1738.10 438.350  10
   4   5 -13 1112.57 329.570  15
   4  -5 -13 1564.95 439.785   9
   4   5 -13 1021.18 612.018  14
   4  -5 -12 888.987 277.332  13
   4  -5 -12 909.203 329.908  10
   4   5 -12 1056.51 341.536  15
  -4  -5  12 967.963 286.509  10
   4  -5 -12 1022.94 341.220   9
   4   5 -12 314.191 446.539  14
   4  -5 -11 253.511 175.844  13
   4  -5 -11 383.727 188.983  10
  -4  -5  11 327.657 186.810  10
   4   5 -11 409.526 263.216  15
   4  -5 -11 370.233 274.174   9
   4   5 -11 849.001 548.593  14
   4  -5 -10 2571.20 448.432  13
  -4  -5  10 3417.59 542.088  10
   4  -5 -10 2758.57 506.052  10
   4   5 -10 3710.46 629.486  15
   4   5 -10 3802.92 1138.26   2
   4  -5 -10 2040.85 515.314   9
   4   5 -10 3044.94 1070.13  14
  -4  -5  10 2423.73 817.317   1
   4  -5  -9 494.056 258.501  13
   4  -5  -9 877.006 324.006  10
  -4  -5   9 741.524 271.337  10
   4   5  -9 697.377 283.320  15
   4   5  -9 1126.48 721.698   2
   4  -5  -9 992.329 344.741   9
   4   5  -9 468.609 524.359  14
  -4  -5   9 994.642 533.574   1
   4  -5  -8 2661.40 486.599  10
  -4  -5   8 2571.70 520.729  10
   4   5  -8 2807.29 580.459  15
   4   5  -8 3869.61 1312.47   2
   4  -5  -8 2582.14 506.179   9
   4   5  -8 2911.70 982.602  14
  -4  -5   8 2789.59 1025.90   1
   4  -5  -8 2807.46 497.324  13
   4  -5  -7 20677.2 2536.29   4
   4   5  -7 19717.8 2555.03   2
  -4  -5   7 20311.5 2275.10   1
   4  -5  -7 19214.5 1207.92  10
  -4  -5   7 19607.3 1233.62  10
   4   5  -7 20038.4 1404.73  15
   4  -5  -7 21006.5 1289.48   9
   4   5  -7 23316.8 2326.37  14
   4  -5  -7 18258.7 1118.18  13
   4   5  -6 7273.48 1900.09   2
   4  -5  -6 3788.76 1244.06   4
  -4  -5   6 7011.70 1502.54   1
   4  -5  -6 5616.97 706.608   9
   4  -5  -6 4527.78 603.389  10
  -4  -5   6 5409.92 677.754  10
   4   5  -6 6732.84 830.946  15
   4   5  -6 7023.50 1420.35  14
   4  -5  -6 6756.22 750.501  13
   4  -5  -5 17316.3 2298.88   4
   4   5  -5 21650.1 2713.56   2
  -4  -5   5 23058.4 2480.85   1
   4  -5  -5 17889.4 1154.68  10
  -4  -5   5 18354.6 1181.13  10
   4  -5  -5 21104.1 1282.35   9
   4   5  -5 19392.3 2254.20  14
   4   5  -5 19720.1 1399.72  15
   4  -5  -5 19371.6 1161.93  13
   4  -5  -4 19148.8 2431.14   4
   4   5  -4 23043.9 2858.23   2
  -4  -5   4 22212.7 2432.92   1
   4  -5  -4 21868.7 1324.27   9
   4  -5  -4 19873.9 1215.31  10
  -4  -5   4 20486.1 1259.76  10
   4   5  -4 23882.5 1542.23  15
   4   5  -4 19278.9 2237.67  14
   4  -5  -4 17672.7 1077.82   8
   4  -5  -4 23851.9 1268.37  13
   4  -5  -3 18114.3 2401.51   4
   4   5  -3 21455.9 2670.52   2
  -4  -5   3 21138.8 2276.80   1
   4  -5  -3 19195.6 1161.14  10
  -4  -5   3 19443.0 1196.43  10
   4  -5  -3 23512.3 1366.16   9
   4   5  -3 18728.4 1366.10  15
   4   5  -3 16318.0 1998.25  14
   4  -5  -3 17803.8 1089.82   8
   4  -5  -3 18209.3 1087.28  13
   4  -5  -2 1453.53 359.660   8
   4  -5  -2 1002.11 772.694   4
   4  -5  -2 1787.93 436.727  10
  -4  -5   2 2742.45 1113.00   1
  -4  -5   2 1161.25 374.885  10
   4   5  -2 2026.98 497.928  15
   4   5  -2 2273.65 981.142   2
   4  -5  -2 2179.09 538.947   9
   4  -5  -2 3441.10 529.811  13
  -4  -5   1 15043.7 2295.21   1
   4  -5  -1 5093.14 682.129   9
   4   5  -1 18803.6 3183.52   2
   4  -5  -1 3664.29 1170.24   4
   4  -5  -1 4697.94 586.425  10
  -4  -5   1 6531.35 794.244  10
   4   5  -1 6747.07 945.841  15
   4  -5  -1 4298.04 559.761   8
  -4  -5   0 84597.5 4591.28   1
   4  -5   0 66910.1 4494.82   4
   4   5   0 73346.0 4831.59   2
   4  -5   0 77856.7 2245.50  10
  -4  -5   0 81441.6 2398.22  10
   4   5   0 87752.3 2882.17  15
   4  -5   0 79972.8 2511.60   9
   4  -5   0 74601.8 2270.49   8
   4  -5   0 75445.4 2239.94  13
  -4  -5  -1 21029.4 2302.48   1
   4  -5   1 21646.3 2592.52   4
  -4  -5  -1 20777.2 1211.99  10
   4   5   1 21367.1 1431.52  15
   4  -5   1 25435.4 1434.80   9
   4  -5   1 23837.7 1329.77   8
   4  -5   2 933.662 372.114   8
  -4  -5  -2 12221.5 2366.75   1
   4   5   2 15044.4 2894.76   2
   4  -5   2 616.447 514.694   4
  -4   5  -2 258.764 529.015  17
  -4  -5  -2 1750.61 465.990  10
   4   5   2 1147.11 613.234  15
   4  -5   2 1425.76 432.605   9
  -4  -5  -3 79801.3 4484.57   1
   4   5   3 73231.5 2614.97  15
   4   5   3 73135.9 4727.83   2
   4  -5   3 65005.8 4432.97   4
  -4   5  -3 62058.9 4514.30  17
  -4  -5  -3 73233.4 2237.76  10
   4  -5   3 70345.9 2338.86   9
   4  -5   3 70696.8 2266.96   8
   4  -5   3 66688.2 2167.51  13
  -4  -5  -4 14928.2 2481.73   1
   4  -5   4 9037.14 924.066   9
  -4  -5  -4 6828.74 685.320  10
  -4   5  -4 7099.53 1646.89  17
   4   5   4 6506.53 810.965  16
   4   5   4 6250.16 788.808  15
   4  -5   4 9048.53 875.072   8
   4  -5   4 17952.8 1320.14  13
  -4  -5  -5 13964.5 1971.51   1
   4   5   5 11388.9 1983.93   2
  -4   5  -5 13761.1 2131.91  17
  -4  -5  -5 11590.4 897.150  10
   4   5   5 14125.8 1093.16  16
   4  -5   5 11666.9 1000.28   9
   4  -5   5 11296.1 942.081   8
   4  -5   5 13416.0 1014.60  13
  -4  -5  -6 18451.4 2270.13   1
   4   5   6 18592.8 2472.20   2
  -4   5  -6 12998.6 2094.62  17
   4   5   6 15580.9 1104.60  16
   4  -5   6 15763.1 1145.57   9
   4  -5   6 15012.8 1108.66   8
   4  -5   6 16174.3 1121.04  13
   4  -5   7 3657.81 600.980   8
   4  -5   7 3363.09 443.350  12
  -4   5  -7 3095.12 969.138  17
   4   5   7 3205.87 475.080   7
   4   5   7 4074.31 620.556  16
   4   5   7 3885.64 1130.47   2
   4  -5   7 3233.59 540.198   9
   4  -5   7 3389.45 571.600  13
   4  -5   8 2822.70 487.496   8
   4  -5   8 3127.49 505.150  13
   4  -5   8 3045.81 440.211  12
   4   5   8 3448.34 565.542  16
  -4   5  -8 2830.85 1036.92  17
   4   5   8 2997.30 468.917   7
   4  -5   8 3450.74 552.539   9
   4  -5   9 1077.70 381.989   8
   4  -5   9 965.219 326.952  13
   4  -5   9 909.001 244.607  12
   4   5   9 705.877 233.387   7
   4   5   9 733.348 295.424  16
   4  -5   9 623.704 252.457   9
   4  -5  10 1198.15 335.534   8
   4  -5  10 1091.32 325.493  13
   4  -5  10 1126.43 271.781  12
   4   5  10 1504.72 348.286   7
   4   5  10 1413.38 328.431  16
   4  -5  10 1752.96 393.821   9
   4  -5  11 338.101 288.295   8
   4  -5  11 165.442 221.976  13
   4  -5  11 450.196 228.513  12
   4   5  11 407.423 221.085  11
   4   5  11 423.628 248.856   7
   4   5  11 837.768 295.883  16
   4  -5  11 325.856 207.673   9
   4  -5  12 4407.58 640.746   8
   4  -5  12 4140.85 530.201  12
   4   5  12 4473.20 531.021   7
   4   5  12 4460.66 616.993  11
   4   5  12 5400.76 685.325  16
   4  -5  12 4453.70 570.659   9
   4  -5  12 4894.93 639.723  13
   4  -5  13 8430.71 742.035  12
   4   5  13 8911.86 754.612   7
   4   5  13 8653.22 832.253  11
   4   5  13 9078.37 902.882  16
   4  -5  13 8623.22 895.617   8
   4  -5  13 9335.71 827.792  13
   4  -5  14 8088.69 730.828  12
   4   5  14 7987.43 702.490   7
   4   5  14 8060.94 818.500  11
   4   5  14 8979.95 903.382  16
   4  -5  14 8524.44 865.842   8
   4  -5  15 3996.54 528.386  12
   4   5  15 4323.67 530.079   7
   4   5  15 4506.19 599.529  11
   4   5  15 4746.89 668.433  16
   4  -5  15 4871.47 652.642   8
   4  -5  16 2601.56 542.268   8
   4  -5  16 2271.58 420.226  12
   4   5  16 2645.75 396.773   7
   4   5  16 2999.14 558.922  16
   4  -5  17 782.092 381.822   8
   4  -5  17 1197.28 330.796  12
   4   5  17 839.360 251.770   7
   4   5  17 1262.15 330.065  16
   4  -5  18 237.854 299.427   8
   4  -5  18 235.392 228.148  12
   4   5  18 144.607 205.157   7
   4   5  18-27.7452 258.093  16
   4  -5  19 15943.5 1028.64  12
   4   5  19 17938.0 1008.76   7
   4   5  19 16330.5 1274.77  16
   4  -5  19 19237.1 1234.94   8
   4  -5  20 4216.43 545.427   8
   4  -5  20 3941.32 527.879  12
   4   5  20 3592.67 450.747   7
   4   5  20 4317.05 672.479  16
   4  -5  21 227.950 203.516   8
   4  -5  21-2.10953 197.086  12
   4   5  21 213.448 220.424  16
   4  -5  22 3702.33 533.531   8
   4  -5  22 3205.73 471.521  12
   4   5  22 4144.62 669.123  16
   4  -5  23 836.123 322.039   8
   4  -5  23 311.790 202.911  12
   4   5  23 821.074 375.487  16
   4  -5  24 45.6392 160.550   8
   4  -5  24 108.438 163.376  12
   4   5  24-37.1511 225.475  16
   4  -5  25 964.002 279.176   8
   4  -5  25 1112.61 314.915  12
   4   5  25 639.196 364.515  16
   4  -5  26 327.081 195.750   8
   4  -5  26 72.4134 169.905  12
   4   5  26 232.253 271.690  16
   4  -5  27 381.728 188.117   8
   4  -5  27 19.7223 179.025  12
   4   5  27 141.520 226.888  16
   4  -5  28 368.352 169.625   8
   4  -5  28 291.051 197.453  12
   4   5  28 558.734 271.740  16
   4  -5  29 863.704 229.206  12
   4   5  29 662.272 339.097  16
   4  -5  30 3233.59 393.822  12
   4   5  30 2709.51 497.111  16
   4  -5  31 8160.60 576.539  12
   4   5  31 9002.72 784.274  16
   4  -5  31 7166.94 545.344  13
   4  -5  32 2129.38 290.437  13
   4  -5  32 2458.98 319.856  12
   4   5  32 2797.50 450.952  16
   4  -5  33 515.258 154.420  13
   4  -5  33 439.959 139.981  12
   4   5  33 499.891 230.944  16
   4  -5  34 1312.86 203.596  12
   4   5  34 969.203 281.148  16
   4   6 -33 1783.27 547.665  14
   4  -6 -32 14329.6 784.260  15
   4   6 -32 14198.4 1286.86  14
   4  -6 -32 14911.7 772.833  14
   4  -6 -32 11591.4 1050.69  13
  -4  -6  31 1995.31 244.444  10
   4  -6 -31 2491.06 375.744  15
   4   6 -31 2498.90 626.574  14
   4  -6 -31 2179.25 330.697  14
   4  -6 -31 2063.47 539.180  13
   4  -6 -30 1933.25 511.810  13
  -4  -6  30 2076.85 278.178  10
   4  -6 -30 1750.70 367.250  15
   4   6 -30 2077.22 617.323  14
   4  -6 -30 1952.25 325.122  14
   4  -6 -29 4403.87 665.746  13
   4  -6 -29 5890.44 625.756  15
  -4  -6  29 5847.18 472.230  10
   4  -6 -29 5657.20 567.802  14
   4   6 -29 4823.01 931.298  14
  -4  -6  29 5349.29 446.547   8
   4  -6 -28-111.801 298.523  13
  -4  -6  28-136.754 140.993  10
   4  -6 -28 505.766 283.404  15
   4   6 -28 84.3282 376.950  14
   4  -6 -28 25.3448 152.300  14
  -4  -6  27 12012.8 749.527  10
   4  -6 -27 11747.8 941.253  15
   4  -6 -27 8073.91 727.620  14
   4   6 -27 8546.54 1230.04  14
   4  -6 -27 10120.7 1019.69  13
   4  -6 -26 1359.57 428.174  13
  -4  -6  26 1883.62 337.724  10
   4  -6 -26 1962.00 408.358  15
   4   6 -26 1424.32 524.123  14
   4  -6 -25 426.242 309.485  13
   4  -6 -25-51.0257 188.929  10
  -4  -6  25 259.265 209.665  10
   4  -6 -25-203.612 254.413  15
   4   6 -25 670.770 512.745  14
   4  -6 -24-14.1205 235.773  13
   4  -6 -24 311.514 238.195  10
  -4  -6  24 271.109 219.723  10
   4  -6 -24-265.383 296.405  15
   4   6 -24-208.130 595.757  14
   4  -6 -23 559.886 367.963  13
   4  -6 -23 1147.27 325.679  10
  -4  -6  23 1113.41 296.882  10
   4  -6 -23 714.698 355.479  15
   4   6 -23-52.1116 589.433  14
   4  -6 -22 1670.58 483.915  13
   4  -6 -22 2670.30 479.885  10
  -4  -6  22 2185.99 405.849  10
   4   6 -22 2509.59 808.170  14
   4  -6 -21 102.386 266.136  13
   4  -6 -21 59.0959 221.303  10
  -4  -6  21 48.9716 190.118  10
   4   6 -21-10.3315 166.594  15
   4   6 -21-632.425 656.764  14
   4  -6 -20 7433.39 670.486   9
   4  -6 -20 8314.01 807.144  10
  -4  -6  20 6981.80 706.338  10
   4   6 -20 7830.40 788.301  15
   4   6 -20 5697.33 1194.44  14
   4  -6 -20 7454.80 859.378  13
   4  -6 -19 142.756 241.804  13
   4  -6 -19 53.2654 276.942  10
  -4  -6  19 114.944 200.477  10
   4   6 -19 90.9346 207.904  15
   4  -6 -19 44.9284 164.299   9
   4   6 -19 36.8203 622.864  14
   4  -6 -18-110.195 213.051  13
   4  -6 -18-510.579 269.193  10
  -4  -6  18 159.572 261.736  10
   4   6 -18 34.9934 192.153  15
   4  -6 -18 190.816 175.599   9
   4  -6 -17 215.194 232.839  13
   4  -6 -17 408.203 277.482  10
  -4  -6  17 446.698 221.159  10
   4   6 -17 515.769 239.435  15
   4  -6 -17 555.739 277.019   9
   4   6 -17 405.819 563.480  14
   4  -6 -16 429.179 305.577  13
   4  -6 -16 652.309 270.681  10
  -4  -6  16 514.266 286.265  10
   4   6 -16-176.448 289.526  15
   4   6 -16 542.320 633.086  14
   4  -6 -16 557.343 293.649   9
   4  -6 -15 5996.26 698.012  10
  -4  -6  15 6886.65 735.229  10
   4   6 -15 5986.64 775.345  15
   4  -6 -15 6595.33 720.977   9
   4   6 -15 6987.79 1406.73  14
   4  -6 -15 6522.94 701.453  13
   4  -6 -14 4155.80 565.822  13
   4  -6 -14 3369.94 540.781  10
  -4  -6  14 3753.38 573.984  10
   4   6 -14 2821.91 525.296  15
   4  -6 -14 4229.67 611.639   9
   4  -6 -13 5687.55 713.179  10
  -4  -6  13 5878.32 708.208  10
   4  -6 -13 5191.23 661.768   9
   4   6 -13 5205.77 712.629  15
   4   6 -13 5056.68 1243.04  14
   4  -6 -13 6404.36 686.531  13
   4  -6 -12 4951.71 653.756  10
  -4  -6  12 5222.49 656.533  10
   4  -6 -12 5442.96 694.035   9
   4   6 -12 3034.37 1027.84  14
   4   6 -12 4440.91 689.223  15
   4  -6 -12 5432.15 642.834  13
   4  -6 -11 995.895 333.387  13
   4  -6 -11 1323.23 378.121  10
  -4  -6  11 1200.08 408.240  10
   4   6 -11 1058.53 384.802  15
   4  -6 -11 1131.53 396.440   9
   4   6 -11 1051.54 561.828  14
   4  -6 -10-20.5982 209.318  13
   4  -6 -10-39.5766 224.013   9
   4  -6 -10-52.2546 190.454  10
  -4  -6  10 150.898 226.689  10
   4   6 -10 361.720 283.227  15
   4   6 -10 36.2591 682.114  14
   4  -6  -9 753.787 434.287  13
   4  -6  -9 467.794 285.574  10
  -4  -6   9 524.785 311.238  10
   4   6  -9 287.792 340.853  15
   4  -6  -9 272.576 235.956   9
   4   6  -9 828.054 592.207  14
   4  -6  -8 11044.2 985.479   9
   4   6  -8 9824.44 1040.25  15
   4  -6  -8 10963.1 932.167  10
  -4  -6   8 10758.9 932.382  10
   4  -6  -8 9513.50 814.223  13
   4  -6  -7 1437.28 370.608  10
  -4  -6   7 1796.52 415.815  10
   4   6  -7 1669.75 454.074  15
   4  -6  -7 2047.67 502.574   9
   4  -6  -7 3256.02 627.163  13
   4  -6  -6 587.633 285.124  13
   4  -6  -6 395.907 211.004  10
  -4  -6   6 667.181 356.304  10
   4   6  -6 544.284 371.478  15
   4  -6  -6 208.094 226.482   9
   4  -6  -5 5637.72 742.716   9
   4  -6  -5 5292.69 653.608  10
  -4  -6   5 5715.13 690.893  10
   4   6  -5 5326.58 774.010  15
   4  -6  -5 5905.79 636.257  13
   4  -6  -4 3015.57 493.863  10
  -4  -6   4 3056.50 536.730  10
   4  -6  -4 3666.46 608.820   9
   4  -6  -4 3797.07 590.166  13
   4  -6  -3 2166.84 411.411   8
   4  -6  -3 1947.09 413.323  10
  -4  -6   3 1893.37 434.091  10
   4  -6  -3 2732.63 513.011   9
   4  -6  -3 3644.49 625.926  13
   4  -6  -2 2985.14 464.143   8
  -4  -6   2 4388.88 622.428  10
   4  -6  -2 3008.57 495.119  10
   4  -6  -2 3788.27 633.319   9
   4  -6  -1 10950.7 891.795  10
  -4  -6   1 11260.8 921.541  10
   4  -6  -1 12450.0 1041.24   9
   4  -6  -1 10571.0 871.376   8
   4  -6  -1 10945.6 879.100  13
   4  -6   0 1104.90 344.555   8
   4  -6   0 758.861 308.077  10
  -4  -6   0 445.566 314.880  10
   4  -6   0 1118.89 377.787   9
   4  -6   1 1034.52 334.800   8
   4  -6   1 1028.78 318.050  13
   4  -6   1 1223.59 304.267  10
  -4  -6  -1 1360.84 388.131  10
   4  -6   1 1806.44 459.008   9
   4  -6   2 265.245 249.641   8
   4  -6   2 1543.18 426.209  13
  -4  -6  -2 426.951 252.961  10
   4   6   2 724.729 425.922  16
   4  -6   2 508.207 314.224   9
   4  -6   3 4222.96 578.761   8
  -4  -6  -3 4662.35 574.673  10
   4   6   3 4793.00 658.277  16
   4  -6   3 5026.58 681.539   9
   4  -6   3 4475.94 607.406  13
   4  -6   4 778.551 266.753   8
   4   6   4 1520.94 452.166  16
  -4  -6  -4 866.019 303.120  10
   4  -6   4 867.728 327.384   9
   4   6   5 7973.91 732.655   7
  -4  -6  -5 7459.01 751.061  10
   4   6   5 6788.86 782.304  16
   4  -6   5 6709.22 756.990   9
   4  -6   5 7191.89 749.515   8
   4  -6   5 8244.04 849.875  13
   4   6   6 8400.35 754.504   7
  -4  -6  -6 9103.34 798.087  10
   4   6   6 7843.33 848.463  16
   4  -6   6 8899.78 853.923   9
   4  -6   6 8104.55 804.464   8
   4  -6   6 8844.13 841.274  13
   4  -6   7 2517.31 496.567   8
  -4  -6  -7 3317.97 502.418  10
   4   6   7 2912.67 445.685   7
   4  -6   7 3228.24 533.988   9
   4  -6   7 3678.67 615.417  13
   4   6   7 3182.10 552.050  16
   4  -6   8 818.607 334.400   8
   4  -6   8 1031.36 382.336  13
   4   6   8 820.332 265.033   7
   4   6   8 483.920 249.163  16
   4  -6   8 825.158 347.238   9
   4  -6   9 2934.62 521.457   8
   4   6   9 3030.46 436.506   7
   4   6   9 2980.23 553.961  16
   4  -6   9 2758.50 499.934   9
   4  -6   9 3509.32 628.552  13
   4   6  10 13376.4 872.621   7
   4   6  10 13313.3 1058.32  11
   4  -6  10 14584.5 1024.98   9
   4   6  10 13055.0 1050.37  16
   4  -6  10 12808.4 1018.10   8
   4  -6  10 13090.1 979.071  13
   4  -6  11 58.9044 254.425   8
   4  -6  11 812.128 490.665  13
   4   6  11-54.0825 262.487  11
   4   6  11 13.6249 174.219   7
   4   6  11 526.359 350.684  16
   4  -6  11-72.5494 244.371   9
   4   6  12 34677.9 1381.85   7
   4   6  12 32803.3 1591.92  11
   4   6  12 35295.7 1731.06  16
   4  -6  12 35222.2 1544.01   9
   4  -6  12 36144.7 1683.52   8
   4  -6  12 32566.7 1523.13  13
   4  -6  13 3059.76 515.018   8
   4   6  13 3107.02 481.694  11
   4   6  13 2864.78 418.369   7
   4   6  13 3511.99 606.745  16
   4  -6  13 2335.88 407.718   9
   4  -6  13 3599.44 590.137  13
   4   6  14 11643.2 773.913   7
   4   6  14 11350.4 896.069  11
   4   6  14 12179.0 1044.66  16
   4  -6  14 11387.3 946.151   8
   4  -6  14 11450.9 913.727  13
   4   6  15 8156.31 636.713   7
   4   6  15 9754.62 913.705  16
   4  -6  15 9157.64 829.459   8
   4  -6  15 8513.36 786.265  13
   4  -6  16 786.519 309.872   8
   4  -6  16 676.776 293.175  13
   4   6  16 333.438 302.915  16
   4   6  17 3558.74 634.315  16
   4  -6  17 4716.17 603.643   8
   4  -6  17 3658.40 535.510  13
   4  -6  18 776.857 286.000   8
   4  -6  18 435.459 229.675  13
   4  -6  18 283.973 148.566  12
   4   6  18 818.227 337.920  16
   4  -6  19 3171.12 488.883   8
   4  -6  19 2679.29 459.524  13
   4  -6  19 2839.93 377.096  12
   4   6  19 3525.14 580.353  16
   4  -6  20 2422.71 419.216   8
   4  -6  20 1854.27 362.345  13
   4  -6  20 1893.17 309.795  12
   4   6  20 2752.81 494.950  16
   4  -6  21 128.108 172.104   8
   4  -6  21-111.165 169.249  13
   4  -6  21-40.6321 136.445  12
   4   6  21 379.896 324.832  16
   4  -6  22 5543.16 479.181  12
   4   6  22 5266.24 669.091  16
   4  -6  22 7031.90 634.282   8
   4  -6  22 5718.08 552.008  13
   4  -6  23 6337.95 503.276  12
   4   6  23 7500.07 760.705  16
   4  -6  23 7776.99 631.435   8
   4  -6  23 6147.82 559.230  13
   4  -6  24 1353.70 270.792   8
   4  -6  24 614.802 203.515  13
   4  -6  24 561.006 161.983  12
   4   6  24 716.622 290.574  16
   4  -6  25 3442.59 349.129  12
   4   6  25 3779.50 593.073  16
   4  -6  25 3975.32 420.700   8
   4  -6  25 3746.73 409.900  13
   4  -6  26 4777.44 394.088  12
   4   6  26 5193.13 605.131  16
   4  -6  26 5989.63 475.206   8
   4  -6  26 4710.81 437.484  13
   4  -6  27 852.359 180.855   8
   4  -6  27 969.918 203.733  13
   4  -6  27 754.441 167.218  12
   4   6  27 1199.46 299.747  16
   4   6  28 5023.16 588.908  16
   4  -6  28 4480.39 396.784  13
   4  -6  29 298.150 112.978  13
   4   6  29 551.664 221.611  16
   4  -7 -26 1050.89 286.096  13
   4  -7 -26 1037.50 252.207  15
   4  -7 -25 4389.06 563.253  13
  -4  -7  25 5876.02 419.620  10
   4  -7 -25 5231.03 542.803  15
  -4  -7  25 6229.85 459.143   8
   4  -7 -24 879.212 284.278  13
  -4  -7  24 1069.17 210.343  10
   4  -7 -24 1163.39 279.115  15
   4  -7 -24 826.892 215.726  14
   4  -7 -23 14986.4 965.121  15
  -4  -7  23 14816.3 738.806  10
   4  -7 -23 13998.3 962.985  13
   4  -7 -22 3467.18 531.104  13
   4  -7 -22 3207.54 416.257  10
  -4  -7  22 2948.04 353.378  10
   4  -7 -22 3424.94 516.236  15
   4  -7 -21 1022.61 356.038  13
   4  -7 -21 1603.71 326.718  10
  -4  -7  21 1308.84 257.801  10
   4  -7 -21 960.951 265.251  15
   4  -7 -20 4981.08 541.781  10
  -4  -7  20 4440.68 486.286  10
   4  -7 -20 5080.06 630.947  15
   4  -7 -20 5425.42 646.343  13
   4  -7 -19 4571.44 519.532  10
  -4  -7  19 3726.80 446.471  10
   4  -7 -19 3031.17 494.058  15
   4  -7 -19 4123.70 557.110  13
   4  -7 -18 8269.12 715.523  10
  -4  -7  18 8337.16 672.266  10
   4  -7 -18 7598.04 597.028   9
   4  -7 -18 7929.51 738.642  13
   4  -7 -17 2235.58 425.928  13
   4   7 -17 2273.07 342.759  11
   4  -7 -17 2554.19 418.322  10
  -4  -7  17 2327.15 377.295  10
   4  -7 -17 2450.51 380.301   9
   4  -7 -16 1508.30 363.314  13
   4   7 -16 1379.70 318.377  11
   4  -7 -16 1699.13 358.346  10
  -4  -7  16 1372.71 310.263  10
   4  -7 -16 1363.40 283.090   9
   4   7 -15 8604.44 728.206  11
   4  -7 -15 8695.48 689.156   9
   4  -7 -15 9464.96 785.591  10
  -4  -7  15 9513.26 741.201  10
   4  -7 -15 9956.72 809.123  13
   4  -7 -14 2636.14 450.421  13
   4  -7 -14 2339.42 433.610  10
   4   7 -14 2165.28 385.918  11
  -4  -7  14 2056.41 363.198  10
   4  -7 -14 2070.04 368.018   9
   4  -7 -13 9207.34 763.223   9
   4  -7 -13 8565.01 751.378  10
  -4  -7  13 8914.36 762.343  10
   4  -7 -13 9707.97 782.447  13
   4  -7 -12 471.043 311.118  13
   4  -7 -12 196.402 196.149  10
  -4  -7  12-23.6265 174.269  10
   4  -7 -12 34.4636 178.366   9
   4  -7 -11 2126.15 435.965  13
   4  -7 -11 2263.86 392.908  10
  -4  -7  11 2776.19 452.079  10
   4  -7 -11 2167.67 407.914   9
   4  -7 -10 534.920 304.122  13
   4  -7 -10 32.7919 193.806  10
  -4  -7  10 205.812 268.816  10
   4  -7 -10 338.277 225.966   9
   4  -7  -9 5647.22 618.298  10
  -4  -7   9 6129.14 643.425  10
   4  -7  -9 6583.06 688.143   9
   4  -7  -9 5454.06 594.451  13
  -4  -7   8 931.506 366.292  10
   4  -7  -8 298.095 270.629   9
   4  -7  -7 10935.4 874.901  10
  -4  -7   7 13259.2 947.659  10
   4  -7  -7 12433.3 944.070   9
   4  -7  -7 11827.7 869.780  13
   4  -7  -6 5058.30 600.866  10
  -4  -7   6 6276.45 685.798  10
   4  -7  -6 5482.78 666.627   9
   4  -7  -5 8214.48 748.147  10
  -4  -7   5 9956.38 845.511  10
   4  -7  -5 10162.5 864.456   9
   4  -7  -4 11033.3 856.387  10
  -4  -7   4 13600.6 957.162  10
   4   7  -4 15925.6 1107.57  16
   4  -7  -4 13884.9 1010.00   9
   4  -7  -4 16792.8 1046.41  13
   4  -7  -3 6762.82 656.924  10
  -4  -7   3 9023.66 800.232  10
   4   7  -3 18297.1 1310.75  16
   4  -7  -3 8613.54 819.070   9
   4  -7  -2 13327.4 903.266  10
  -4  -7   2 14631.3 988.224  10
   4   7  -2 16417.9 1154.32  16
   4  -7  -2 14887.6 1054.95   9
   4  -7  -2 16055.9 1008.19  13
   4  -7  -1 1244.64 323.395  10
  -4  -7   1 470.815 273.351  10
   4  -7  -1 1915.17 484.760   9
   4   7   0 5463.64 560.159   7
   4  -7   0 5043.16 537.906  10
  -4  -7   0 5677.30 613.073  10
   4   7   0 7616.21 762.056  16
   4  -7   0 5334.36 653.868   9
   4  -7   0 4724.52 517.515   8
   4  -7   0 7446.16 708.591  13
   4  -7   1 3020.16 431.662   8
   4   7   1 4320.93 514.061   7
   4  -7   1 3088.63 428.486  10
   4   7   1 4343.58 668.522  16
  -4  -7  -1 3435.83 507.710  10
   4  -7   1 4284.83 613.864   9
   4   7   2 6434.14 617.407   7
  -4  -7  -2 6620.73 685.333  10
   4   7   2 10739.2 928.169  16
   4  -7   2 5559.54 581.057   8
   4  -7   2 5881.51 682.880   9
   4  -7   2 9723.63 850.515  13
   4   7   3 10735.5 779.695   7
  -4  -7  -3 9491.49 771.441  10
   4  -7   3 8486.26 775.454   9
   4  -7   3 8441.94 709.245   8
   4   7   4 18528.6 968.311   7
  -4  -7  -4 19250.2 1069.01  10
   4   7   4 21176.9 1286.84  16
   4  -7   4 19097.4 1135.24   9
   4  -7   4 17417.7 1004.49   8
   4  -7   4 20983.9 1128.35  13
   4   7   5 4774.85 492.235   7
   4   7   5 4212.73 621.902  11
  -4  -7  -5 4646.98 525.053  10
   4   7   5 5967.44 685.708  16
   4  -7   5 6416.56 681.879   9
   4  -7   5 5133.64 559.006   8
   4  -7   6 600.738 247.733   8
   4   7   6 209.981 277.978  11
   4   7   6 583.530 215.324   7
  -4  -7  -6 615.275 209.997  10
   4   7   6 360.913 283.049  16
   4  -7   6 307.560 221.416   9
   4  -7   7 3224.40 485.155   8
   4  -7   7 3087.02 440.891  13
   4   7   7 3441.83 405.256   7
   4   7   7 2793.14 483.292  11
  -4  -7  -7 2919.70 398.764  10
   4   7   7 3544.27 550.825  16
   4  -7   7 3225.03 478.790   9
   4  -7   8 448.724 236.014   8
   4   7   8 976.724 349.693  11
   4   7   8 1202.40 318.985   7
   4  -7   8 731.834 260.711   9
   4   7   9 21453.0 1193.52  11
   4   7   9 24907.7 1333.71  16
   4  -7   9 24380.0 1170.53   9
   4  -7   9 22023.7 1136.15   8
   4  -7   9 23096.7 1136.88  13
   4   7  10 5044.18 571.580  11
   4   7  10 5089.71 663.462  16
   4  -7  10 5508.39 559.051   9
   4  -7  10 5460.12 591.361   8
   4  -7  10 7330.51 715.618  13
   4   7  11 10551.0 784.229  11
   4   7  11 12046.7 940.206  16
   4  -7  11 11764.9 773.583   9
   4  -7  11 11126.9 812.355   8
   4  -7  11 11861.7 795.034  13
   4  -7  12 953.395 287.158   8
   4  -7  12 1338.34 322.602  13
   4   7  12 703.725 242.506  11
   4   7  12 873.557 290.862  16
   4  -7  12 1175.51 260.572   9
   4  -7  13 953.911 292.624   8
   4  -7  13 995.664 262.768  13
   4   7  13 512.751 173.336  11
   4   7  13 1465.48 384.412  16
   4  -7  14 913.148 257.161   8
   4  -7  14 450.356 200.793  13
   4   7  14 514.982 254.512  16
   4   7  15 4183.53 555.145  16
   4  -7  15 3553.60 477.615   8
   4  -7  15 3085.80 396.182  13
   4  -7  16 48.5579 161.461   8
   4  -7  16 397.511 186.924  13
   4   7  16 519.252 245.737  16
   4   7  17 7174.70 704.428  16
   4  -7  17 6431.37 520.202  13
   4   7  18 6379.80 621.156  16
   4  -7  18 6543.78 551.192   8
   4  -7  18 5240.97 459.449  13
   4   7  19 5544.88 578.564  16
   4  -7  19 6394.56 526.389   8
   4   7  20 3222.66 442.062  16
   4  -7  20 3259.13 359.580   8
   4  -7  20 2804.60 334.561  13
   4   7  21 6457.63 587.314  16
   4  -7  21 6355.43 485.530   8
   4   7  22 7213.63 600.002  16
   4  -7  22 7596.80 494.114   8
   4  -7  22 6082.53 422.013  13
   4  -7  23 149.939 101.490  13
   4   7  23 366.972 175.168  16
   4  -8 -15 7977.10 501.087  10
  -4  -8  15 7830.45 498.814  10
   4  -8 -15 8802.58 619.369  13
  -4  -8  15 7709.61 514.560   8
   4  -8 -14 923.792 260.236  13
   4  -8 -14-196.144 139.303  10
  -4  -8  14 153.650 132.003  10
   4   8 -14 923.882 216.980  16
   4  -8 -13 19669.3 817.152  10
  -4  -8  13 19859.0 822.372  10
   4   8 -12 9060.65 568.261  11
  -4  -8  12 10006.1 605.633  10
   4   8 -12 11222.7 655.000  16
   4  -8 -12 10063.5 583.214   9
   4  -8 -12 9781.26 592.452  10
   4   8 -11 16261.0 710.292   7
   4   8 -11 17908.0 828.970  11
   4  -8 -11 17222.4 794.317  10
  -4  -8  11 18667.0 829.707  10
   4   8 -11 19291.2 870.311  16
   4  -8 -11 18825.8 823.286   9
   4  -8 -11 14897.3 792.924  15
   4   8 -10 4235.15 386.882   7
   4   8 -10 4012.40 421.945  11
   4  -8 -10 3979.08 396.101  10
  -4  -8  10 4510.66 422.447  10
   4   8 -10 6703.44 617.971  16
   4  -8 -10 5458.39 470.383   9
   4  -8 -10 3781.59 423.139  15
   4  -8 -10 7576.81 607.969  13
   4   8  -9 3214.00 320.082   7
   4   8  -9 3021.29 381.389  11
   4  -8  -9 3139.34 343.188  10
  -4  -8   9 3041.29 360.238  10
   4   8  -9 4286.89 441.169  16
   4  -8  -9 3797.98 409.528   9
   4  -8  -9 2525.46 337.980  15
   4  -8  -9 4801.93 505.698  13
   4  -8  -8 1467.57 309.309  13
   4   8  -8-61.9695 127.766  11
   4   8  -8 24.8120 115.400   7
   4  -8  -8-35.8049 115.803  10
  -4  -8   8-132.486 155.494  10
   4   8  -8 1251.92 293.212  16
   4  -8  -8-97.8931 190.982   9
   4  -8  -7 2816.31 364.840  13
   4   8  -7 2265.27 352.843  11
   4   8  -7 2212.80 276.407   7
   4  -8  -7 2033.19 295.434  10
  -4  -8   7 2408.79 329.901  10
   4   8  -7 2647.18 348.639  16
   4  -8  -7 2394.49 349.385   9
   4  -8  -6 1088.23 291.956  13
   4   8  -6 108.819 155.657  11
   4   8  -6 96.1233 115.336   7
   4  -8  -6 32.2554 131.957  10
  -4  -8   6 213.089 179.350  10
   4   8  -6 934.934 318.629  16
   4  -8  -6 418.277 204.729   9
   4  -8  -5 82.0253 124.374  13
   4   8  -5 235.672 204.465  11
   4   8  -5 374.071 168.727   7
   4  -8  -5 422.836 169.596  10
  -4  -8   5 119.713 127.747  10
   4   8  -5 487.712 185.584  16
   4  -8  -5-131.830 195.679   9
   4  -8  -4 387.474 174.416  13
   4   8  -4 92.2314 168.793  11
   4   8  -4-98.2865 101.586   7
   4  -8  -4 172.700 119.500  10
  -4  -8   4 75.4369 127.049  10
   4   8  -4 251.653 187.955  16
   4  -8  -4 213.180 152.225   9
   4  -8  -3 971.759 218.685  13
   4   8  -3 910.498 268.779  11
   4   8  -3 883.437 179.502   7
   4  -8  -3 838.161 178.139  10
  -4  -8   3 1179.98 249.573  10
   4   8  -3 692.530 196.284  16
   4  -8  -3 804.373 205.467   9
   4   8  -2 253.591 185.877  11
   4   8  -2 501.067 167.121   7
  -4  -8   2 484.809 202.941  10
   4  -8  -2 203.608 202.466   9
   4   8  -1 2714.60 290.003   7
   4   8  -1 2609.32 404.595  11
  -4  -8   1 2661.94 345.516  10
   4   8  -1 2792.61 373.583  16
   4  -8  -1 3032.81 388.949   9
   4  -8  -1 3137.59 358.343  13
   4   8   0 135.256 145.410  11
  -4  -8   0 190.650 112.906  10
   4  -8   0 478.926 231.703   9
   4  -8   1 2283.63 321.695  13
   4   8   1 1038.02 270.095  11
   4   8   1 2390.36 374.018  16
  -4  -8  -1 1178.86 230.471  10
   4  -8   1 1401.39 291.123   9
   4   8   2 1673.90 329.188  11
   4  -8   2 1654.76 300.152   9
  -4  -8  -3 15763.2 733.272  10
   4  -8   3 16283.7 816.296   9
   4   8   3 16967.4 876.256  16
   4  -8   3 15802.3 768.646  13
   4   8   4 418.416 198.817  11
  -4  -8  -4 483.020 159.344  10
   4  -8   4 856.153 250.777   9
   4  -8   5 11021.6 649.655   9
   4  -8   5 11966.0 646.144  13
   4  -8   6 1004.48 182.506   8
   4   8   6 1446.35 275.088  11
   4   8   7 8216.04 560.727  11
   4   8   7 12500.8 726.636  16
   4  -8   7 10607.4 591.391   9
   4  -8   7 9466.18 535.792   8
   4  -8   7 11469.1 620.554  13
   4  -8   8 227.465 101.472   8
   4   8   8 721.545 197.350  11
   4  -8   8 685.925 169.470   9
   4  -8   9 5930.08 417.357   8
   4  -8   9 7441.93 491.313  13
   4   8  10 3213.88 387.418  16
   4  -8  10 2548.43 302.520  13
   4   8  11 3690.50 399.200  16
   4  -8  11 2696.49 288.807  13
   4   8  12 3200.43 351.075  16
   4  -8  12 2036.20 244.019  13
   5   0 -45 45100.0 1417.42  14
   5   0 -44 137.818 184.410  14
   5   0 -43 4895.83 536.512  14
   5   0 -42-151.993 176.017  14
   5   0 -41 4504.33 562.155  14
   5   0 -40-58.7824 196.611  14
   5   0 -39 573.843 271.634  14
   5   0 -38-82.4306 226.171  14
   5   0 -37 13441.9 1092.42  14
   5   0 -36 62.8663 219.356  14
   5   0 -35 7982.56 813.854  15
   5   0 -35 8648.64 928.796  14
   5   0 -34-158.172 236.026  15
   5   0 -34-62.4240 209.052  14
   5   0 -33 11301.5 1000.78  15
   5   0 -33 11123.3 1047.85  14
   5   0 -32-69.2381 237.115  15
   5   0 -32-70.7099 211.450  14
   5   0 -31 41406.9 1983.39  15
   5   0 -31 40774.3 1972.07  14
   5   0 -30-31.5025 294.617  15
   5   0 -30-372.756 281.519  14
   5   0 -29 46398.1 2139.74  15
   5   0 -29 46146.2 2089.92  14
   5   0 -28 14.3053 197.818  15
   5   0 -28 121.262 212.805  14
  -5   0  27 35076.6 3058.79   3
   5   0 -27 32897.4 1792.02  15
   5   0 -27 32636.0 1726.38  14
   5   0 -27 34885.7 3114.85   5
  -5   0  26-220.048 450.358   3
   5   0 -26-225.416 247.655  15
   5   0 -26 78.2838 225.947  14
   5   0 -26-319.178 505.920   5
  -5   0  25 5769.38 1166.99   3
   5   0 -25 4997.08 737.500  15
   5   0 -25 5536.58 705.492  14
   5   0 -25 5339.12 1316.83   5
  -5   0  24 97.8758 408.871   3
   5   0 -24-83.9120 191.845  15
   5   0 -24-71.3959 174.407  14
   5   0 -24-356.922 536.799   5
  -5   0  23 346.241 513.166   3
   5   0 -23 474.793 297.576  15
   5   0 -23 198.451 242.826  14
   5   0 -23 636.260 456.239   5
  -5   0  22 255.222 332.857   3
   5   0 -22 166.856 188.218  15
   5   0 -22 178.111 202.565  14
   5   0 -22 52.0707 362.605   5
   5   0 -21 3751.22 534.900  14
  -5   0  21 3481.43 927.533   3
   5   0 -21 4738.94 667.518  15
   5   0 -21 3657.01 923.976   5
  -5   0  20-340.945 423.103   3
   5   0 -20 148.372 205.849  15
   5   0 -20 634.303 607.523   5
  -5   0  19 16844.9 1803.11   3
   5   0 -19 18980.5 1286.63  15
   5   0 -19 16277.0 1919.13   5
  -5   0  18 193.888 425.033   3
   5   0 -18 242.988 464.256   5
  -5   0  17 2798.10 794.868   3
   5   0 -17 1357.37 564.383   5
  -5   0  16-212.622 274.173   3
   5   0 -16-127.078 396.284   5
  -5   0  15 36005.3 2397.28   3
   5   0 -15 36429.1 2680.76   5
  -5   0  14-176.713 432.944   3
   5   0 -14-2.85977 353.957   5
  -5   0  13 21721.1 1746.68   3
   5   0 -13 21935.7 2043.28   5
  -5   0  12-70.8745 285.293   3
   5   0 -12 120.266 291.221   5
   5   0 -11 39102.6 2607.09   5
  -5   0  11 36371.3 2120.58   3
  -5   0  10-10.3555 245.914   3
   5   0 -10-180.117 412.005   5
  -5   0   9 4141.47 675.935   3
   5   0  -9 4577.75 939.980   5
  -5   0   8 74.1510 185.049   3
   5   0  -8 30.1592 346.158   5
   5   0  -7 3300.86 694.310   6
  -5   0   7 3218.23 593.098   3
   5   0  -7 3263.75 744.305   5
   5   0  -6 209.415 366.738   6
   5   0  -6-193.649 266.404   5
   5   0  -5 10482.3 1171.90   6
   5   0  -5 11665.9 1326.81   5
   5   0  -4-55.7324 327.751   6
   5   0  -4-267.438 279.703   5
   5   0  -3 8839.15 1040.35   6
   5   0  -3 9530.45 1195.03   5
   5   0  -2-68.2758 262.592   6
   5   0  -2 190.371 351.306   5
  -5   0   1 2012.29 498.534  18
   5   0  -1 3680.81 682.224   6
   5   0  -1 3279.83 711.115   5
  -5   0   0-211.583 267.491  18
   5   0   0-22.5938 297.039   6
   5   0   0 5.31097 264.359   5
  -5   0  -1 2492.74 605.039  18
   5   0   1 2711.04 618.872   6
   5   0   1 2546.05 682.823   5
  -5   0  -2 437.523 328.360  18
   5   0   2 91.3088 300.410   6
   5   0   2 15.3777 346.323   5
  -5   0  -3 1744.34 550.192  18
   5   0   3 2737.29 596.772   6
  -5   0  -4 664.660 474.278  18
   5   0   4 209.074 343.506   6
   5   0   5 763.873 439.452   6
  -5   0  -5 943.469 477.517  18
  -5   0  -6-103.153 414.373  18
   5   0   6-183.160 274.515   6
  -5   0  -7 2384.38 678.902  18
   5   0   7 3736.14 707.958   6
   5   0   8-414.695 362.818   6
  -5   0  -8 253.436 344.327  18
  -5   0  -9 1296.38 464.765  18
   5   0   9 2020.58 584.247   6
  -5   0 -10-61.4073 352.336  18
   5   0  10 413.422 313.091   6
   5   0  11 27818.5 2166.37   6
  -5   0 -11 26215.3 2485.76  18
  -5   0 -12-30.5680 354.443  18
   5   0  12 128.755 300.014   6
  -5   0 -13 5491.19 1297.32  18
   5   0  13 3126.54 800.844   6
  -5   0 -14-157.237 365.077  18
   5   0  14 432.313 468.720   6
   5   0  15 146.890 147.648   7
  -5   0 -15 386.844 463.855  18
   5   0  15-79.7813 340.198   6
   5   0  16-359.364 184.674   7
  -5   0 -16-303.461 453.206  18
   5   0  16 305.855 267.895   6
   5   0  17 607.621 199.653  12
   5   0  17 754.194 288.317   7
  -5   0 -17-51.7545 382.095  18
   5   0  17 897.010 489.596   6
   5   0  18 90.9719 194.719  12
   5   0  18 334.130 249.993   7
  -5   0 -18 113.289 444.101  18
   5   0  18 479.785 392.384   6
   5   0  19 353.923 216.247  12
   5   0  19 408.037 258.141   7
  -5   0 -19 64.2154 592.862  18
   5   0  19 806.074 551.689   6
   5   0  20-145.517 194.119  12
   5   0  20-447.965 266.839   7
  -5   0 -20 81.6988 363.991  18
   5   0  20 311.389 477.431   6
   5   0  21-76.5000 201.574  12
   5   0  21-215.864 160.891   7
  -5   0 -21 316.769 492.148  18
   5   0  21 309.233 393.809   6
   5   0  22-70.7506 161.667  12
   5   0  22-4.94650 230.127   7
  -5   0 -22 875.405 825.632  18
   5   0  22 114.999 300.531   6
   5   0  23 3269.06 464.379  12
   5   0  23 3601.05 544.874   7
  -5   0 -23 3931.82 1197.86  18
   5   0  23 3252.67 1051.97   6
   5   0  24-94.3064 152.939  12
   5   0  24 509.103 296.422   7
   5   0  25 3068.93 531.870   7
   5   0  26-79.9660 247.454   7
   5   0  27 29197.5 1512.04   7
   5   0  28 62.9187 192.420   7
   5   0  28-317.853 272.331  16
   5   0  29 5364.57 639.118   7
   5   0  29 5588.00 802.773  16
   5   0  30 72.0791 194.517   7
   5   0  30 313.664 277.091  16
   5   0  31 23931.0 1302.10   7
   5   0  31 21049.0 1488.15  16
   5   0  32-137.510 175.271   7
   5   0  32 585.418 325.838  16
   5   0  33-387.860 231.175   7
   5   0  33 185.798 248.135  16
   5   0  34-160.689 184.853   7
   5   0  34-84.4675 267.250  16
   5   0  35 7669.88 669.638   7
   5   0  35 7996.12 810.241  16
   5   0  36 76.5954 144.373   7
   5   0  36-197.861 242.873  16
   5   0  37 150.281 147.373   7
   5   0  38-46.0938 153.487   7
   5   0  39 10905.9 603.512   7
   5   0  40-151.406 127.601   7
   5   1 -45 5491.85 513.264  14
   5   1 -44 575.605 258.531  14
   5  -1 -44 472.084 211.429  14
   5   1 -43 1303.76 317.375  14
   5  -1 -43 1097.07 257.345  14
   5   1 -42 8342.25 761.343  14
   5  -1 -42 7930.78 676.965  14
   5   1 -41 7019.93 723.901  14
   5  -1 -41 6218.09 653.871  14
   5   1 -40 14324.7 1059.64  14
   5  -1 -40 13281.7 967.320  14
   5  -1 -39 2122.47 432.691  14
   5   1 -39 2227.94 444.294  14
   5   1 -38 1325.64 368.575  14
   5  -1 -38 1096.08 347.906  14
   5  -1 -37 1555.44 379.335  15
   5   1 -37 1635.31 457.722  14
   5  -1 -37 1542.02 406.401  14
   5  -1 -36 4791.07 604.993  15
   5   1 -36 5539.09 731.294  14
   5  -1 -36 5106.49 665.735  14
   5  -1 -35 1800.65 394.977  15
   5   1 -35 1951.37 448.529  14
   5  -1 -35 2508.46 519.712  14
   5   1 -34 11975.7 967.804  15
   5  -1 -34 12222.6 1029.60  15
   5   1 -34 13281.5 1140.56  14
   5  -1 -34 13324.3 1117.47  14
   5   1 -33 457.242 259.480  15
   5  -1 -33 572.416 360.378  15
   5   1 -33 222.911 270.037  14
   5  -1 -33-71.7261 239.703  14
   5   1 -32 464.765 257.692  15
   5  -1 -32-27.5420 214.689  15
   5   1 -32 124.303 257.347  14
   5  -1 -32-169.134 233.833  14
   5   1 -31 413.414 239.045  15
   5  -1 -31 133.856 200.564  15
   5   1 -31 409.063 308.435  14
   5  -1 -31 206.647 250.252  14
   5   1 -30 6576.46 819.800  15
   5  -1 -30 6222.55 820.122  15
   5   1 -30 7011.77 859.457  14
   5  -1 -30 7229.26 841.379  14
   5   1 -29 3182.71 557.601  15
   5  -1 -29 3410.08 618.810  15
   5   1 -29 3580.20 623.437  14
   5  -1 -29 3049.60 540.967  14
   5   1 -28-193.335 247.639  15
   5  -1 -28 438.651 328.201  15
   5   1 -28 26.4921 252.883  14
   5  -1 -28 436.076 284.517  14
  -5   1  27-892.266 520.220   3
   5   1 -27-161.641 245.286  15
   5  -1 -27 301.642 317.290  15
   5   1 -27 186.945 263.931  14
   5  -1 -27-292.627 245.421  14
   5   1 -27-160.661 575.846   5
  -5  -1  26-321.755 569.194   3
  -5   1  26 236.353 454.316   3
   5   1 -26 198.144 209.227  15
   5  -1 -26 425.127 326.032  15
   5   1 -26 421.064 303.329  14
   5  -1 -26-34.9519 209.494  14
   5   1 -26-231.629 419.309   5
   5  -1 -26 96.8722 447.222   5
  -5  -1  25 911.451 612.897   3
  -5   1  25 253.728 363.136   3
   5   1 -25 338.671 274.820  15
   5  -1 -25 499.734 334.785  15
   5   1 -25 400.907 184.246  14
   5  -1 -25 163.782 169.980  14
   5   1 -25 1205.07 714.746   5
   5  -1 -25 184.672 433.952   5
  -5  -1  24 2595.67 858.290   3
  -5   1  24 2729.55 878.762   3
   5   1 -24 2549.93 519.867  15
   5  -1 -24 2657.63 540.457  15
   5   1 -24 2985.22 544.922  14
   5  -1 -24 1888.80 450.195  14
   5   1 -24 3171.14 941.649   5
   5  -1 -24 3408.62 1076.42   5
  -5  -1  23 2279.79 745.535   3
  -5   1  23 2247.34 797.356   3
   5   1 -23 2171.74 477.042  15
   5  -1 -23 2527.20 549.413  15
   5   1 -23 2243.21 458.775  14
   5  -1 -23 1924.13 427.234  14
   5   1 -23 1410.11 614.208   5
   5  -1 -23 1686.34 624.622   5
  -5  -1  22 8610.67 1469.81   3
  -5   1  22 8442.03 1374.71   3
   5   1 -22 10861.8 1015.55  15
   5  -1 -22 10798.9 1037.63  15
   5   1 -22 9005.12 1511.15   5
   5   1 -22 9037.39 887.679  14
   5  -1 -22 9532.03 872.094  14
   5  -1 -22 8089.38 1515.03   5
  -5   1  21 6107.08 1183.66   3
  -5  -1  21 7839.63 1347.07   3
   5   1 -21 7163.78 646.886   9
   5   1 -21 8219.50 883.696  15
   5  -1 -21 7949.51 873.408  15
   5   1 -21 7085.21 757.644  14
   5  -1 -21 7256.72 753.020  14
   5   1 -21 6123.06 1257.25   5
   5  -1 -21 6337.41 1343.71   5
  -5  -1  20 4049.47 1058.22   3
  -5   1  20 3957.42 878.635   3
   5   1 -20 3864.83 485.854   9
   5   1 -20 4171.92 623.161  15
   5  -1 -20 4395.26 664.585  15
   5   1 -20 3733.76 556.484  14
   5   1 -20 4742.16 1082.85   5
   5  -1 -20 5464.64 1234.70   5
  -5   1  19 6531.26 1139.50   3
  -5  -1  19 7287.43 1237.17   3
   5   1 -19 8625.66 897.508  15
   5  -1 -19 8741.73 903.369  15
   5   1 -19 7054.75 1282.10   5
   5  -1 -19 7045.89 1348.20   5
  -5  -1  18 3261.02 844.047   3
  -5   1  18 2231.37 624.066   3
   5   1 -18 3237.49 513.591  15
   5  -1 -18 3266.15 564.257  15
   5   1 -18 2839.72 776.356   5
   5  -1 -18 3111.89 899.310   5
  -5  -1  17 17180.1 1820.00   3
   5   1 -17 14903.9 1767.88   5
   5  -1 -17 15006.8 1893.67   5
  -5  -1  16 27.1855 339.666   3
   5   1 -16 446.289 487.694   5
   5  -1 -16 110.054 297.513   5
  -5  -1  15 4097.68 837.953   3
   5   1 -15 4182.07 934.603   5
   5  -1 -15 4947.94 1035.80   5
  -5  -1  14 3895.90 830.803   3
   5   1 -14 2856.14 754.568   5
   5  -1 -14 2817.85 665.704   5
  -5  -1  13 67.7008 322.159   3
   5   1 -13 326.185 376.104   5
   5  -1 -13-72.3738 295.460   5
  -5  -1  12 7998.55 1104.09   3
   5   1 -12 7996.70 1267.84   5
   5  -1 -12 7043.52 1166.01   5
  -5  -1  11 22829.8 1822.64   3
  -5  -1  11 22285.2 1589.08   1
   5   1 -11 24088.3 2079.34   5
   5  -1 -11 23453.6 2059.86   5
   5  -1 -10 11006.2 1378.13   5
  -5  -1  10 12610.9 1331.35   3
  -5  -1  10 12165.5 1147.31   1
   5   1 -10 13621.6 1561.81   5
  -5  -1   9 13086.7 1330.65   3
  -5  -1   9 13672.8 1206.91   1
   5   1  -9 14449.6 1565.27   5
   5  -1  -9 14165.0 1568.75   5
  -5  -1   8 55930.9 2394.73   1
  -5  -1   8 55666.9 2645.08   3
   5   1  -8 58151.8 2806.24   2
   5  -1  -8 53334.6 2818.16   6
   5   1  -8 56356.1 3026.92   5
   5  -1  -8 55610.7 2969.85   5
  -5  -1   7 8527.50 943.271   1
  -5  -1   7 8932.61 1046.62   3
   5   1  -7 9759.51 1209.63   2
   5  -1  -7 9763.51 1350.34   6
   5   1  -7 8810.42 1255.17   5
   5  -1  -7 8734.63 1214.92   5
  -5  -1   6 61866.4 2487.65   1
   5   1  -6 63006.5 2952.63   2
  -5  -1   6 70679.4 2863.90   3
   5  -1  -6 65822.3 3103.93   6
   5   1  -6 68090.4 3284.25   5
   5  -1  -6 64803.2 3107.99   5
  -5  -1   5 9791.00 1007.65   1
   5   1  -5 10651.5 1317.96   5
   5   1  -5 9889.46 1292.94   2
   5  -1  -5 10135.3 1254.56   6
   5  -1  -5 10599.6 1305.13   5
  -5  -1   4 48882.0 2205.83   1
   5   1  -4 47184.5 2543.27   2
   5   1  -4 51142.4 2332.98   6
   5  -1  -4 52305.5 2699.87   6
   5   1  -4 56428.8 2950.48   5
   5  -1  -4 52305.1 2737.20   5
  -5  -1   3 1164.65 440.567   1
   5   1  -3 1054.43 826.244   6
   5  -1  -3 1895.51 1142.57   6
   5   1  -3 770.159 739.736   2
   5   1  -3 1686.90 1011.32   5
   5  -1  -3 1069.94 579.983   5
   5   1  -2 56216.4 2778.49   2
   5   1  -2 60900.2 2494.01   6
   5  -1  -2 61984.1 2956.04   6
   5   1  -2 63068.8 3141.33   5
   5  -1  -2 60577.2 2889.89   5
  -5  -1   2 62836.7 2541.12   1
  -5  -1   1 3713.60 684.850   1
   5   1  -1 3621.31 714.869   6
   5  -1  -1 4549.72 893.010   6
   5   1  -1 3713.36 776.011   2
   5   1  -1 3584.55 936.800   5
   5  -1  -1 3301.29 725.640   5
   5   1   0 12752.7 1260.37   2
   5   1   0 12846.2 1174.35   6
   5  -1   0 13262.1 1398.85   6
   5   1   0 14443.9 1550.08   5
   5  -1   0 12792.4 1324.14   5
  -5  -1   0 12171.0 1199.75   1
  -5  -1  -1 2017.17 466.794   1
  -5   1  -1 1486.97 563.604  18
   5   1   1 2441.30 559.437   6
   5   1   1 2259.64 577.462   2
   5  -1   1 1838.57 623.388   6
   5  -1   1 1209.15 451.064   5
  -5  -1  -2 1910.49 465.378   1
  -5   1  -2 2550.05 735.049  18
   5   1   2 2054.16 553.356   2
   5   1   2 2415.80 513.740   6
   5  -1   2 2053.04 566.039   5
   5  -1   2 1916.50 566.211   6
  -5   1  -3 55.8276 336.536  18
   5   1   3-141.028 170.283   2
   5   1   3 315.657 426.460   6
   5  -1   3-17.6516 429.962   6
   5  -1   3 425.451 387.430   5
   5   1   4 16437.3 1417.37   2
  -5   1  -4 11910.5 1517.18  18
  -5  -1  -4 10331.4 1200.45  18
   5   1   4 15597.5 1320.66   6
   5  -1   4 15174.8 1515.05   6
  -5   1  -5 686.435 378.387  18
   5   1   5 812.928 380.003   2
  -5  -1  -5 463.111 258.080  18
   5  -1   5 1069.70 540.143   6
   5   1   5 912.391 393.669   6
   5   1   6 14.3584 240.268   6
  -5   1  -6 649.866 515.588  18
  -5  -1  -6 2.82041 207.436  18
   5   1   6 46.4757 179.103   2
   5  -1   6-275.638 371.989   6
   5   1   7 343.862 242.595   6
  -5   1  -7 437.863 372.362  18
  -5  -1  -7-49.6293 285.162  18
   5   1   7 585.253 272.615   2
   5  -1   7 679.191 460.434   6
   5  -1   8 737.819 450.487   6
  -5   1  -8 217.017 388.711  18
  -5  -1  -8 287.045 282.181  18
   5   1   8 524.690 303.484   2
   5   1   8 131.670 227.517   6
  -5   1  -9 8667.16 1454.85  18
  -5  -1  -9 6642.53 1121.42  18
   5   1   9 8754.95 1073.43   6
   5  -1   9 7885.64 1233.96   6
   5   1   9 8922.36 1084.51   2
   5  -1  10 1483.84 681.646   6
  -5   1 -10 1593.27 656.673  18
  -5  -1 -10 1052.62 487.715  18
   5   1  10 1470.59 484.729   6
   5   1  10 1251.27 441.249   2
  -5   1 -11 715.502 555.346  18
  -5  -1 -11 876.573 530.292  18
   5   1  11 1033.75 401.621   2
   5   1  11 759.644 393.378   6
   5  -1  11 1105.47 620.008   6
  -5   1 -12 2401.30 902.832  18
  -5  -1 -12 2173.22 773.280  18
   5   1  12 2626.22 607.542   2
   5  -1  12 2288.93 666.341   6
   5   1  12 2927.91 676.204   6
  -5   1 -13 11528.4 1842.34  18
  -5  -1 -13 10828.9 1612.28  18
   5   1  13 12162.0 1425.85   6
   5  -1  13 12448.7 1638.73   6
   5   1  13 13509.9 1459.51   2
  -5   1 -14 147.735 529.253  18
   5   1  14 112.121 138.571   7
  -5  -1 -14 483.784 512.661  18
   5   1  14 198.560 221.934   2
   5   1  14 433.939 363.167   6
   5  -1  14 211.109 381.726   6
   5  -1  15 260.950 201.820  12
   5  -1  15 210.376 197.044   7
   5   1  15 382.039 204.125   7
  -5   1 -15 427.039 465.320  18
  -5  -1 -15 57.3657 312.940  18
   5   1  15 70.3891 282.378   2
   5   1  15 65.3560 291.689   6
   5  -1  15-7.47730 320.391   6
   5  -1  16 2531.03 411.923   8
   5  -1  16 1878.87 353.501  12
   5  -1  16 2223.93 401.840   7
   5   1  16 1939.65 383.103   7
  -5   1 -16 1693.18 791.228  18
  -5  -1 -16 1322.81 692.780  18
   5   1  16 2532.90 754.518   2
   5  -1  16 2597.31 850.046   6
   5   1  16 2448.77 690.390   6
   5  -1  17 699.140 291.985  12
   5  -1  17 604.159 263.438   7
   5   1  17 714.525 299.972   7
  -5   1 -17 1340.31 738.743  18
  -5  -1 -17 618.419 513.830  18
   5   1  17 628.896 420.616   2
   5  -1  17 981.225 661.176   6
   5   1  17 660.242 407.462   6
   5  -1  17 637.747 247.455   8
   5  -1  18 8186.77 738.892  12
   5  -1  18 8246.49 756.807   7
   5   1  18 8928.39 789.442   7
  -5   1 -18 8255.19 1696.00  18
  -5  -1 -18 7085.12 1497.34  18
   5  -1  18 9931.03 1560.43   6
   5   1  18 9375.97 1370.88   6
   5  -1  18 8740.13 723.728   8
   5   1  18 10119.3 1427.73   2
   5  -1  19 8151.35 745.272  12
   5  -1  19 8146.71 764.861   7
   5   1  19 7911.69 743.995   7
  -5  -1 -19 8242.41 1681.32  18
  -5   1 -19 7720.91 1705.51  18
   5  -1  19 9014.36 1559.96   6
   5   1  19 7740.43 1279.55   6
   5  -1  19 8880.90 731.383   8
   5  -1  20 31734.5 1448.28  12
   5  -1  20 31186.3 1531.37   7
   5   1  20 31724.1 1489.82   7
  -5   1 -20 31495.4 3383.98  18
  -5  -1 -20 30192.8 3160.04  18
   5  -1  20 32991.1 2993.66   6
   5   1  20 31883.8 2634.08   6
   5  -1  21 3943.66 581.157   7
   5  -1  21 3663.17 507.643  12
   5   1  21 4264.56 542.197   7
  -5   1 -21 3666.97 1190.60  18
  -5  -1 -21 2455.69 872.225  18
   5  -1  21 4691.42 1257.59   6
   5   1  21 3623.36 958.038   6
   5  -1  22 11589.9 901.739  12
   5  -1  22 12300.5 973.235   7
   5   1  22 12740.2 972.715   7
  -5   1 -22 12660.2 2250.63  18
  -5  -1 -22 11721.4 2016.11  18
   5  -1  22 10238.3 1713.01   6
   5  -1  23 11233.1 872.548  12
   5  -1  23 11662.6 961.319   7
   5   1  23 11835.0 953.926   7
   5   1  23 11885.9 1097.56  16
   5  -1  24 16786.2 1099.42  12
   5  -1  24 17909.7 1177.62   7
   5   1  24 17707.8 1146.64   7
   5   1  24 17944.6 1371.52  16
   5  -1  25 33773.2 1525.91  12
   5  -1  25 37260.7 1705.59   7
   5   1  25 36460.9 1667.55   7
   5   1  25 35306.9 1920.17  16
   5  -1  26 15086.5 1019.42  12
   5  -1  26 15785.2 1133.29   7
   5   1  26 14732.5 1074.84   7
   5   1  26 14167.2 1265.37  16
   5  -1  27 2482.06 442.638  12
   5  -1  27 2370.03 459.175   7
   5   1  27 2150.97 407.972   7
   5   1  27 3129.05 600.960  16
   5  -1  28 10649.3 850.916  12
   5  -1  28 11951.6 972.609   7
   5   1  28 9975.15 898.965   7
   5   1  28 10854.0 1089.53  16
   5  -1  29 6324.57 651.941  12
   5  -1  29 5423.21 666.202   7
   5   1  29 6134.47 688.281   7
   5   1  29 6381.14 842.650  16
   5  -1  30 4245.17 536.370  12
   5   1  30 4487.91 570.852   7
   5  -1  30 4584.79 585.443   7
   5   1  30 5002.99 728.602  16
   5  -1  31 861.417 254.709  12
   5  -1  31 1079.45 289.044   7
   5   1  31 926.448 280.454   7
   5   1  31 992.333 376.974  16
   5  -1  32 1152.20 281.011  12
   5  -1  32 1040.38 335.390   7
   5   1  32 695.301 244.470   7
   5   1  32 399.488 271.005  16
   5  -1  33 11023.2 772.257  12
   5  -1  33 12457.6 901.136   7
   5   1  33 11469.8 836.317   7
   5   1  33 10585.0 1018.04  16
   5  -1  34 215.198 169.026  12
   5  -1  34-47.6928 192.531   7
   5   1  34 163.530 190.944   7
   5   1  34-240.588 310.068  16
   5  -1  35 5487.66 498.277  12
   5  -1  35 5525.78 583.426   7
   5   1  35 4954.71 516.080   7
   5   1  35 6160.56 732.519  16
   5  -1  36 2491.98 317.868  12
   5  -1  36 2884.20 397.909   7
   5   1  36 2766.51 370.209   7
   5   1  36 1835.06 406.674  16
   5  -1  37 16793.0 870.585   7
   5   1  37 16241.1 824.325   7
   5   1  37 14602.8 1026.65  16
   5  -1  38 3500.61 391.305   7
   5   1  38 3489.54 360.257   7
   5  -1  39 600.535 190.257   7
   5   1  39 447.545 121.375   7
   5   2 -44 952.908 228.675  14
   5   2 -43 83.8377 222.051  14
   5  -2 -43 228.278 169.064  14
   5   2 -42-184.882 191.611  14
   5  -2 -42 16.9238 144.036  14
   5   2 -41 23.3318 194.436  14
   5  -2 -41-197.831 168.172  14
   5   2 -40 238.845 228.307  14
   5  -2 -40-234.808 166.411  14
   5   2 -39-209.788 269.366  14
   5  -2 -39 160.665 194.341  14
   5  -2 -38 861.096 280.557  15
   5   2 -38 754.539 313.765  14
   5  -2 -38 927.550 332.218  14
   5  -2 -37 1699.96 326.875  15
   5   2 -37 2654.14 581.253  14
   5  -2 -37 1936.97 440.985  14
   5  -2 -36 1441.46 339.054  15
   5   2 -36 2137.56 462.623  14
   5  -2 -36 1672.17 395.134  14
   5  -2 -35 133.851 179.814  15
   5   2 -35 207.409 233.537  14
   5  -2 -35-89.2953 208.529  14
   5  -2 -34 2716.61 470.743  15
   5   2 -34 2858.27 528.296  14
   5  -2 -34 2788.08 521.769  14
   5  -2 -33 56.8550 208.537  15
   5   2 -33 361.515 282.200  14
   5  -2 -33 274.534 194.816  14
   5   2 -32 9625.97 873.944  15
   5  -2 -32 9269.13 963.608  15
   5   2 -32 10836.7 1099.65  14
   5  -2 -32 10293.1 963.064  14
   5   2 -31 2203.33 459.374  15
   5  -2 -31 2299.10 491.661  15
   5   2 -31 2865.82 571.877  14
   5  -2 -31 2260.55 465.006  14
   5   2 -30 5828.50 743.689  15
   5  -2 -30 6287.86 811.638  15
   5  -2 -30 5221.72 719.725  14
   5   2 -30 6026.83 792.931  14
   5   2 -29 7066.99 811.567  15
   5  -2 -29 6894.16 873.840  15
   5  -2 -29 6603.12 792.575  14
   5   2 -29 7150.55 883.710  14
   5  -2 -28 17504.3 1355.87  15
   5   2 -28 17839.8 1406.25  14
   5  -2 -28 15592.6 1210.59  14
   5   2 -28 16049.8 1218.00  15
   5   2 -27 11803.4 1044.16  15
   5  -2 -27 13933.0 1252.15  15
   5   2 -27 12038.2 1149.74  14
   5  -2 -27 11552.3 1044.23  14
   5   2 -26 33107.7 1793.87  15
   5  -2 -26 35028.9 1917.16  15
   5   2 -26 32804.3 1861.36  14
   5  -2 -26 31472.8 1697.78  14
  -5  -2  25 90.8622 542.059   3
   5   2 -25-218.654 256.508  15
   5  -2 -25-24.3247 220.337  15
   5   2 -25 884.248 455.933  14
   5  -2 -25-2.93104 191.137  14
   5  -2 -25 292.423 483.446   5
  -5  -2  24 67661.8 4264.68   3
   5   2 -24 73056.2 2635.88  15
   5   2 -24 64585.2 3926.09   5
   5  -2 -24 75087.5 2838.08  15
   5   2 -24 68123.3 2599.88  14
   5  -2 -24 67852.2 2443.56  14
   5  -2 -24 69074.2 4434.65   5
  -5  -2  23 8384.64 1502.50   3
   5   2 -23 9426.41 957.041  15
   5  -2 -23 9332.03 989.876  15
   5   2 -23 8598.76 926.750  14
   5  -2 -23 8721.82 876.511  14
   5  -2 -23 8829.87 1596.41   5
   5   2 -23 7989.11 1377.56   5
  -5  -2  22 30140.6 2775.42   3
   5   2 -22 32493.2 1785.39  15
   5  -2 -22 36447.1 1944.44  15
   5   2 -22 28189.9 2569.24   5
   5   2 -22 31491.4 1740.52  14
   5  -2 -22 30850.1 1621.33  14
   5  -2 -22 29425.4 2820.07   5
  -5  -2  21 2068.75 823.176   3
   5   2 -21 2400.96 503.887  15
   5  -2 -21 2023.33 379.647   9
   5  -2 -21 2862.38 572.301  15
   5   2 -21 2972.57 548.057  14
   5  -2 -21 1785.44 421.405  14
   5   2 -21 2358.11 735.521   5
   5  -2 -21 1748.81 665.644   5
  -5  -2  20 57871.8 3710.60   3
   5  -2 -20 56992.9 1942.98   9
   5   2 -20 58333.3 2345.15  15
   5  -2 -20 63812.6 2505.57  15
   5   2 -20 53715.4 3463.06   5
   5   2 -20 53912.9 2201.43  14
   5  -2 -20 51072.1 2024.16  14
   5  -2 -20 49790.3 3639.54   5
  -5  -2  19 4091.90 1006.89   3
   5  -2 -19 3542.87 509.725   9
   5  -2 -19 4550.78 713.089  15
   5   2 -19 4598.93 738.190   9
  -5  -2  19 3978.93 901.908   1
   5   2 -19 4162.49 620.081  15
   5   2 -19 4132.38 652.595  14
   5  -2 -19 2953.78 496.794  14
   5   2 -19 3568.67 907.611   5
   5  -2 -19 4341.85 1129.04   5
  -5  -2  18 34163.0 2725.05   3
  -5  -2  18 31187.4 2408.37   1
   5   2 -18 32788.5 1506.29   9
   5  -2 -18 31307.8 1451.12   9
   5  -2 -18 34774.6 1879.02  15
   5   2 -18 32780.9 1703.16  15
   5   2 -18 28984.0 2501.77   5
   5   2 -18 32841.1 1680.88  14
   5  -2 -18 30020.2 2727.73   5
  -5  -2  17 7327.46 1128.99   1
  -5  -2  17 6857.94 1201.49   3
   5  -2 -17 6949.95 697.600   9
   5   2 -17 8273.69 844.280  15
   5  -2 -17 8595.72 958.979  15
   5   2 -17 7863.60 871.321   9
   5   2 -17 7118.32 1242.89   5
   5  -2 -17 6827.01 1277.85   5
  -5  -2  16 2352.29 636.968   1
   5  -2 -16 2003.01 381.284  10
  -5  -2  16 2234.15 798.628   3
   5   2 -16 2338.43 575.855   9
   5   2 -16 2740.04 506.242  15
   5  -2 -16 2973.44 608.624  15
   5   2 -16 1953.48 672.873   5
   5  -2 -16 1680.74 696.614   5
  -5  -2  15 3575.26 801.542   1
  -5  -2  15 3325.71 857.330   3
   5   2 -15 3580.68 546.437  15
   5  -2 -15 3645.32 593.193  15
   5   2 -15 2573.88 802.381   5
   5  -2 -15 3376.22 927.476   5
  -5  -2  14 5596.61 995.876   1
  -5  -2  14 5245.61 1047.61   3
   5   2 -14 4537.33 992.201   5
   5  -2 -14 5099.66 1066.23   5
  -5  -2  13-35.4089 313.318   1
  -5  -2  13 194.970 253.315   3
   5   2 -13 52.7949 398.731   5
   5  -2 -13 108.352 410.348   5
  -5  -2  12 4385.60 891.125   3
   5   2 -12 3550.43 814.703   5
   5  -2 -12 4259.21 919.897   5
  -5  -2  12 4264.54 827.829   1
  -5  -2  11 192.775 322.305   3
   5   2 -11-189.413 282.546   2
   5   2 -11-37.5297 293.867   5
  -5  -2  11 390.327 448.551   1
   5  -2 -11 483.728 379.457   5
  -5  -2  10-194.892 309.681   3
   5   2 -10-316.937 303.845   2
  -5  -2  10 173.270 362.407   1
   5   2 -10-532.785 411.004   5
   5  -2 -10 36.2223 280.100   5
  -5  -2   9 21596.3 1780.74   1
   5   2  -9 21103.6 2014.22   2
   5   2  -9 23664.0 2040.62   5
   5  -2  -9 20764.8 1920.20   5
   5  -2  -8 5090.25 989.793   6
  -5  -2   8 5341.28 890.311   1
   5   2  -8 5502.98 1084.90   2
   5   2  -8 4748.25 969.922   5
   5  -2  -8 4625.19 855.835   5
  -5  -2   7 4078.07 774.934   1
   5  -2  -7 3771.13 853.084   6
   5   2  -7 3297.84 849.538   2
   5   2  -7 3753.84 879.070   5
   5  -2  -7 3451.88 793.908   5
  -5  -2   6 7926.69 1042.06   1
   5  -2  -6 8080.25 1185.69   6
   5   2  -6 6470.83 1139.51   2
   5   2  -6 8291.51 1227.46   5
   5  -2  -6 7754.13 1088.53   5
  -5  -2   5 4983.15 848.181   1
   5  -2  -5 4770.85 1101.04   6
   5   2  -5 5016.79 1008.19   2
   5   2  -5 5758.47 1217.69   5
   5  -2  -5 4512.77 832.616   5
  -5  -2   4 25237.0 1858.08   1
   5   2  -4 22434.6 2026.47   2
   5  -2  -4 24829.4 2022.19   6
   5   2  -4 25509.2 2158.05   5
   5  -2  -4 23391.7 1820.82   5
  -5  -2   3 5268.78 880.842   1
   5  -2  -3 5117.00 1052.59   6
   5   2  -3 5554.07 992.132   2
   5  -2  -3 5360.20 901.212   5
   5   2  -3 5379.89 1011.13   5
  -5  -2   2-189.220 294.341   1
   5  -2  -2 7.64535 415.135   6
   5   2  -2-169.923 357.336   2
   5  -2  -2 19.9276 208.373   5
  -5  -2   1 3659.28 718.081   1
   5  -2  -1 3259.41 792.912   6
   5   2  -1 3234.79 793.661   2
   5  -2  -1 3053.44 659.870   5
  -5  -2   0 139.626 321.767   1
   5  -2   0 839.220 687.804   6
   5   2   0 401.185 536.416   2
   5  -2   0 216.388 213.685   5
   5   2   1 6890.47 1087.77   2
  -5  -2  -1 5909.35 925.372   1
   5  -2   1 7273.37 1135.98   6
   5  -2   1 6530.08 902.267   5
  -5  -2  -2 1249.90 488.787   1
   5   2   2 1025.13 474.368   2
   5  -2   2 1627.74 665.741   6
   5  -2   2 1538.73 456.904   5
  -5  -2  -3 1956.70 599.537   1
   5   2   3 2183.82 684.987   2
   5  -2   3 2554.28 783.646   6
  -5  -2  -4 4390.24 863.979   1
   5  -2   4 5670.48 1075.95   6
   5   2   4 4523.10 958.830   2
   5   2   5 12551.0 1507.58   2
   5  -2   5 11270.8 1620.85   6
  -5  -2  -5 11616.3 1403.61   1
   5   2   6 98259.6 4014.29   2
   5  -2   6 99844.6 4202.09   6
  -5   2  -7 1381.35 648.240  18
   5   2   7 2898.16 851.978   2
   5  -2   7 2217.90 1032.71   6
   5   2   8 128290. 4702.88   2
  -5   2  -8 120123. 5577.76  18
   5  -2   8 128446. 4910.50   6
  -5   2  -9 894.013 826.463  18
  -5  -2  -9 462.446 320.794  18
   5   2   9 1349.57 651.308   2
   5  -2   9 1671.29 952.337   6
   5  -2  10 243752. 6930.91   6
   5   2  10 232405. 6418.71   2
   5  -2  11 11945.6 842.148  12
   5   2  11 12255.7 807.494   7
  -5   2 -11 10409.2 1742.62  18
  -5  -2 -11 8992.72 1395.67  18
   5  -2  11 13505.1 1765.77   6
   5  -2  11 11273.1 846.017   8
   5   2  11 13098.0 1608.88   2
   5  -2  12 100359. 2454.41  12
   5   2  12 91606.8 2249.61   7
   5  -2  12 96397.1 2705.00  11
  -5   2 -12 95887.7 5397.49  18
  -5  -2 -12 84032.2 4359.56  18
   5  -2  12 95540.4 4499.75   6
   5  -2  12 91947.1 2403.00   8
   5   2  12 95316.9 4253.41   2
   5  -2  13 40254.2 1584.96  12
   5  -2  13 37799.6 1504.87   7
   5   2  13 40903.0 1525.15   7
   5  -2  13 39480.1 1737.34  11
   5   2  13 40601.5 1640.13  11
  -5   2 -13 36054.4 3371.14  18
   5  -2  13 44559.8 3152.32   6
   5  -2  13 39111.7 1634.81   8
   5   2  13 42942.2 2898.17   2
   5  -2  14 82027.0 2305.24  12
   5  -2  14 75128.9 2156.71   7
   5   2  14 80752.8 2181.94   7
   5  -2  14 81609.6 2553.46  11
   5   2  14 83293.2 2346.44  11
  -5   2 -14 76746.5 5004.54  18
   5  -2  14 84467.7 4350.83   6
   5  -2  14 77349.1 2271.45   8
   5   2  14 80599.3 4034.93   2
   5  -2  15 1478.15 360.660   8
   5  -2  15 1845.67 395.343  12
   5  -2  15 1407.98 383.889  11
   5  -2  15 1634.75 351.419   7
   5   2  15 1437.34 312.827  11
  -5   2 -15 1497.89 913.881  18
   5   2  15 1416.79 319.339   7
  -5  -2 -15 1147.30 499.567  18
   5   2  15 1616.10 687.887   2
   5  -2  15 1696.33 749.400   6
   5  -2  16 5988.76 655.860  12
   5  -2  16 4989.94 564.413   7
   5   2  16 5287.19 603.149   7
   5  -2  16 5127.72 649.056  11
  -5   2 -16 5127.86 1355.32  18
  -5  -2 -16 4479.64 1095.52  18
   5   2  16 5049.20 1014.85   2
   5  -2  16 5660.04 1183.57   6
   5  -2  16 5525.85 630.708   8
   5  -2  17 4743.56 615.332  12
   5  -2  17 4460.14 567.765   7
   5   2  17 4365.05 562.726   7
   5  -2  17 3689.36 567.881  11
  -5   2 -17 3347.63 1155.05  18
  -5  -2 -17 3545.92 1216.09  18
   5   2  17 3246.56 899.154   2
   5   2  17 3662.60 555.963  16
   5  -2  17 4258.83 1033.18   6
   5  -2  17 4075.57 534.879   8
   5  -2  18 567.135 287.922   8
   5  -2  18 539.385 268.696  12
   5  -2  18 403.140 261.737  11
   5  -2  18 433.161 227.226   7
   5   2  18 503.498 256.888   7
  -5   2 -18 352.356 448.793  18
  -5  -2 -18 149.384 517.129  18
   5   2  18 0.58384 289.705   2
   5   2  18 498.832 278.219  16
   5  -2  18 382.958 390.637   6
   5  -2  19 581.464 264.785   8
   5  -2  19 560.180 260.572  12
   5  -2  19 909.830 336.035   7
   5   2  19 374.702 165.861   7
  -5   2 -19 72.7171 741.701  18
  -5  -2 -19 1017.81 574.283  18
   5   2  19 770.608 520.579   2
   5  -2  19 684.794 589.914   6
   5   2  19 889.265 334.676  16
   5  -2  20 4372.82 578.290  12
   5  -2  20 4195.27 566.108   7
   5   2  20 3248.85 503.661   7
  -5   2 -20 3418.14 1196.61  18
  -5  -2 -20 4322.75 1180.94  18
   5   2  20 3414.01 866.956   2
   5   2  20 4101.77 643.033  16
   5  -2  20 3588.79 1086.14   6
   5  -2  20 3905.10 531.978   8
   5  -2  21-14.9553 149.653   8
   5  -2  21-219.168 221.856  12
   5  -2  21 80.3296 226.696   7
   5   2  21-252.749 195.604   7
  -5  -2 -21 125.610 486.656  18
   5   2  21 307.938 442.606   2
   5   2  21 250.593 249.403  16
   5  -2  22 7567.51 747.651  12
   5  -2  22 7796.46 781.950   7
   5   2  22 6906.23 709.332   7
   5   2  22 8530.36 928.269  16
   5  -2  22 8070.82 738.884   8
   5  -2  23 5738.67 676.405  12
   5  -2  23 5625.67 677.434   7
   5   2  23 5556.54 677.599   7
   5   2  23 5328.60 738.945  16
   5  -2  24 2150.13 417.172  12
   5  -2  24 1620.20 356.109   7
   5   2  24 1850.05 422.114   7
   5   2  24 2008.19 489.461  16
   5  -2  25 13626.0 1034.74  12
   5  -2  25 14798.4 1070.82   7
   5   2  25 13399.6 1006.24   7
   5   2  25 14779.2 1246.35  16
   5  -2  26 389.186 249.334  12
   5  -2  26 242.100 205.027   7
   5   2  26 264.506 250.390   7
   5   2  26 126.855 252.021  16
   5  -2  27 544.282 271.188  12
   5  -2  27 626.820 249.917   7
   5   2  27 81.1473 187.433   7
   5   2  27 309.775 233.432  16
   5  -2  28 1784.18 412.582  12
   5  -2  28 2119.54 452.081   7
   5   2  28 1609.47 349.805   7
   5   2  28 1256.57 391.406  16
   5  -2  29 867.205 279.982  12
   5  -2  29 1077.71 293.869   7
   5   2  29 786.436 242.005   7
   5   2  29 918.133 359.364  16
   5  -2  30 6427.28 667.629  12
   5  -2  30 6801.71 704.840   7
   5   2  30 5638.78 631.591   7
   5   2  30 6811.69 855.284  16
   5  -2  31 1345.14 311.925  12
   5  -2  31 1644.87 406.060   7
   5   2  31 1212.54 312.203   7
   5   2  31 1463.10 436.982  16
   5  -2  32 1594.49 335.908  12
   5  -2  32 1699.03 357.149   7
   5   2  32 1357.47 287.667   7
   5   2  32 1265.03 348.963  16
   5  -2  33 3256.76 465.173  12
   5  -2  33 3979.26 516.031   7
   5   2  33 3503.13 453.732   7
   5   2  33 3093.12 560.442  16
   5  -2  34 1940.57 340.997  12
   5  -2  34 2016.33 378.562   7
   5   2  34 1509.54 295.159   7
   5   2  34 1773.24 404.397  16
   5  -2  35 56.8658 129.853  12
   5  -2  35 286.774 210.482   7
   5   2  35 301.788 179.583   7
   5   2  35 100.827 243.549  16
   5  -2  36 7210.92 592.856   7
   5  -2  36 5699.86 487.731  12
   5   2  36 6440.23 501.769   7
   5   2  36 5571.59 633.411  16
   5  -2  37 3430.72 404.474   7
   5  -2  37 3709.79 366.483  12
   5   2  37 3021.77 317.175   7
   5   2  37 3514.43 481.110  16
   5  -2  38 1624.75 223.266  12
   5   2  38 1771.81 334.168  16
   5   3 -42 596.087 272.536  14
   5   3 -41 585.443 300.627  14
   5  -3 -41-134.050 139.077  14
  -5  -3  40 7002.82 443.514  10
   5   3 -40 7651.08 787.177  14
   5  -3 -40 7264.69 599.023  14
   5   3 -39 634.494 317.918  14
   5  -3 -39 595.537 231.854  14
   5  -3 -38 1758.06 342.855  15
   5   3 -38 1396.53 394.380  14
   5  -3 -38 1324.54 283.636  14
   5  -3 -37 1836.98 365.281  15
   5   3 -37 1765.63 474.669  14
   5  -3 -37 1916.18 359.756  14
   5  -3 -36 82.3470 177.652  15
   5   3 -36-208.565 271.430  14
   5  -3 -36 149.132 230.937  14
   5  -3 -35 5345.40 653.355  15
   5  -3 -35 5400.83 633.724  14
   5   3 -35 6344.64 829.610  14
   5  -3 -34 1445.99 405.353  15
   5   3 -34 2180.51 597.537  14
   5  -3 -34 1339.45 339.635  14
   5  -3 -33 5822.71 690.818  15
   5   3 -33 6827.20 917.794  14
   5  -3 -33 5656.62 690.355  14
   5  -3 -33 5074.43 962.694  13
   5  -3 -32 352.562 207.797  15
   5   3 -32-252.426 295.344  14
   5  -3 -32-57.2378 216.198  14
   5   3 -31 13196.6 1005.18  15
   5  -3 -31 13951.1 1149.80  15
   5   3 -31 14900.3 1372.86  14
   5  -3 -31 12415.5 1066.35  14
   5  -3 -31 9933.66 1334.29  13
   5   3 -30 3842.09 581.171  15
   5  -3 -30 3593.49 599.504  15
   5   3 -30 4144.38 729.244  14
   5  -3 -30 3512.17 559.583  14
   5  -3 -30 2314.90 663.239  13
   5  -3 -29 6188.02 1069.14  13
   5   3 -29 9595.10 1094.55  14
   5   3 -29 8575.73 874.433  15
   5  -3 -29 9488.61 1023.75  15
   5  -3 -29 8040.50 886.404  14
   5  -3 -28 1415.37 481.250  13
   5   3 -28 1098.59 374.580  15
   5  -3 -28 1258.14 450.745  15
   5   3 -28 1257.80 445.523  14
   5  -3 -28 979.187 338.273  14
   5  -3 -27 5752.93 890.668  13
   5  -3 -27 6507.38 895.710  15
   5   3 -27 7662.38 819.990  15
   5   3 -27 6677.47 934.872  14
   5  -3 -27 6080.70 763.106  14
   5  -3 -26 2148.10 537.679  13
   5   3 -26 2857.22 536.497  15
   5  -3 -26 2218.62 560.288  15
   5   3 -26 2213.11 553.574  14
   5  -3 -26 1934.59 441.688  14
   5  -3 -25 2618.58 589.627  13
   5   3 -25 2756.82 543.207  15
   5  -3 -25 2847.87 632.011  15
   5   3 -25 3043.08 655.347  14
   5  -3 -25 2459.09 493.423  14
   5  -3 -24-69.7696 301.989  13
   5   3 -24 214.015 304.198  15
   5  -3 -24 655.198 374.069  15
   5   3 -24 144.961 255.265  14
   5  -3 -24 269.241 176.496  14
   5   3 -23 1478.24 400.048  15
   5  -3 -23 1249.80 422.368  15
   5   3 -23 777.294 383.623  14
   5  -3 -23 1206.47 341.316  14
   5   3 -22 9496.06 966.431  15
   5  -3 -22 9689.50 1113.21  15
  -5  -3  22 9299.73 1571.14   1
   5   3 -22 9533.90 1032.80  14
   5  -3 -22 5951.49 724.717  14
   5  -3 -22 8045.72 1539.87   5
   5  -3 -21 7380.02 810.419  10
  -5  -3  21 8634.35 1496.33   3
   5  -3 -21 7170.72 728.454   9
   5   3 -21 7625.95 864.029  15
  -5  -3  21 7527.74 1446.53   1
   5  -3 -21 7808.26 977.073  15
   5   3 -21 7369.02 923.463  14
   5  -3 -21 6946.62 1420.32   5
   5  -3 -20 11066.9 904.017   9
  -5  -3  20 10919.0 1694.64   3
   5  -3 -20 12600.3 1049.21  10
  -5  -3  20 10765.3 1637.21   1
   5   3 -20 13170.4 1152.20  15
   5  -3 -20 13244.6 1233.16  15
   5   3 -20 12575.4 1212.12  14
   5  -3 -20 9640.85 1695.91   5
   5  -3 -19-623.412 272.199  10
  -5  -3  19 22.5123 469.262   3
  -5  -3  19-159.057 323.349   1
   5   3 -19-65.1051 205.102  15
   5  -3 -19-253.342 350.524  15
   5  -3 -19 225.182 176.133   9
   5   3 -19 22.4231 254.854  14
   5  -3 -19-548.045 689.614   5
  -5  -3  18 19581.6 2212.94   3
  -5  -3  18 18419.6 2093.89   1
   5  -3 -18 19807.8 1258.55  10
   5  -3 -18 19241.0 1193.48   9
   5   3 -18 20174.9 1381.02  15
   5  -3 -18 19737.6 1472.30  15
   5   3 -18 21858.2 1528.69  14
   5  -3 -18 19650.5 2201.43   5
  -5  -3  17 4396.97 1012.20   1
   5  -3 -17 4173.51 568.398  10
  -5  -3  17 3976.03 1020.49   3
   5  -3 -17 4272.80 594.629   9
   5   3 -17 4321.07 653.243  15
   5  -3 -17 4205.11 678.408  15
   5   3 -17 4850.43 723.670  14
   5  -3 -17 3829.16 997.140   5
  -5  -3  16 714.867 530.522   1
   5  -3 -16 441.908 215.354  10
  -5  -3  16 449.693 404.122   3
   5   3 -16 110.447 210.956  15
   5  -3 -16 349.048 247.057  15
   5  -3 -16 408.442 252.556   9
   5   3 -16-23.9649 257.685  14
   5  -3 -16 496.300 512.928   5
  -5  -3  15 1114.89 525.463   1
   5  -3 -15 685.404 291.289  10
  -5  -3  15 1321.64 654.356   3
   5   3 -15 788.255 307.901  15
   5  -3 -15 318.999 234.151  15
   5  -3 -15 705.887 306.929   9
   5   3 -15 483.683 271.365  14
   5   3 -15 1472.65 630.754   5
   5  -3 -15 906.852 493.629   5
  -5  -3  14-6.99102 277.389   1
   5   3 -14 182.746 168.032  11
   5  -3 -14 153.751 202.182  10
  -5  -3  14 335.816 369.799   3
   5   3 -14 128.578 223.331  15
   5  -3 -14-17.2665 230.305  15
   5  -3 -14 389.045 335.187   9
   5   3 -14-345.256 377.931  14
   5   3 -14-292.083 414.945   5
   5  -3 -14-69.6780 383.428   5
  -5  -3  13 2241.29 703.580   1
   5   3 -13 1954.52 394.070  11
   5  -3 -13 1223.77 310.075  10
  -5  -3  13 2014.31 694.942   3
   5   3 -13 1859.95 427.072  15
   5  -3 -13 2199.73 424.750   9
   5   3 -13 881.753 293.736  14
   5   3 -13 2388.04 762.235   5
   5  -3 -13 2007.80 688.108   5
   5   3 -12 5599.71 629.760  11
   5  -3 -12 5022.66 639.473   9
   5  -3 -12 4729.95 602.965  10
  -5  -3  12 4089.04 876.609   3
   5   3 -12 5977.64 710.122  15
   5   3 -12 4492.23 1104.81   2
   5   3 -12 5132.67 1011.78   5
   5  -3 -12 4436.93 908.625   5
  -5  -3  12 4575.23 992.318   1
   5   3 -11 772.996 262.782  11
   5  -3 -11 465.576 192.201  10
   5   3 -11 1057.32 360.422  15
   5  -3 -11 715.499 236.095   9
   5   3 -11 1714.57 920.308   2
   5   3 -11 2276.92 799.948   5
  -5  -3  11 1341.81 741.831   1
   5  -3 -11 577.648 330.384   5
   5   3 -10 129574. 5536.57   2
  -5  -3  10 129334. 4875.42   1
   5   3 -10 132240. 3049.58  11
   5  -3 -10 126595. 3021.27   9
   5   3 -10 138992. 3419.51  15
   5   3 -10 130008. 5108.60   5
   5  -3 -10 123287. 4664.31   5
   5   3  -9 222.677 256.105  15
  -5  -3   9 639.504 617.222   1
   5   3  -9 1422.98 863.754   2
   5  -3  -9 547.271 406.711   9
   5  -3  -9 232.413 501.456   5
  -5  -3   8 70275.4 3532.00   1
   5   3  -8 65630.0 3957.64   2
   5   3  -8 74913.5 2459.13  15
   5  -3  -8 71669.0 2217.38   9
   5  -3  -8 64930.6 3244.99   5
   5  -3  -7 2229.36 1029.52   6
  -5  -3   7 548.237 640.707   1
   5   3  -7 630.079 329.222  15
   5   3  -7 1190.60 889.289   2
   5  -3  -7 213.291 377.124   9
  -5  -3   6 39696.2 2700.88   1
   5   3  -6 39154.6 3132.22   2
   5  -3  -6 41470.5 2824.64   6
  -5  -3   5 4491.38 1085.65   1
   5  -3  -5 7417.96 1619.76   6
   5   3  -5 3917.64 1173.67   2
  -5  -3   4 15807.5 1742.31   1
   5   3  -4 15042.5 1913.33   2
   5  -3  -4 16225.4 1729.61   6
  -5  -3   3 6820.40 1111.59   1
   5  -3  -3 6395.99 1199.93   6
   5   3  -3 5371.79 1262.38   2
   5   3  -2 2107.00 1445.16   2
  -5  -3   2 2149.59 1035.31   1
   5  -3  -2 2993.44 1404.98   6
  -5  -3   1 40842.6 2828.49   1
   5   3  -1 40934.3 3046.56   2
   5  -3  -1 40794.2 2778.03   6
   5   3   0 25961.1 2453.16   2
   5  -3   0 25554.8 2251.12   6
  -5  -3   0 23077.5 2111.02   1
   5   3   1 23799.9 2349.41   2
   5  -3   1 25482.7 2199.20   6
  -5  -3  -1 24706.5 2177.28   1
   5  -3   2 4423.02 625.057  11
  -5  -3  -2 4505.32 964.612   1
   5  -3   2 5892.72 1184.61   6
   5   3   2 5219.13 1257.84   2
   5   3   3 5201.62 1231.77   2
   5  -3   3 5561.22 689.444  11
  -5  -3  -3 5145.78 1142.77   1
   5   3   3 4999.91 619.272  11
   5  -3   3 5001.51 1136.00   6
   5  -3   3 4464.62 553.061   8
   5   3   4 21759.8 2142.29   2
   5  -3   4 20444.6 1071.07  12
   5  -3   4 21288.6 1345.34  11
   5   3   4 23864.5 1331.64  11
   5  -3   4 22634.9 2122.57   6
   5  -3   4 22636.9 1191.84   8
  -5  -3  -4 21534.2 2076.87   1
   5  -3   5 3758.15 490.681  12
  -5  -3  -5 4434.65 1006.21   1
   5   3   5 3959.30 499.211   7
   5   3   5 3920.19 576.650  11
   5  -3   5 3232.99 558.780  11
   5   3   5 5442.43 1115.69   2
   5  -3   5 5106.80 1162.60   6
   5  -3   5 4096.98 543.432   8
   5  -3   6 4654.84 529.721  12
  -5  -3  -6 5429.27 1129.56   1
   5  -3   6 5332.58 678.074  11
   5   3   6 4530.39 550.602   7
   5   3   6 5225.37 635.635  11
  -5   3  -6 4319.16 1019.20  17
   5   3   6 5199.74 1109.80   2
   5  -3   6 4432.79 1011.45   6
   5  -3   6 4975.03 582.113   8
   5   3   7 9593.37 1499.03   2
   5  -3   7 8288.11 723.299  12
   5  -3   7 7523.19 828.583  11
   5   3   7 9136.63 765.038   7
   5   3   7 8379.22 791.066  11
  -5   3  -7 7006.33 1252.48  17
   5  -3   7 10039.4 1454.61   6
  -5  -3  -7 8663.15 1389.94   1
   5  -3   7 8923.04 776.436   8
   5  -3   8 528.966 297.158   8
  -5  -3  -8-33.6085 293.634   1
   5  -3   8 374.921 237.649  12
   5  -3   8 625.888 317.420  11
   5   3   8 516.419 255.290  11
  -5   3  -8-625.857 825.440  18
   5   3   8 495.957 237.886   7
   5   3   8 1002.49 568.143   2
   5  -3   8 939.022 660.710   6
   5  -3   9 841.289 262.684   8
  -5  -3  -9 683.872 475.330   1
   5  -3   9 628.620 256.480  12
   5  -3   9 65.7722 208.652  11
   5   3   9 599.966 232.236  11
  -5   3  -9 46.0340 523.115  18
   5   3   9 465.981 208.900   7
   5   3   9 690.512 360.843   2
   5  -3   9 884.876 522.730   6
   5   3  10 12462.1 1686.22   2
   5  -3  10 11760.9 867.671  12
   5  -3  10 11403.5 1035.86  11
   5   3  10 11702.1 869.063   7
   5   3  10 11694.4 947.223  11
  -5   3 -10 11162.6 1918.28  18
   5   3  10 11650.6 895.819  16
   5  -3  10 12570.3 1691.99   6
  -5  -3 -10 13617.8 1813.62   1
   5  -3  10 11619.0 919.997   8
   5  -3  11 1984.36 401.849   8
   5  -3  11 2373.10 421.190  12
   5  -3  11 2483.42 479.564  11
   5   3  11 2366.93 397.460  11
  -5   3 -11 1897.69 789.493  18
   5   3  11 2159.76 387.746   7
   5   3  11 2764.54 851.311   2
   5   3  11 2169.73 392.729  16
   5  -3  11 2663.62 820.197   6
   5   3  12 40034.1 3073.11   2
   5  -3  12 36811.4 1569.47  12
   5  -3  12 36976.8 1859.02  11
   5   3  12 38829.7 1551.03   7
   5   3  12 36937.1 1666.28  11
  -5   3 -12 32710.8 3348.97  18
   5   3  12 34735.9 1594.12  16
   5  -3  12 38667.6 3026.99   6
   5  -3  12 36284.0 1630.54   8
   5  -3  13 5860.60 647.275  12
   5  -3  13 5614.52 595.155   7
   5  -3  13 5331.33 715.031  11
   5   3  13 6193.84 631.958   7
   5   3  13 6075.16 697.250  11
  -5   3 -13 4828.80 1437.57  18
   5   3  13 5419.68 669.910  16
   5   3  13 6351.39 1289.73   2
   5  -3  13 5941.08 1262.02   6
   5  -3  13 5863.80 715.347   8
   5  -3  14 2100.50 424.173   8
   5  -3  14 2042.93 404.524  12
   5  -3  14 2032.31 490.227  11
   5  -3  14 1726.70 344.484   7
   5   3  14 2104.15 402.826  11
  -5   3 -14 2210.79 947.815  18
   5   3  14 1903.81 365.907   7
   5   3  14 928.389 565.680   2
   5   3  14 2403.16 462.739  16
   5  -3  14 2682.67 997.755   6
   5  -3  15 11296.8 897.533  12
   5  -3  15 10306.6 844.155   7
   5   3  15 10543.2 842.564   7
   5   3  15 10333.9 882.279  11
  -5   3 -15 8663.05 1816.33  18
   5   3  15 10289.7 928.864  16
   5  -3  15 12082.3 1781.59   6
   5  -3  15 11438.7 927.850   8
   5   3  15 10950.7 1723.96   2
   5  -3  16 264.015 210.691   8
   5  -3  16 341.054 256.492  12
   5  -3  16 215.098 202.472   7
  -5   3 -16 772.293 698.332  18
   5   3  16 34.4015 220.007   7
   5   3  16 266.500 410.375   2
   5   3  16 170.392 186.089  16
   5  -3  16 72.4888 395.776   6
   5  -3  17 9774.77 871.424  12
   5  -3  17 9572.20 815.458   7
   5   3  17 9585.18 823.130   7
  -5   3 -17 8783.92 1840.32  18
   5   3  17 9714.07 926.744  16
   5  -3  17 9954.19 1642.33   6
   5  -3  17 9968.31 882.516   8
   5   3  17 10320.6 1672.26   2
   5  -3  18 207.270 187.182   8
   5  -3  18-88.2627 261.756  12
   5  -3  18-33.0972 159.945   7
   5   3  18 51.3284 195.619   7
   5   3  18-451.853 332.533  16
   5  -3  19 7384.18 789.905  12
   5  -3  19 6888.22 723.519   7
   5   3  19 6907.42 727.081   7
   5   3  19 6347.32 788.908  16
   5  -3  19 7635.99 768.396   8
   5  -3  20-35.4301 242.620   8
   5  -3  20 254.658 201.249  12
   5  -3  20 48.1603 177.506   7
   5   3  20 343.116 214.994   7
   5   3  20-94.8056 216.566  16
   5  -3  21 3979.83 588.734  12
   5   3  21 4230.76 551.643   7
   5  -3  21 3465.01 519.481   7
   5   3  21 3538.64 598.282  16
   5  -3  21 4300.47 598.719   8
   5  -3  22 1832.34 370.181   8
   5  -3  22 1693.73 407.164  12
   5  -3  22 1613.82 382.462   7
   5   3  22 1445.16 308.471   7
   5   3  22 1779.75 465.622  16
   5  -3  23 327.786 211.746   8
   5  -3  23 602.038 273.650  12
   5  -3  23 228.365 186.887   7
   5   3  23 315.058 211.713   7
   5   3  23 601.202 330.560  16
   5  -3  24 8827.63 820.920  12
   5  -3  24 8074.85 773.543   7
   5   3  24 7677.81 727.369   7
   5   3  24 8517.13 965.576  16
   5  -3  24 7806.69 742.164   8
   5  -3  25 755.194 282.778   8
   5  -3  25 637.811 269.140  12
   5  -3  25 236.009 224.218   7
   5   3  25 328.082 229.348   7
   5   3  25 311.705 208.986  16
   5  -3  26 24872.9 1337.99  12
   5  -3  26 25063.8 1351.69   7
   5   3  26 23768.3 1244.49   7
   5   3  26 24305.5 1603.55  16
   5  -3  27 10502.1 875.858  12
   5  -3  27 10391.2 871.612   7
   5   3  27 9731.06 820.165   7
   5   3  27 10975.8 1075.10  16
   5  -3  28 12480.4 920.064  12
   5  -3  28 11389.7 905.916   7
   5   3  28 10293.2 804.538   7
   5   3  28 12506.8 1102.98  16
   5  -3  29 3624.58 515.967  12
   5  -3  29 3194.01 469.477   7
   5   3  29 3208.07 434.873   7
   5   3  29 3947.95 654.613  16
   5  -3  30 5222.68 597.460   7
   5  -3  30 5811.35 615.312  12
   5   3  30 4535.07 498.770   7
   5   3  30 5476.70 808.468  16
   5  -3  31 7385.50 649.839   7
   5  -3  31 7920.66 694.343  12
   5   3  31 6987.29 598.356   7
   5   3  31 7094.81 799.316  16
   5  -3  32 6274.08 634.668   7
   5  -3  32 6804.27 638.200  12
   5   3  32 6438.39 544.669   7
   5   3  32 5998.06 739.810  16
   5  -3  33 203.886 146.916  12
   5  -3  33-116.135 160.035   7
   5   3  33-208.093 177.626   7
   5   3  33-122.752 235.061  16
   5  -3  34 2425.61 344.551  12
   5   3  34 1668.78 376.485  16
   5  -3  35 61.0505 143.499  12
   5   3  35-292.041 245.608  16
   5  -3  36 130.756 124.284  12
   5   3  36-401.210 245.246  16
   5  -3  37 237.291 123.352  12
   5   4 -39 2546.69 522.723  14
   5  -4 -39 2477.81 311.970  14
   5   4 -38 7147.49 803.720  14
   5  -4 -38 6979.21 548.896  14
  -5  -4  37 5141.80 409.331  10
   5  -4 -37 4588.67 459.696  15
   5  -4 -37 4801.82 477.629  14
   5   4 -37 4679.23 644.971  14
  -5  -4  36 2281.33 308.660  10
   5  -4 -36 2301.07 361.318  15
   5   4 -36 2541.02 590.019  14
   5  -4 -36 2315.70 374.734  14
  -5  -4  35 16221.7 832.774  10
   5  -4 -35 15318.2 967.120  15
   5   4 -35 16414.8 1338.11  14
   5  -4 -35 16411.6 976.520  14
   5  -4 -34 1054.44 324.810  15
   5   4 -34 1004.59 374.841  14
   5  -4 -34 1458.30 327.588  14
   5  -4 -34 1063.16 474.492  13
   5  -4 -33 20478.3 1252.07  15
   5   4 -33 19721.1 1548.33  14
   5  -4 -33 19351.9 1151.79  14
   5  -4 -32-347.534 251.931  15
   5   4 -32-52.3976 315.522  14
   5  -4 -32-178.202 217.177  14
   5  -4 -32 645.496 471.912  13
   5  -4 -31 6631.95 786.138  15
   5  -4 -31 5949.64 692.355  14
   5   4 -31 5985.27 935.244  14
   5  -4 -31 4093.14 798.522  13
   5  -4 -30 2306.67 675.516  13
   5  -4 -30 1930.41 450.384  15
   5   4 -30 1323.16 508.363  14
   5  -4 -30 1358.49 387.302  14
   5  -4 -29 2052.90 606.165  13
   5   4 -29 2237.20 421.013  15
   5  -4 -29 2140.90 470.476  15
   5   4 -29 2604.27 683.413  14
   5  -4 -29 2217.53 442.242  14
   5  -4 -28-229.966 302.470  13
   5   4 -28 101.074 238.563  15
   5  -4 -28 222.823 266.820  15
   5   4 -28 178.914 389.191  14
   5  -4 -28-116.785 202.215  14
   5  -4 -27 976.826 393.763  13
   5   4 -27 964.896 302.182  15
   5  -4 -27 737.823 345.889  15
   5   4 -27 864.819 492.114  14
   5  -4 -27 1252.87 362.691  14
   5  -4 -26 3146.28 631.593  13
   5   4 -26 3044.12 520.054  15
   5  -4 -26 3398.65 648.806  15
   5   4 -26 2870.95 716.974  14
   5  -4 -26 2740.14 536.714  14
   5  -4 -25 1052.94 433.393  13
   5   4 -25 863.080 312.136  15
   5  -4 -25 1139.64 443.204  15
   5   4 -25 1208.04 532.109  14
   5  -4 -25 444.454 272.640  14
   5  -4 -24 2274.08 525.710  13
   5   4 -24 2669.83 495.655  15
   5  -4 -24 2957.43 582.456  15
   5   4 -24 2927.07 680.793  14
   5  -4 -24 1160.19 347.652  14
   5  -4 -23 3951.75 688.803  13
   5  -4 -23 5592.34 693.075  10
   5  -4 -23 5683.43 866.218  15
   5   4 -23 5001.41 688.963  15
   5   4 -23 5031.23 877.629  14
   5  -4 -22 6035.80 864.964  15
   5  -4 -22 6452.65 687.202   9
   5  -4 -22 6619.07 788.898  10
   5   4 -22 6029.63 781.507  15
   5   4 -22 5006.58 922.316  14
   5  -4 -22 5112.91 739.880  13
   5  -4 -21 2398.64 503.048  13
   5  -4 -21 3167.20 564.596  10
   5   4 -21 2612.30 542.992  15
   5  -4 -21 2464.47 530.827  15
   5  -4 -21 2752.22 467.429   9
   5   4 -21 2450.84 638.040  14
   5  -4 -20 6395.01 755.687  10
   5  -4 -20 5736.25 675.820   9
   5   4 -20 6937.50 804.335  15
   5  -4 -20 6616.06 911.218  15
   5   4 -20 6386.88 1017.75  14
   5  -4 -20 5528.67 731.823  13
   5   4 -19 10442.1 1004.73  15
   5  -4 -19 11103.3 993.322  10
   5  -4 -19 9954.34 908.660   9
   5  -4 -19 9480.18 1067.34  15
   5   4 -19 9775.09 1211.98  14
   5  -4 -19 9684.59 911.636  13
   5  -4 -18 5286.48 673.629  10
   5  -4 -18 5570.37 675.801   9
   5  -4 -18 4219.08 712.797  15
   5   4 -18 5013.40 714.546  15
   5   4 -18 5660.95 998.562  14
   5  -4 -18 5154.51 638.719  13
   5  -4 -17-91.1013 165.879  13
   5  -4 -17 124.807 191.249  10
   5   4 -17 231.017 294.561  15
   5  -4 -17 355.278 179.642   9
   5   4 -17 356.366 434.998  14
   5  -4 -16 347.622 202.480  13
  -5  -4  16 106.152 383.382   1
   5   4 -16-432.368 248.973  11
   5  -4 -16 319.659 275.128  10
   5   4 -16 149.132 277.083  15
   5  -4 -16 459.409 236.554   9
   5   4 -16 66.8406 383.394  14
  -5  -4  15 35630.8 3092.48   3
   5   4 -15 33668.7 1631.34  11
   5  -4 -15 31988.6 1630.08   9
   5  -4 -15 31989.4 1622.40  10
  -5  -4  15 36019.3 2954.98   1
   5   4 -15 32810.1 1817.18  15
   5   4 -15 30709.7 2156.06  14
   5  -4 -15 30859.1 1431.77  13
   5  -4 -14 510.345 234.072  13
  -5  -4  14 936.423 566.722   1
   5   4 -14 607.151 288.473  11
   5  -4 -14 610.710 294.866  10
  -5  -4  14 724.739 499.912   3
   5   4 -14 536.583 390.353  15
   5  -4 -14 421.785 190.319   9
   5   4 -14 376.823 298.726  14
  -5  -4  13 6483.24 1266.92   1
   5   4 -13 6069.91 740.248  11
   5  -4 -13 5463.55 675.487  10
  -5  -4  13 5784.35 1199.63   3
   5   4 -13 6506.79 809.390  15
   5  -4 -13 6423.16 740.429   9
   5   4 -13 5393.25 902.232  14
   5  -4 -13 5897.47 626.745  13
  -5  -4  12 1612.91 669.473   1
   5  -4 -12 1094.46 268.125  13
   5   4 -12 1606.65 396.410  11
   5  -4 -12 634.798 285.849  10
  -5  -4  12 1221.44 542.629   3
   5   4 -12 984.771 363.453  15
   5  -4 -12 804.823 295.244   9
   5   4 -12 1254.37 699.346   2
   5   4 -12 1376.81 481.973  14
   5  -4 -11 640.722 192.508  13
   5  -4 -11 274.675 229.413  10
   5   4 -11 1279.77 433.012  15
   5  -4 -11 862.187 349.720   9
   5   4 -11 1422.35 837.480   2
   5   4 -11 1718.00 678.807  14
  -5  -4  11 1603.32 804.854   1
   5   4 -10 20407.5 2443.95   2
  -5  -4  10 20827.9 2177.18   1
   5  -4 -10 16806.2 1131.36  10
   5  -4 -10 20056.2 1277.19   9
   5   4 -10 17796.9 1309.90  15
   5   4 -10 17229.7 1668.99  14
   5  -4 -10 15883.1 960.963  13
   5  -4  -9 1599.34 334.393  13
   5  -4  -9 1505.82 365.350  10
   5   4  -9 2190.92 512.252  15
   5   4  -9 1763.33 839.865   2
   5  -4  -9 1749.17 439.862   9
   5   4  -9 1472.11 544.439  14
  -5  -4   9 1549.65 588.839   1
   5  -4  -8 644.408 240.140  13
   5  -4  -8 217.029 209.245  10
   5   4  -8 297.058 266.203  15
  -5  -4   8 1136.38 651.545   1
   5   4  -8 543.418 629.604   2
   5  -4  -8 452.886 270.358   9
   5  -4  -7 457.757 373.169  13
   5  -4  -7 453.880 250.962  12
   5  -4  -7 265.197 215.832  10
  -5  -4   7 1233.11 903.373   1
   5   4  -7 548.678 352.026  15
   5  -4  -7 84.2595 249.307   9
   5  -4  -6 26924.7 1230.41  12
  -5  -4   6 33923.7 2756.80   1
   5   4  -6 29473.7 3036.69   2
   5  -4  -6 29200.7 1409.06  10
   5   4  -6 30999.7 1702.28  15
   5  -4  -6 34116.8 1625.22   9
   5  -4  -6 28540.5 1260.96  13
   5  -4  -5 10216.0 776.058  12
   5   4  -5 10552.5 976.787  15
  -5  -4   5 15382.3 1909.96   1
   5   4  -5 11037.3 1957.74   2
   5  -4  -5 10634.8 882.004  10
  -5  -4   5 11509.1 900.149  10
   5  -4  -5 13159.7 1059.54   9
   5  -4  -5 11517.3 856.474   8
   5  -4  -5 11640.5 841.143  13
   5  -4  -4 1314.39 348.286   8
   5  -4  -4 1403.42 323.341  12
  -5  -4   4 2324.81 954.566   1
  -5  -4   4 1067.22 340.250  10
   5  -4  -4 2434.61 1126.94   6
   5   4  -4 1347.04 376.676  15
   5   4  -4 1063.56 887.770   2
   5  -4  -4 1632.27 471.519   9
   5  -4  -4 2237.13 452.973  13
   5  -4  -3 4924.78 536.314  12
  -5  -4   3 5820.06 608.611  10
  -5  -4   3 5996.59 1183.73   1
   5  -4  -3 5204.73 1054.67   6
   5   4  -3 6487.02 790.375  15
   5  -4  -3 6520.27 721.769   9
   5   4  -3 4189.38 1212.41   2
   5  -4  -3 5356.15 586.046   8
   5  -4  -3 5005.20 528.497  13
   5  -4  -2 1597.69 362.298   8
   5  -4  -2 1735.06 468.922  12
  -5  -4   2 6409.87 1384.15   1
   5   4  -2 8839.39 2240.27   2
   5  -4  -2 6244.08 1578.78   6
  -5  -4   2 2094.62 430.452  10
   5   4  -2 3666.24 700.887  15
   5  -4  -2 1822.34 439.751   9
   5  -4  -2 4255.98 631.732  13
  -5  -4   1 57097.7 3599.13   1
   5  -4  -1 44849.1 1598.01  12
   5   4  -1 53373.6 3911.64   2
  -5  -4   1 48756.2 1744.13  10
   5  -4  -1 52246.4 3308.82   6
   5   4  -1 47322.7 2040.66  15
   5  -4  -1 50492.7 1945.31   9
   5  -4  -1 49682.3 1803.95   8
   5  -4  -1 47292.0 1599.73  13
  -5  -4   0 16184.6 2230.98   1
   5  -4   0 10883.0 843.839  12
   5  -4   0 15834.5 1890.42   6
   5  -4   0 13188.4 1042.41   9
   5  -4   0 13293.0 988.293   8
   5   4   0 10895.1 972.897  15
   5  -4   0 13119.8 942.743  13
   5  -4   1 897.535 319.554   8
   5  -4   1 1064.51 349.529  13
   5  -4   1 696.875 287.114  12
  -5  -4  -1 522.200 587.577   1
   5   4   1 282.661 225.812  15
   5  -4   1 677.873 318.422   9
   5  -4   2 2357.28 463.408   8
   5  -4   2 1495.29 360.983  12
  -5  -4  -2 3607.58 1152.86   1
   5   4   2 2071.96 470.001  11
   5  -4   2 3892.62 1328.53   6
   5   4   2 2447.34 536.883  16
   5   4   2 3670.59 1496.10   2
   5   4   2 1241.29 329.825  15
   5  -4   2 2180.86 470.100   9
   5  -4   2 2347.17 445.039  13
   5  -4   3 15709.0 983.353  12
   5   4   3 20242.0 2420.19   2
   5   4   3 18417.3 1263.03  11
   5  -4   3 19191.1 2092.88   6
   5   4   3 15962.2 1063.16  16
   5   4   3 17034.5 1182.44  15
   5  -4   3 16700.2 1156.08   9
   5  -4   3 19308.4 1153.93   8
   5  -4   3 17491.4 1029.66  13
  -5  -4  -3 21747.5 2283.12   1
   5  -4   4 9391.80 785.694  12
   5   4   4 17167.0 2316.91   2
   5   4   4 11615.4 992.722  11
   5  -4   4 12207.1 1705.60   6
   5   4   4 8709.59 777.367  16
   5   4   4 9681.59 891.100  15
   5  -4   4 10333.0 897.246   9
   5  -4   4 11999.4 942.051   8
   5  -4   4 10783.5 829.565  13
  -5  -4  -4 16164.1 2034.30   1
   5  -4   5 941.877 315.670   8
   5  -4   5 773.900 285.559  13
   5  -4   5 711.473 296.340  12
  -5  -4  -5 857.226 605.437   1
   5   4   5 791.444 335.405  11
  -5   4  -5 282.726 367.598  17
   5   4   5 657.913 234.245   7
   5  -4   5 1051.28 613.286   6
   5   4   5 726.334 276.762  16
   5   4   5 262.879 486.043   2
   5   4   5 483.165 302.893  15
   5  -4   5 844.834 304.872   9
   5  -4   6 769.448 336.731   8
   5  -4   6 457.491 260.284  13
   5   4   6 560.734 645.910   2
   5  -4   6 278.330 209.711  12
  -5  -4  -6 1201.99 765.896   1
   5   4   6 254.446 311.418  11
  -5   4  -6-144.105 354.961  17
   5   4   6 683.423 289.772   7
   5  -4   6 472.957 709.017   6
   5   4   6 339.929 226.522  16
   5   4   6 689.426 328.578  15
   5  -4   6 458.478 279.975   9
   5   4   7 19342.5 2342.93   2
   5  -4   7 16458.6 1034.36  12
   5   4   7 17452.9 1074.38   7
   5   4   7 18441.5 1247.81  11
  -5   4  -7 17902.5 2272.10  17
   5  -4   7 17606.2 2020.50   6
   5   4   7 17885.7 1139.85  16
   5   4   7 17123.3 1178.38  15
   5  -4   7 16177.1 1120.82   9
   5  -4   7 17784.0 1165.87   8
  -5  -4  -7 19916.3 2280.89   1
   5  -4   7 16594.0 1029.94  13
   5   4   8 10988.5 1805.20   2
   5  -4   8 8374.38 752.023  12
   5   4   8 10183.6 840.929   7
   5   4   8 9668.06 931.046  11
  -5   4  -8 6499.27 1407.82  17
   5  -4   8 9372.82 1567.94   6
   5   4   8 7808.50 807.378  16
   5   4   8 8138.37 792.510  15
   5  -4   8 9584.15 873.294   8
  -5  -4  -8 10410.3 1701.59   1
   5  -4   8 8271.80 823.851   9
   5  -4   8 8373.12 756.880  13
   5   4   9 20015.9 2364.55   2
   5  -4   9 18537.4 1092.01  12
   5   4   9 18814.4 1119.51   7
   5   4   9 20159.5 1306.31  11
  -5   4  -9 16411.9 2480.03  18
  -5   4  -9 17817.5 2326.09  17
   5   4   9 18605.8 1206.15  16
   5  -4   9 18465.6 2067.34   6
   5  -4   9 18160.2 1161.91   9
   5  -4   9 17713.9 1181.90   8
  -5  -4  -9 21765.2 2420.80   1
   5  -4   9 17983.9 1089.92  13
   5  -4  10 612.250 290.501   8
   5  -4  10 1273.47 326.271  13
   5  -4  10 891.328 288.041  12
  -5  -4 -10 1522.80 861.978   1
   5   4  10 873.634 265.904  11
  -5   4 -10 1024.59 631.577  18
   5   4  10 748.881 236.437   7
   5   4  10 1625.19 737.624   2
   5   4  10 999.172 329.590  16
   5  -4  10 1058.54 616.546   6
   5  -4  10 432.107 223.518   9
   5  -4  11 889.300 305.609   8
   5  -4  11 1361.39 341.987  12
  -5  -4 -11 1772.28 687.360   1
   5   4  11 1180.58 332.900  11
  -5   4 -11 2038.80 1051.74  18
   5   4  11 1180.75 337.448   7
   5   4  11 922.484 613.553   2
   5   4  11 2356.74 447.434  16
   5  -4  11 1619.18 663.352   6
   5  -4  12 824.449 351.605   8
   5  -4  12 1051.21 333.216  12
   5   4  12 1010.95 323.871  16
   5   4  12 592.475 253.833  11
   5   4  12 884.373 310.312   7
   5  -4  13 3128.60 534.729   8
   5  -4  13 3704.76 537.286  12
   5   4  13 4040.94 524.043   7
   5   4  13 3457.46 554.982  11
   5   4  13 4333.29 632.968  16
   5  -4  14 360.156 216.427   8
   5  -4  14 507.900 247.643  12
   5   4  14 274.197 168.610  11
   5   4  14 293.467 213.669   7
   5   4  14 12.2955 189.799  16
   5  -4  15 233.593 284.169   8
   5  -4  15 308.106 229.640  12
   5   4  15-28.2524 226.616  11
   5   4  15 104.690 227.663   7
   5   4  15 438.318 283.437  16
   5  -4  16 3537.23 537.164  12
   5  -4  16 3061.42 497.717   7
   5   4  16 3473.93 513.445   7
   5   4  16 3023.43 545.987  16
   5  -4  16 4255.20 630.595   8
   5  -4  17 4508.45 572.378   7
   5  -4  17 4924.78 628.674  12
   5   4  17 4985.32 570.501   7
   5   4  17 4150.42 644.546  16
   5  -4  17 4956.03 645.887   8
   5  -4  18 1963.62 446.683   8
   5  -4  18 1775.38 421.713  12
   5  -4  18 1309.00 325.401   7
   5   4  18 1552.90 305.471   7
   5   4  18 1314.79 417.636  16
   5  -4  19 262.515 226.436   8
   5  -4  19 652.397 312.627  12
   5  -4  19 195.510 210.566   7
   5   4  19 476.310 207.765   7
   5   4  19 401.225 278.888  16
   5  -4  20 619.170 267.888   8
   5  -4  20 817.511 328.992  12
   5  -4  20 593.052 269.450   7
   5   4  20 365.948 190.106   7
   5   4  20 182.526 219.885  16
   5  -4  21 4279.33 580.872   8
   5  -4  21 4038.85 566.762  12
   5   4  21 4034.04 536.970   7
   5  -4  21 3405.63 500.528   7
   5   4  21 3661.67 631.569  16
   5  -4  22 429.632 285.512   8
   5  -4  22-65.3681 208.056  12
   5  -4  22-307.617 188.701   7
   5   4  22 156.963 167.768   7
   5   4  22-49.0820 211.774  16
   5  -4  23 153.857 213.447   8
   5  -4  23 466.011 269.957  12
   5  -4  23 9.35260 177.005   7
   5   4  23 297.217 207.734   7
   5   4  23 773.498 345.667  16
   5  -4  24 6137.61 641.204   7
   5  -4  24 5960.94 677.021  12
   5   4  24 6157.32 604.182   7
   5   4  24 6803.04 805.736  16
   5  -4  24 7205.34 691.931   8
   5  -4  25 66.7281 179.890   8
   5  -4  25 88.4024 182.606  12
   5   4  25 148.975 176.262   7
   5   4  25 94.9373 276.024  16
   5  -4  26 214.794 168.347   8
   5  -4  26 151.631 200.655  12
   5   4  26 120.166 204.293   7
   5   4  26 212.890 268.866  16
   5  -4  27 219.606 192.733   8
   5  -4  27 233.735 176.144  12
   5   4  27 195.702 159.544   7
   5   4  27 121.893 222.701  16
   5  -4  28 492.959 247.698  12
   5   4  28 305.470 186.616   7
   5   4  28 207.527 249.472  16
   5  -4  29 341.955 181.208  12
   5   4  29 400.179 169.072   7
   5   4  29 480.028 310.451  16
   5  -4  30-165.164 191.032  12
   5   4  30-233.983 239.381  16
   5  -4  31 201.150 146.319  12
   5   4  31 424.816 264.312  16
   5  -4  32 286.555 182.224  12
   5   4  32 570.265 249.868  16
   5  -4  33 660.657 164.829  13
   5  -4  33 357.033 160.767  12
   5   4  33 333.175 177.417  16
   5  -4  34 4340.52 385.165  12
   5   4  34 3296.05 438.518  16
   5  -4  35 142.690 108.989  12
   5   5 -36 7504.00 819.518  14
   5   5 -35 744.043 457.076  14
   5  -5 -35 548.488 160.020  14
  -5  -5  34 12014.9 602.846  10
   5  -5 -34 10891.9 711.976  15
   5   5 -34 10840.5 1104.26  14
   5  -5 -34 10816.6 667.140  14
  -5  -5  33 17.8833 119.306  10
   5  -5 -33-63.8608 152.932  15
   5   5 -33 42.7901 347.672  14
   5  -5 -33 3.17454 147.596  14
   5  -5 -33 691.090 367.934  13
  -5  -5  32 8138.44 574.883  10
   5  -5 -32 8002.72 715.421  15
   5   5 -32 7403.07 1010.44  14
   5  -5 -32 7418.37 611.740  14
  -5  -5  31 957.948 310.785  10
   5  -5 -31 689.207 230.527  15
   5   5 -31 870.531 483.682  14
   5  -5 -31 675.282 236.234  14
   5  -5 -31 520.094 354.199  13
   5  -5 -30 1238.04 378.085  13
  -5  -5  30 1843.06 319.014  10
   5  -5 -30 1499.20 355.848  15
   5   5 -30 1411.89 504.820  14
   5  -5 -30 1228.67 288.402  14
   5  -5 -29 1380.36 502.643  13
  -5  -5  29 468.173 201.851  10
   5  -5 -29 815.388 315.967  15
   5   5 -29 1096.29 492.512  14
   5  -5 -29 535.363 235.619  14
   5  -5 -28 4826.58 701.320  13
  -5  -5  28 6326.03 596.026  10
   5  -5 -28 5908.87 735.164  15
   5  -5 -28 5267.47 608.282  14
   5   5 -28 5163.47 998.043  14
   5  -5 -27 768.983 326.250  13
  -5  -5  27 1575.99 335.107  10
   5   5 -27 1702.28 352.371  15
   5  -5 -27 1197.82 370.346  15
   5   5 -27 1226.77 627.060  14
   5  -5 -27 1258.91 314.533  14
   5  -5 -26 801.647 401.979  13
  -5  -5  26 811.423 278.434  10
   5   5 -26 817.030 243.470  15
   5  -5 -26 947.525 365.306  15
   5   5 -26 1250.83 607.365  14
   5  -5 -26 925.378 342.407  14
  -5  -5  25 7985.99 724.952  10
   5   5 -25 7868.05 759.014  15
   5  -5 -25 8051.79 909.978  15
   5  -5 -25 5966.44 696.195  14
   5   5 -25 7168.88 1172.44  14
   5  -5 -25 6960.59 844.685  13
   5  -5 -24 4371.47 675.269  13
  -5  -5  24 4678.67 593.911  10
   5   5 -24 4628.67 591.473  15
   5  -5 -24 4560.34 697.682  15
   5   5 -24 3568.38 876.742  14
   5  -5 -24 3144.37 514.392  14
   5  -5 -23 1182.28 396.957  13
   5  -5 -23 1661.11 407.879  10
  -5  -5  23 1590.74 359.187  10
   5   5 -23 1431.39 381.884  15
   5  -5 -23 1327.00 525.579  15
   5   5 -23 1701.48 804.222  14
   5  -5 -22 14834.5 1103.93  10
  -5  -5  22 13883.5 1005.21  10
   5   5 -22 13626.2 1078.69  15
   5  -5 -22 14465.1 960.738   9
   5  -5 -22 13802.8 1219.04  15
   5   5 -22 10576.5 1446.48  14
   5  -5 -22 12635.8 1078.86  13
   5  -5 -21 21843.8 1350.20  10
  -5  -5  21 19326.8 1220.67  10
   5   5 -21 20065.8 1339.11  15
   5  -5 -21 19293.5 1144.51   9
   5  -5 -21 21593.6 1554.40  15
   5  -5 -21 18582.8 1298.45  13
   5  -5 -20 801.164 315.097  13
   5  -5 -20 956.419 287.520  10
  -5  -5  20 838.984 300.533  10
   5   5 -20 1016.82 348.943  15
   5  -5 -20 896.628 419.966  15
   5  -5 -20 880.366 315.162   9
   5   5 -20 689.467 511.780  14
   5  -5 -19 6179.27 749.634  10
  -5  -5  19 6162.12 730.033  10
   5   5 -19 6748.39 816.370  15
   5  -5 -19 5733.20 674.813   9
   5  -5 -19 5240.60 825.020  15
   5   5 -19 5004.57 1079.30  14
   5  -5 -19 6963.89 766.669  13
   5  -5 -18 1457.48 420.500  13
   5  -5 -18 451.906 250.258  10
  -5  -5  18 1276.77 399.632  10
   5   5 -18 988.826 374.760  15
   5  -5 -18 712.189 286.405  15
   5  -5 -18 1370.21 363.705   9
   5   5 -18 392.266 474.821  14
   5   5 -17 6176.03 709.878  11
   5  -5 -17 6034.01 734.483  10
  -5  -5  17 5870.66 702.972  10
   5  -5 -17 6204.17 722.769   9
   5   5 -17 5363.73 711.646  15
   5   5 -17 5534.78 1107.36  14
   5  -5 -17 6477.51 729.391  13
   5  -5 -16 2598.20 463.137  13
   5   5 -16 2689.59 462.980  11
   5  -5 -16 2575.13 481.844  10
  -5  -5  16 2672.73 488.284  10
   5   5 -16 2573.96 507.158  15
   5  -5 -16 2219.07 445.850   9
   5   5 -16 2907.98 782.497  14
   5   5 -15 8483.16 817.250  11
   5  -5 -15 8766.39 888.201  10
  -5  -5  15 8362.37 836.292  10
   5   5 -15 8573.56 919.170  15
   5  -5 -15 7573.48 789.855   9
   5   5 -15 6934.42 1241.12  14
   5  -5 -15 8839.37 805.680  13
   5   5 -14 15097.1 1108.98  11
   5  -5 -14 13779.0 1108.13  10
  -5  -5  14 14468.2 1075.28  10
   5   5 -14 13459.8 1165.82  15
   5  -5 -14 14214.7 1091.36   9
   5   5 -14 12276.1 1639.01  14
   5  -5 -14 13167.8 982.543  13
   5   5 -13 18073.3 1234.04  11
   5  -5 -13 15811.1 1146.80  10
  -5  -5  13 16012.7 1138.04  10
   5   5 -13 15427.2 1244.48  15
   5  -5 -13 17959.8 1192.99   9
   5   5 -13 14150.0 1779.34  14
   5  -5 -13 15337.1 1035.33  13
   5  -5 -12 2493.03 440.972  10
  -5  -5  12 3053.08 582.458  10
   5   5 -12 2959.68 570.281  15
   5  -5 -12 2680.99 479.923   9
   5   5 -12 3014.36 860.789  14
   5  -5 -12 3042.70 524.430  13
   5  -5 -11 30444.1 1564.69  10
  -5  -5  11 32026.0 1596.55  10
   5   5 -11 31682.1 1826.79  15
   5  -5 -11 34963.2 1686.95   9
   5   5 -11 25445.3 2420.28  14
   5  -5 -11 28850.2 1383.89  13
   5  -5 -10 22064.6 1335.86  10
  -5  -5  10 22163.9 1312.32  10
   5   5 -10 24402.6 1580.37  15
   5  -5 -10 24655.5 1432.29   9
   5  -5 -10 23093.3 1221.95  13
   5  -5  -9 3998.35 642.774  10
  -5  -5   9 4144.77 640.634  10
   5   5  -9 5149.24 848.496  15
   5  -5  -9 4074.00 685.176   9
   5   5  -9 5206.12 1485.82  14
   5  -5  -9 6165.21 697.346  13
   5  -5  -8 29280.7 1538.56  10
  -5  -5   8 33156.8 1586.56  10
   5   5  -8 34319.8 1872.72  15
   5  -5  -8 34584.5 1727.38   9
   5   5  -8 30240.7 2616.65  14
   5  -5  -8 30583.2 1378.00  13
  -5  -5   7 2011.19 619.945  10
   5  -5  -7 1079.15 452.805  10
   5   5  -7 3231.58 783.656  15
   5  -5  -7 2351.74 651.873   9
   5   5  -7 4877.72 1466.83  14
   5  -5  -7 6323.50 744.525  13
   5  -5  -6 39857.8 1746.94  10
  -5  -5   6 42112.9 1785.99  10
   5   5  -6 47497.5 2180.65  15
   5  -5  -6 46542.5 1993.07   9
   5   5  -6 36228.3 2824.28  14
   5  -5  -6 41469.6 1604.50  13
   5  -5  -5 796.925 413.191  10
  -5  -5   5 1020.85 397.850  10
   5   5  -5 1921.46 680.132  15
   5  -5  -4 23580.0 1304.47  10
  -5  -5   4 27481.8 1484.36  10
   5   5  -4 30025.5 1787.17  15
   5  -5  -4 27365.3 1544.86   9
   5  -5  -4 22836.0 1238.81   8
   5  -5  -4 31828.7 1474.01  13
  -5  -5   3 40010.8 1712.98  10
   5   5  -3 38903.9 1939.54  15
   5  -5  -3 41421.9 1677.80   8
   5  -5  -3 39435.9 1559.71  13
   5  -5  -2 2161.94 462.771   8
  -5  -5   2 1384.55 370.494  10
   5   5  -2 1758.97 555.835  15
   5  -5  -2 2814.58 642.710   9
  -5  -5   1 16545.3 1119.19  10
   5   5  -1 14802.2 1255.66  15
   5  -5  -1 16339.7 1162.51   9
   5  -5  -1 15940.6 1071.28   8
   5  -5  -1 14101.8 956.133  13
  -5  -5   0 27604.6 1400.40  10
   5   5   0 26042.5 1621.41  15
   5  -5   0 28420.7 1542.57   9
   5  -5   0 26919.1 1388.49   8
   5  -5   0 29790.9 1407.37  13
  -5  -5  -1 25434.6 1329.50  10
   5   5   1 30557.5 1567.65  16
   5   5   1 25045.2 1547.29  15
   5  -5   1 26413.6 1485.08   9
   5  -5   1 25466.6 1383.46   8
   5  -5   1 27719.6 1346.05  13
   5  -5   2 5796.42 630.446  12
   5   5   2 10039.1 1018.90  16
   5   5   2 6057.30 803.754  15
   5  -5   2 7131.60 808.131   9
   5  -5   2 6375.67 727.825   8
   5  -5   2 10579.6 1052.57  13
   5  -5   3 21919.2 1129.51  12
   5   5   3 26705.2 1585.45  11
   5   5   3 23515.8 1340.73  16
   5   5   3 23075.6 1466.04  15
   5  -5   3 23768.0 1407.68   9
   5  -5   3 25103.8 1390.26   8
   5  -5   3 23598.3 1259.76  13
   5  -5   4 2158.41 480.481   8
   5  -5   4 1775.44 367.992  12
   5   5   4 1426.98 410.920  11
   5   5   4 1775.06 446.883   7
   5   5   4 1478.38 383.218  16
   5   5   4 1430.74 413.621  15
   5  -5   4 2753.55 547.099   9
   5  -5   4 3259.63 574.082  13
   5  -5   5-86.0375 181.105   8
   5  -5   5 183.910 199.288  13
   5  -5   5 147.094 211.611  12
   5   5   5-32.8846 207.675  11
   5   5   5 661.390 312.245   7
   5   5   5 219.029 188.324  16
   5  -5   5-54.7726 256.292   9
   5  -5   6 129.595 227.649   8
   5  -5   6 336.894 346.113  13
   5  -5   6-251.727 217.755  12
   5   5   6 383.076 315.621  11
   5   5   6 486.174 247.141   7
   5   5   6 460.515 368.076  16
   5  -5   6 6.68664 234.980   9
   5  -5   7 14167.3 938.295  12
   5   5   7 16470.7 1055.08   7
   5   5   7 15739.8 1202.98  11
   5   5   7 14892.5 1112.71  16
   5  -5   7 14108.3 1074.22   9
   5  -5   7 14699.7 1099.21   8
   5  -5   7 13973.7 1000.42  13
   5  -5   8 927.847 359.263   8
   5  -5   8 1630.89 442.039  13
   5  -5   8 922.292 271.851  12
   5   5   8 1152.04 361.335  11
   5   5   8 898.564 289.702   7
   5   5   8 1454.37 369.886  16
   5  -5   8 951.954 324.670   9
   5  -5   9 1069.83 321.587   8
   5  -5   9 795.015 318.879  13
   5  -5   9 807.430 265.937  12
   5   5   9 820.378 316.375  11
   5   5   9 798.361 280.210   7
   5   5   9 539.896 272.932  16
   5  -5   9 885.203 292.031   9
   5  -5  10 4660.48 557.142  12
   5   5  10 6129.28 645.015   7
   5   5  10 5674.98 698.834  11
   5   5  10 4411.82 625.170  16
   5  -5  10 5785.62 681.822   9
   5  -5  10 5915.27 703.654   8
   5  -5  10 4666.92 601.232  13
   5  -5  11 4467.25 548.484  12
   5   5  11 5382.45 612.014   7
   5   5  11 4886.96 657.392  11
   5   5  11 4565.99 655.171  16
   5  -5  11 4701.64 589.910   9
   5  -5  11 4657.41 653.052   8
   5  -5  11 4128.41 541.181  13
   5  -5  12 465.371 314.355   8
   5  -5  12 275.408 211.964  13
   5  -5  12 309.830 176.025  12
   5   5  12 543.118 260.745  11
   5   5  12 208.938 162.248   7
   5   5  12 354.655 246.102  16
   5  -5  13 4667.44 566.359  12
   5   5  13 4061.14 528.777   7
   5   5  13 4192.86 604.912  11
   5   5  13 4656.73 671.629  16
   5  -5  13 4692.25 632.272   8
   5  -5  13 3564.74 570.194  13
   5  -5  14 1200.49 381.197   8
   5  -5  14 874.901 299.311  13
   5  -5  14 859.769 259.803  12
   5   5  14 554.263 301.477  11
   5   5  14 940.920 269.820   7
   5   5  14 785.550 326.283  16
   5  -5  15 239.292 249.533   8
   5  -5  15 510.452 244.924  13
   5  -5  15 275.082 231.333  12
   5   5  15 129.896 175.257  11
   5   5  15 108.332 164.690   7
   5   5  15 60.1947 198.346  16
   5  -5  16 2054.45 459.574   8
   5  -5  16 1225.41 316.483  13
   5  -5  16 1624.43 360.957  12
   5   5  16 1568.52 342.353   7
   5   5  16 1523.52 435.736  16
   5  -5  17 2656.45 468.051   8
   5  -5  17 2733.39 452.109  13
   5  -5  17 2554.67 412.305  12
   5   5  17 2987.66 444.469   7
   5   5  17 2323.61 519.733  16
   5  -5  18 14694.8 951.040  12
   5   5  18 15015.8 941.772   7
   5   5  18 14181.4 1137.55  16
   5  -5  18 16308.0 1104.43   8
   5  -5  18 12128.2 899.487  13
   5  -5  19 3906.88 484.564  13
   5  -5  19 4187.83 506.869  12
   5   5  19 4368.74 511.042   7
   5   5  19 3916.77 599.628  16
   5  -5  19 4988.70 631.426   8
   5  -5  20 3966.17 544.359   8
   5  -5  20 2885.19 404.109  13
   5  -5  20 3240.53 447.131  12
   5   5  20 3359.75 449.222   7
   5   5  20 3921.41 618.679  16
   5  -5  21 9970.49 784.765  12
   5   5  21 10264.5 736.759   7
   5   5  21 10506.6 983.587  16
   5  -5  21 11368.6 860.806   8
   5  -5  21 8985.40 724.191  13
   5  -5  22 28847.7 1282.17  12
   5   5  22 31310.6 1247.25   7
   5   5  22 30929.6 1644.67  16
   5  -5  22 34405.2 1430.54   8
   5  -5  22 26821.4 1209.60  13
   5  -5  23 14150.5 885.807  12
   5   5  23 15087.0 839.244   7
   5   5  23 16359.8 1150.40  16
   5  -5  23 17208.4 983.623   8
   5  -5  23 13376.9 839.531  13
   5  -5  24 17142.1 962.089  12
   5   5  24 17251.4 859.996   7
   5   5  24 19269.4 1250.31  16
   5  -5  24 19636.7 1024.09   8
   5  -5  24 15583.3 883.238  13
   5  -5  25 1805.66 298.294   8
   5  -5  25 1763.61 303.837  13
   5  -5  25 1829.64 343.555  12
   5   5  25 1491.88 437.215  16
   5  -5  26 6220.78 563.524  12
   5   5  26 6606.64 714.092  16
   5  -5  26 6506.56 533.834   8
   5  -5  26 5365.40 490.836  13
   5  -5  27 1569.04 263.479  13
   5  -5  27 1729.52 286.645  12
   5   5  27 2348.80 440.882  16
   5  -5  27 1846.86 286.449   8
   5  -5  28 4155.30 405.774  12
   5   5  28 4867.28 584.557  16
   5  -5  28 4431.28 384.216   8
   5  -5  28 3266.27 352.058  13
   5  -5  29 120.895 135.042  13
   5  -5  29 111.394 142.166  12
   5   5  29-35.1438 168.909  16
   5  -5  30 276.334 116.195  13
   5  -5  30 464.722 170.276  12
   5   5  30 85.8126 153.661  16
   5  -5  31 570.360 148.478  12
   5   5  31 182.689 138.365  16
  -5  -6  30 207.414 134.306  10
   5  -6 -30 594.022 201.628  15
   5   6 -30-11.6803 319.800  14
  -5  -6  29 3422.61 339.540  10
   5  -6 -29 3155.34 447.735  15
   5   6 -29 3094.10 721.815  14
   5  -6 -29 2029.78 436.682  13
   5  -6 -28 21.3081 244.067  13
  -5  -6  28 624.478 169.039  10
   5  -6 -28 275.011 214.951  15
   5   6 -28-173.683 353.633  14
   5  -6 -28 304.579 152.702  14
   5  -6 -27 3141.16 523.309  13
  -5  -6  27 4557.01 430.546  10
   5  -6 -27 4444.77 538.465  15
   5  -6 -27 3232.95 391.621  14
   5   6 -27 2256.83 635.257  14
   5  -6 -26 1277.62 369.600  13
  -5  -6  26 1163.20 255.126  10
   5  -6 -26 841.615 294.328  15
   5   6 -26 892.043 464.655  14
   5  -6 -26 847.630 223.491  14
   5  -6 -25 563.149 295.427  13
  -5  -6  25 67.1102 167.838  10
   5  -6 -25-578.366 270.158  15
   5   6 -25 235.155 467.316  14
   5  -6 -25 394.381 198.960  14
  -5  -6  24 10375.4 739.061  10
   5   6 -24 9672.61 1286.99  14
   5  -6 -24 8523.60 691.903  14
   5  -6 -24 9397.49 876.199  13
  -5  -6  23 6268.85 589.160  10
   5  -6 -23 5945.01 698.168  15
   5  -6 -23 4072.91 494.666  14
   5   6 -23 4790.87 971.776  14
   5  -6 -23 5405.25 684.949  13
   5  -6 -22 9235.01 789.130  10
  -5  -6  22 9378.06 746.492  10
   5   6 -22 8408.38 722.786  15
   5  -6 -22 10849.5 963.767  15
   5  -6 -22 6552.69 627.185  14
   5   6 -22 8679.66 1271.05  14
   5  -6 -22 8821.76 856.917  13
   5  -6 -21 7688.05 726.366  10
  -5  -6  21 6798.17 630.268  10
   5   6 -21 6238.11 645.875  15
   5  -6 -21 7088.11 604.750   9
   5  -6 -21 7893.60 842.708  15
   5   6 -21 4955.32 930.177  14
   5  -6 -21 6784.17 780.444  13
   5  -6 -20 9992.78 834.561  10
  -5  -6  20 9114.31 761.264  10
   5   6 -20 8966.98 798.351  15
   5  -6 -20 9989.96 961.195  15
   5  -6 -20 8696.96 695.401   9
   5   6 -20 7971.23 1256.84  14
   5  -6 -20 9785.20 863.122  13
   5  -6 -19 15031.9 1039.94  10
  -5  -6  19 14353.4 947.314  10
   5   6 -19 13367.7 1002.49  15
   5  -6 -19 14822.3 1180.57  15
   5  -6 -19 13462.9 903.773   9
   5   6 -19 10800.6 1439.02  14
   5  -6 -19 15415.4 1091.88  13
   5  -6 -18 10873.1 876.346  10
  -5  -6  18 9649.94 807.766  10
   5   6 -18 9643.66 885.565  15
   5  -6 -18 9800.47 784.400   9
   5  -6 -18 9970.80 988.810  15
   5   6 -18 7258.37 1294.45  14
   5  -6 -18 9599.34 882.999  13
   5   6 -17 25386.8 1265.80  11
   5  -6 -17 24854.6 1348.00  10
  -5  -6  17 25122.2 1315.56  10
   5   6 -17 21799.7 1341.24  15
   5  -6 -17 25583.4 1285.86   9
   5  -6 -17 21736.2 1463.11  15
   5  -6 -17 23446.5 1313.76  13
   5   6 -16 3790.11 518.038  11
   5  -6 -16 3652.10 531.996  10
  -5  -6  16 3678.19 532.342  10
   5   6 -16 3511.09 572.103  15
   5  -6 -16 2946.52 586.923  15
   5  -6 -16 3632.74 526.326   9
   5   6 -16 1665.67 587.049  14
   5  -6 -16 3666.63 546.625  13
   5   6 -15 8929.76 817.211  11
   5  -6 -15 8321.07 778.386  10
  -5  -6  15 8733.26 799.385  10
   5   6 -15 7874.02 838.640  15
   5  -6 -15 8053.25 751.997   9
   5  -6 -15 6107.30 813.765  15
   5   6 -15 6412.86 1223.05  14
   5  -6 -15 8898.34 788.393  13
   5  -6 -14 240.588 283.294  13
   5   6 -14 45.7321 160.822  11
   5  -6 -14-6.00028 202.905  10
  -5  -6  14-85.5470 224.352  10
   5   6 -14-305.282 296.159  15
   5  -6 -14-349.755 247.186   9
   5   6 -14-24.2632 622.709  14
   5   6 -13 13535.3 1030.97  11
   5  -6 -13 13951.1 1040.97  10
  -5  -6  13 13733.9 1001.72  10
   5   6 -13 11678.1 1059.86  15
   5  -6 -13 14821.9 1081.42   9
   5  -6 -13 13236.4 942.409  13
   5  -6 -12 181.959 277.032  13
   5   6 -12-113.730 203.606  11
   5  -6 -12 94.6208 218.293  10
  -5  -6  12 602.104 306.295  10
   5   6 -12 66.5598 245.349  15
   5  -6 -12 439.482 360.530   9
   5  -6 -11 2959.08 471.883  13
   5   6 -11 3030.02 523.458  11
   5  -6 -11 2917.82 486.768  10
  -5  -6  11 2930.74 483.165  10
   5   6 -11 2931.04 560.035  15
   5  -6 -11 3029.07 551.617   9
   5   6 -10 5049.29 687.254  11
   5  -6 -10 4708.65 612.198  10
  -5  -6  10 5360.27 647.061  10
   5  -6 -10 5930.16 731.267   9
   5   6 -10 4716.98 712.681  15
   5  -6 -10 5796.62 638.384  13
   5  -6  -9 489.616 333.322  13
   5   6  -9 94.7864 276.873  11
   5  -6  -9 289.652 216.997  10
  -5  -6   9 87.7635 276.643  10
   5   6  -9 348.992 331.391  15
   5  -6  -9 439.845 301.805   9
   5   6  -8 3490.69 564.490  11
   5  -6  -8 3143.05 539.022  10
  -5  -6   8 3932.36 562.694  10
   5   6  -8 3507.32 737.581  15
   5  -6  -8 3495.23 530.285   9
   5  -6  -8 3558.55 502.197  13
   5  -6  -7 3811.40 538.646  10
  -5  -6   7 4253.36 580.414  10
   5   6  -7 4401.59 702.247  15
   5  -6  -7 3973.47 610.644   9
   5  -6  -7 5642.21 668.310  13
   5  -6  -6 7536.21 740.306  10
  -5  -6   6 8155.69 778.738  10
   5   6  -6 8326.37 922.606  15
   5  -6  -6 9467.07 905.297   9
   5  -6  -6 8378.80 771.254  13
   5  -6  -5 433.150 266.172  10
  -5  -6   5 461.475 282.950  10
   5   6  -5 285.066 319.091  15
   5  -6  -5 777.736 400.270   9
   5  -6  -4 537.937 239.958  13
   5  -6  -4 516.988 248.910  10
  -5  -6   4 374.704 214.995  10
   5   6  -4 749.625 374.554  15
   5  -6  -4 263.942 249.564   9
   5  -6  -3 816.047 269.794   8
   5  -6  -3 1282.22 390.689  13
   5  -6  -3 1213.08 311.176  10
  -5  -6   3 1359.64 346.620  10
   5   6  -3 2252.71 526.966  16
   5  -6  -3 1127.83 402.693   9
   5  -6  -2 1551.97 339.134   8
   5   6  -2 3282.16 605.568  11
  -5  -6   2 3257.82 553.669  10
   5   6  -2 4439.94 655.593  16
   5  -6  -2 2386.53 477.776   9
   5  -6  -2 5931.16 694.773  13
   5   6  -1 14557.2 1150.48  11
  -5  -6   1 14810.6 1018.25  10
   5   6  -1 14945.5 1062.04  16
   5  -6  -1 14792.8 1092.21   9
   5  -6  -1 13675.4 956.147   8
   5  -6  -1 13538.7 941.595  13
   5  -6   0 890.508 294.879   8
   5   6   0 1062.61 457.017  11
  -5  -6   0 893.850 346.153  10
   5  -6   0 1454.15 481.953   9
   5   6   1 13222.9 1072.56  11
  -5  -6  -1 14241.0 989.308  10
   5   6   1 14112.6 1032.32  16
   5  -6   1 13240.0 1063.81   9
   5  -6   1 13759.1 966.660   8
   5  -6   1 12906.9 933.386  13
   5  -6   2 2232.70 438.214   8
   5   6   2 4225.00 715.381   7
   5   6   2 2837.79 645.868  11
  -5  -6  -2 2779.10 463.826  10
   5  -6   2 2689.64 539.442   9
   5   6   3 36231.4 1549.49   7
   5   6   3 34668.2 1747.37  11
  -5  -6  -3 35363.6 1490.44  10
   5   6   3 35617.7 1643.11  16
   5  -6   3 34504.3 1643.03   9
   5  -6   3 33371.8 1510.33   8
   5  -6   3 33222.3 1457.53  13
   5   6   4 5506.05 608.580   7
   5   6   4 5285.02 700.063  11
   5  -6   4 7485.59 802.049   9
   5  -6   4 6256.27 695.168   8
   5   6   5 5696.50 626.574   7
   5   6   5 5997.76 732.491  11
   5   6   5 6547.84 732.579  16
   5  -6   5 5308.89 626.823   8
   5  -6   5 6054.05 680.310   9
   5  -6   5 8094.18 740.393  13
   5  -6   6 1437.30 349.935   8
   5   6   6 2159.51 442.775  11
   5   6   6 1603.57 385.372   7
   5   6   6 2483.10 495.469  16
   5  -6   6 1485.55 399.733   9
   5  -6   7 3366.52 544.854   8
   5   6   7 3457.28 574.805  11
   5   6   7 3508.22 484.512   7
   5   6   7 3850.13 621.339  16
   5  -6   7 3142.03 495.235   9
   5  -6   7 4863.84 609.518  13
   5   6   8 7410.10 678.914   7
   5   6   8 7489.85 813.548  11
   5   6   8 9825.93 895.275  16
   5  -6   8 7499.44 725.971   9
   5  -6   8 7205.90 738.269   8
   5  -6   8 8368.55 732.120  13
   5  -6   9 2662.34 486.906   8
   5   6   9 2570.65 485.964  11
   5   6   9 2572.02 418.168   7
   5   6   9 2970.92 582.824  16
   5  -6   9 2382.66 412.026   9
   5  -6   9 4373.08 610.142  13
   5   6  10 12529.6 840.359   7
   5   6  10 12082.1 974.074  11
   5   6  10 14284.7 1056.54  16
   5  -6  10 12512.4 890.867   9
   5  -6  10 10961.8 902.233   8
   5  -6  10 12778.1 875.068  13
   5  -6  11-60.5863 219.318   8
   5  -6  11 87.7439 253.208  13
   5   6  11 360.980 201.283  11
   5   6  11 303.150 191.400   7
   5   6  11 323.584 236.466  16
   5  -6  11 150.987 158.392   9
   5  -6  12 1033.33 342.724   8
   5  -6  12 2026.77 382.410  13
   5   6  12 1442.08 339.159  11
   5   6  12 1231.24 267.080   7
   5   6  12 2254.69 422.137  16
   5   6  13 15169.4 883.610   7
   5   6  13 14658.9 979.245  11
   5   6  13 14242.3 1045.96  16
   5  -6  13 15398.8 1035.07   8
   5  -6  13 12924.0 866.436  13
   5   6  14 8939.01 665.692   7
   5   6  14 8440.04 709.160  11
   5   6  14 9945.47 879.344  16
   5  -6  14 8590.32 761.944   8
   5  -6  14 8394.86 715.912  13
   5  -6  15 22178.3 987.468  12
   5   6  15 24121.8 1075.53   7
   5   6  15 25648.2 1384.25  16
   5  -6  15 26148.4 1282.75   8
   5  -6  15 22094.6 1099.14  13
   5  -6  16 1581.99 318.753   8
   5  -6  16 1886.55 346.314  13
   5  -6  16 974.671 190.315  12
   5   6  16 1263.51 261.181   7
   5   6  16 1676.60 440.821  16
   5  -6  17 13298.6 742.411  12
   5   6  17 14550.8 797.868   7
   5   6  17 13820.8 1031.44  16
   5  -6  17 11938.3 800.895  13
   5  -6  18-86.6654 168.454   8
   5  -6  18 51.8058 128.123  13
   5  -6  18 106.890 158.708  12
   5   6  18 62.1078 144.796   7
   5   6  18 484.979 288.265  16
   5  -6  19 2999.86 361.774  12
   5   6  19 3381.55 488.238  16
   5  -6  19 3634.91 466.795   8
   5  -6  19 2928.42 383.835  13
   5  -6  20 3105.61 426.451   8
   5  -6  20 2133.57 316.379  13
   5  -6  20 2305.60 313.098  12
   5   6  20 2154.69 425.982  16
   5  -6  21 3120.90 335.271  12
   5   6  21 4273.93 544.912  16
   5  -6  21 4478.80 461.699   8
   5  -6  21 3032.25 358.675  13
   5  -6  22 860.762 229.411   8
   5  -6  22 651.749 205.933  13
   5  -6  22 772.144 184.572  12
   5   6  22 1004.60 292.012  16
   5  -6  23 201.172 162.957   8
   5  -6  23-51.3053 118.910  13
   5  -6  23 296.403 151.026  12
   5   6  23 77.8492 179.997  16
   5  -6  24-211.747 135.052   8
   5  -6  24 297.614 132.665  13
   5  -6  24 201.278 101.591  12
   5   6  24 208.807 196.984  16
   5  -6  25 247.879 115.934  13
   5   6  25 527.240 222.425  16
   5  -6  25 468.273 146.574   8
   5   6  26-267.817 200.117  16
  -5  -7  23 134.721 135.376  10
   5  -7 -23-133.894 150.005  15
  -5  -7  22 7324.10 494.702  10
   5  -7 -22 6336.03 570.270  15
   5  -7 -21 141.349 186.409  13
  -5  -7  21-127.454 141.852  10
   5  -7 -21-377.029 223.979  15
  -5  -7  20 5719.98 481.038  10
   5  -7 -20 4136.54 511.124  15
   5  -7 -20 5243.11 551.377  13
   5  -7 -19 669.160 244.378  13
  -5  -7  19 716.987 229.661  10
   5  -7 -19 285.947 189.070  15
   5  -7 -18 1192.56 297.444  13
  -5  -7  18 1195.62 245.069  10
   5  -7 -18 1387.85 367.137  15
   5  -7 -18 1065.11 233.294   9
   5  -7 -17 2071.00 384.687  13
   5  -7 -17 2301.36 359.893  10
  -5  -7  17 2228.99 318.810  10
   5  -7 -17 2010.48 393.425  15
   5  -7 -17 2435.12 336.497   9
   5  -7 -16 2640.19 398.074  13
   5   7 -16 2087.17 315.171  11
   5  -7 -16 2086.34 337.524  10
  -5  -7  16 2884.39 387.797  10
   5  -7 -16 2031.56 386.275  15
   5  -7 -16 2249.20 349.918   9
   5  -7 -15-137.567 156.544  13
   5   7 -15-37.7964 128.811  11
   5  -7 -15-107.608 187.534  10
  -5  -7  15 118.560 164.652  10
   5  -7 -15-261.538 203.094  15
   5  -7 -15-18.7828 183.805   9
   5   7 -14 2599.61 380.420  11
  -5  -7  14 3762.86 452.823  10
   5  -7 -14 2855.70 399.778  10
   5  -7 -14 2414.86 447.813  15
   5  -7 -14 2399.84 363.834   9
   5  -7 -14 3836.21 468.189  13
   5   7 -13 7233.77 624.457  11
   5  -7 -13 7010.51 618.191  10
  -5  -7  13 7514.03 632.930  10
   5  -7 -13 7043.65 720.400  15
   5  -7 -13 7178.53 646.442   9
   5  -7 -13 8386.00 693.202  13
   5  -7 -12 1944.26 382.498  13
   5   7 -12 928.476 304.116  11
   5  -7 -12 1076.87 250.611  10
  -5  -7  12 1246.43 285.038  10
   5  -7 -12 1126.99 341.942  15
   5  -7 -12 1098.08 285.472   9
   5   7 -11 3764.94 501.267  11
   5  -7 -11 3996.58 467.773  10
  -5  -7  11 5287.62 556.655  10
   5   7 -11 4464.35 535.798  16
   5  -7 -11 3948.57 512.526   9
   5  -7 -11 3402.33 514.851  15
   5   7 -10 11765.1 848.359  11
   5  -7 -10 10329.0 745.192  10
  -5  -7  10 11629.4 796.633  10
   5   7 -10 12939.4 851.819  16
   5  -7 -10 11358.6 833.520   9
   5  -7 -10 9712.25 810.994  15
   5  -7 -10 13283.1 870.130  13
   5   7  -9 1057.57 284.544  11
   5  -7  -9 1078.71 285.353  10
  -5  -7   9 1263.61 319.955  10
   5  -7  -9 1009.41 294.534  15
   5  -7  -9 827.849 297.389   9
   5   7  -8 7023.71 674.314  11
   5  -7  -8 5952.04 569.654  10
  -5  -7   8 6610.66 617.308  10
   5   7  -8 7626.49 697.398  16
   5  -7  -8 6771.38 688.894   9
   5  -7  -8 5277.62 601.788  15
   5  -7  -8 8785.85 719.034  13
   5   7  -7 6064.65 647.003  11
   5  -7  -7 5892.20 573.494  10
  -5  -7   7 5368.88 565.715  10
   5   7  -7 6900.74 673.969  16
   5  -7  -7 6108.22 665.611   9
   5   7  -6 3952.61 566.015  11
   5  -7  -6 3101.88 426.561  10
  -5  -7   6 4472.99 559.972  10
   5  -7  -6 3445.06 539.141   9
   5   7  -5 21801.2 1230.01  11
   5  -7  -5 18658.2 958.393  10
  -5  -7   5 22627.6 1109.62  10
   5   7  -5 22605.6 1161.17  16
   5  -7  -5 22457.0 1205.07   9
   5   7  -4 12837.4 841.874   7
   5   7  -4 13088.4 983.455  11
  -5  -7   4 13892.6 878.811  10
   5   7  -4 28028.3 1385.87  16
   5  -7  -4 13460.4 949.209   9
   5  -7  -4 33061.4 1315.82  13
   5   7  -3 29477.1 1218.67   7
   5   7  -3 28894.7 1414.47  11
  -5  -7   3 28562.4 1242.77  10
   5   7  -3 36340.9 1456.45  16
   5  -7  -3 30059.1 1382.30   9
   5  -7  -3 35527.5 1338.10  13
   5   7  -2 7577.49 724.552   7
   5  -7  -2 6618.82 718.250   9
   5   7  -1 31737.1 1254.72   7
   5   7  -1 30777.3 1469.09  11
  -5  -7   1 31504.0 1281.22  10
   5   7  -1 30509.0 1359.63  16
   5  -7  -1 31884.3 1438.33   9
   5  -7  -1 32809.8 1290.54  13
   5   7   0 4138.30 503.947   7
   5   7   0 3254.37 499.008  11
  -5  -7   0 3691.77 465.570  10
   5   7   0 15334.2 1033.95  16
   5  -7   0 6285.17 647.232   9
   5  -7   0 5158.56 499.674   8
   5  -7   1 1048.11 252.221   8
   5   7   1 1185.18 311.188  11
   5   7   1 1432.08 303.487   7
   5   7   1 3255.69 510.607  16
  -5  -7  -1 1697.89 316.694  10
   5  -7   1 1685.08 399.750   9
   5  -7   1 3677.90 484.350  13
   5  -7   2 1837.78 318.154   8
   5   7   2 1934.44 393.587  11
   5   7   2 2050.77 325.182   7
  -5  -7  -2 2228.16 337.998  10
   5   7   2 2969.10 474.948  16
   5  -7   2 2147.42 393.846   9
   5  -7   2 2745.09 411.026  13
   5  -7   3 430.678 209.564   8
   5  -7   3 1597.49 341.431  13
   5   7   3 656.539 289.983  11
   5   7   3 578.221 206.427   7
   5   7   3 1506.63 359.660  16
   5  -7   3 1107.84 337.465   9
   5  -7   4 575.690 198.873   8
   5  -7   4 693.227 234.658  13
   5   7   4 429.689 233.848  11
   5   7   4 278.497 160.920   7
   5   7   4 1062.50 314.060  16
   5  -7   4 868.234 274.463   9
   5  -7   5 63.4181 132.258   8
   5   7   5 233.037 237.929  11
   5   7   5 180.838 139.432   7
   5   7   5 290.340 198.299  16
   5  -7   5-13.1884 160.123   9
   5  -7   6 2341.70 381.470   8
   5   7   6 3050.96 368.012   7
   5   7   6 2031.91 349.603  11
   5   7   6 2604.63 418.744  16
   5  -7   6 2046.62 350.751   9
   5  -7   6 2767.83 407.915  13
   5  -7   7 1808.98 315.611   8
   5  -7   7 2033.41 346.497  13
   5   7   7 1700.73 341.921  11
   5   7   7 2190.15 312.880   7
   5   7   7 2210.69 383.816  16
   5  -7   7 2121.36 353.961   9
   5  -7   8 234.107 197.574   8
   5  -7   8 621.395 270.766  13
   5   7   8 73.6107 147.507  11
   5   7   8 192.194 121.881   7
   5   7   8 146.450 211.308  16
   5  -7   8 123.052 168.028   9
   5   7   9 5435.09 460.307   7
   5   7   9 4377.37 512.325  11
   5   7   9 5090.87 593.163  16
   5  -7   9 5298.14 498.475   9
   5  -7   9 5254.72 525.189   8
   5  -7   9 4925.95 484.058  13
   5  -7  10 753.136 251.105   8
   5  -7  10 948.167 257.002  13
   5   7  10 433.749 203.340  11
   5   7  10 847.451 188.913   7
   5   7  10 1147.12 337.286  16
   5  -7  10 681.891 211.270   9
   5  -7  11-116.028 148.167   8
   5  -7  11 35.4055 108.651  13
   5   7  11 145.985 131.554  11
   5   7  11 370.772 151.005   7
   5   7  11 544.958 216.781  16
   5  -7  12 2223.92 344.224   8
   5  -7  12 1939.85 290.944  13
   5   7  12 1400.89 253.280  11
   5   7  12 2307.54 372.012  16
   5  -7  13 1628.76 290.751   8
   5  -7  13 1273.51 231.025  13
   5   7  13 1846.29 349.171  16
   5  -7  14 136.404 150.521   8
   5  -7  14 376.707 141.243  13
   5   7  14 471.046 229.219  16
   5  -7  15-2.17016 147.732   8
   5  -7  15 143.119 108.428  13
   5   7  15-1.12968 159.624  16
   5  -7  16 2902.30 350.908   8
   5  -7  16 1650.03 232.835  13
   5   7  16 2397.78 365.724  16
   5   7  17 3150.68 408.522  16
   5  -7  17 3423.65 374.790   8
   5  -7  17 2240.88 253.152  13
   5  -7  18 32.4449 132.636   8
   5  -7  18-81.5227 95.6012  13
   5  -7  19 10451.5 561.732   8
   5   8  -7 16060.1 722.448  11
   5  -8  -7 19703.7 800.896   9
   5   8  -6 349.579 146.439  11
   5  -8  -6 1490.22 254.149   9
   5   8  -5 2717.42 326.422  11
   5  -8  -5 3595.74 367.345   9
   5   8  -4 4235.97 399.562  11
   5  -8  -4 5640.03 447.700   9
   5   8  -3 1068.35 229.922  11
   5  -8  -3 2008.88 290.997   9
   5   8  -2 1666.90 276.554  11
   5  -8  -2 1732.11 263.223   9
   5   8  -1 425.932 175.757  11
   5  -8  -1 1228.18 220.422   9
   5   8   0 459.984 177.708  11
   5  -8   0 667.215 176.473   9
   5   8   1 706.312 217.783  11
   5  -8   1 755.937 191.551   9
   5   8   2 7001.75 516.195  11
   6   0 -42-36.7307 162.650  14
   6   0 -41 11.7061 162.248  14
   6   0 -40 5268.14 573.261  14
   6   0 -39 124.024 178.087  14
   6   0 -38 7909.39 765.699  14
   6   0 -37 205.795 173.686  15
   6   0 -37-328.313 244.023  14
   6   0 -36 6926.92 693.066  15
   6   0 -36 7768.95 803.719  14
   6   0 -35 105.168 209.084  15
   6   0 -35-81.8701 172.761  14
   6   0 -34 2977.81 502.572  15
   6   0 -34 3362.12 561.779  14
   6   0 -33 215.105 240.515  15
   6   0 -33 152.155 235.551  14
   6   0 -32 17198.3 1260.49  15
   6   0 -32 17058.4 1232.29  14
   6   0 -31-105.634 224.807  15
   6   0 -31-246.049 187.604  14
   6   0 -30 15618.6 1240.24  15
   6   0 -30 15637.5 1186.69  14
   6   0 -29-87.7417 215.122  15
   6   0 -29 244.018 221.884  14
   6   0 -28 5311.29 755.979  15
   6   0 -28 4544.45 657.010  14
   6   0 -27-511.041 392.526  15
   6   0 -27-349.034 328.737  14
   6   0 -26 2171.20 479.384  15
   6   0 -26 2296.61 495.343  14
   6   0 -25 231.415 299.380  15
   6   0 -25-217.891 217.840  14
   6   0 -24 91150.6 3061.55  15
   6   0 -24 81107.7 2616.10  14
   6   0 -23-1.83786 183.536   9
   6   0 -23 378.342 351.732  15
   6   0 -23-13.6901 220.648  14
   6   0 -23 628.658 672.998   5
   6   0 -22 134.488 180.155   9
   6   0 -22-144.199 224.248  15
   6   0 -22 209.837 469.926   5
   6   0 -21-251.644 164.114   9
   6   0 -21-151.180 262.041  15
   6   0 -21 148.498 520.375   5
   6   0 -20 4911.66 750.391  15
   6   0 -20 4083.97 538.422   9
   6   0 -20 3710.00 965.610   5
   6   0 -19-547.163 368.950  15
   6   0 -19 124.913 365.913   5
   6   0 -18 5106.16 579.787   9
   6   0 -18 5695.50 765.992  15
   6   0 -18 6305.15 1305.50   5
   6   0 -17 62.5620 234.974   9
   6   0 -17 109.499 204.377  15
   6   0 -17 383.262 492.570   5
   6   0 -16 9367.91 816.811   9
   6   0 -16 10477.0 988.966  15
   6   0 -16 7926.27 1439.36   5
   6   0 -15-302.027 247.591   9
   6   0 -15-237.807 257.473  15
   6   0 -15-172.673 334.706   5
   6   0 -14 4696.60 558.625   9
   6   0 -14 4880.70 683.085  15
   6   0 -14 5216.99 1204.64   5
   6   0 -13 114.426 168.422   9
   6   0 -13-344.277 251.915  15
   6   0 -13-221.098 345.130   5
   6   0 -12 7109.35 704.984   9
   6   0 -12 7795.75 1344.47   5
   6   0 -11-625.966 385.638   5
   6   0 -10 9841.15 1496.23   5
   6   0  -9 987.869 719.012   5
   6   0  -8 107967. 4682.51   5
   6   0  -7 332.807 753.116   5
   6   0  -6 19934.9 1857.11   6
   6   0  -6 22543.7 2100.03   5
   6   0  -5 107.417 427.827   6
   6   0  -5-83.1931 455.342   5
   6   0  -4 6057.28 991.799   6
   6   0  -4 6113.04 1114.24   5
   6   0  -3 2210.24 750.428   6
   6   0  -3 1313.02 808.184   5
   6   0  -2 31673.0 2250.27   6
   6   0  -2 33027.9 2480.27   5
   6   0  -1 250.947 550.514   6
   6   0  -1-330.207 328.028   5
   6   0   0 2701.77 718.048   6
   6   0   0 3145.77 793.854   5
   6   0   1 40874.6 2495.30   6
   6   0   1 1969.66 776.344   5
   6   0   2 253044. 6315.85   6
   6   0   3 6969.67 1544.88   6
   6   0   4 100088. 4065.77   6
   6   0   5 5345.42 1422.85   6
  -6   0  -6 149895. 5736.79  18
   6   0   6 177756. 5532.22   6
   6   0   7-184.169 228.113  11
  -6   0  -7-192.711 375.014  18
   6   0   7 503.102 571.387   6
   6   0   8 36063.3 1622.57  11
  -6   0  -8 33528.3 2868.51  18
   6   0   8 34919.4 2598.44   6
   6   0   8 34999.0 1464.34   8
   6   0   9-3.35309 156.793  11
   6   0   9-322.957 206.155   7
  -6   0  -9 358.041 361.441  18
   6   0   9 346.359 465.259   6
   6   0   9 23.1416 144.325   8
   6   0  10 63736.3 1857.99  12
   6   0  10 59649.9 1880.30   7
   6   0  10 65502.9 2219.59  11
  -6   0 -10 62444.7 4115.04  18
   6   0  10 62070.6 3524.06   6
   6   0  10 61647.9 1976.72   8
   6   0  11-26.1937 136.655  12
   6   0  11-173.927 241.612  11
   6   0  11-248.645 219.432   7
  -6   0 -11 24.0141 321.761  18
   6   0  11 216.058 329.820   6
   6   0  11-1.73451 149.513   8
   6   0  12 3773.09 467.479  12
   6   0  12 3799.53 496.907   7
   6   0  12 3353.97 510.141  11
  -6   0 -12 3410.46 1109.68  18
   6   0  12 3246.00 826.434   6
   6   0  12 3608.29 488.916   8
   6   0  13 102.472 188.713  12
   6   0  13-71.6758 161.852  11
   6   0  13 33.6266 175.457   7
  -6   0 -13 263.007 607.220  18
   6   0  13-337.195 497.912   6
   6   0  13-221.621 216.411   8
   6   0  14 21924.7 1110.90  12
   6   0  14 21209.8 1178.14   7
   6   0  14 19461.3 1239.36  11
  -6   0 -14 18641.0 2448.30  18
   6   0  14 22588.6 2226.46   6
   6   0  14 21510.5 1181.68   8
   6   0  15-77.9293 177.483  12
   6   0  15-184.153 178.015  11
   6   0  15 81.4809 182.770   7
  -6   0 -15 161.196 601.821  18
   6   0  15 36.0837 320.162   6
   6   0  15 8.90268 163.871   8
   6   0  16 1493.45 330.566  12
   6   0  16 1470.38 346.812  11
   6   0  16 2337.80 428.695   7
  -6   0 -16 799.215 462.612  18
   6   0  16 2721.87 897.703   6
   6   0  16 1874.19 366.184   8
   6   0  17-92.9049 195.287  12
   6   0  17 411.677 262.858  11
   6   0  17 110.687 192.443   7
  -6   0 -17-244.648 500.422  18
   6   0  17-509.029 396.988   6
   6   0  17-125.223 215.335   8
   6   0  18 53775.2 1766.57  12
   6   0  18 50431.3 1923.99   7
  -6   0 -18 53659.7 4402.38  18
   6   0  18 46912.1 3393.34   6
   6   0  19 266.191 183.598  12
   6   0  19-57.4792 182.051   7
  -6   0 -19 104.162 660.967  18
   6   0  19 342.975 474.048   6
   6   0  20 12298.5 879.203  12
   6   0  20 12725.1 986.604   7
   6   0  21 107.524 262.942   7
   6   0  22 68122.9 2273.52   7
   6   0  23-16.1446 242.899   7
   6   0  24 13308.5 1035.71   7
   6   0  25 0.56744 226.536   7
   6   0  26 4042.36 577.076   7
   6   0  27 111.400 222.012   7
   6   0  28 5951.12 688.113   7
   6   0  29-288.789 241.615   7
   6   0  30 167.289 214.631   7
   6   0  31 330.509 204.914   7
   6   0  32 34541.6 1391.06   7
   6   0  33 42.9975 166.913   7
   6   0  34 50757.5 1566.23   7
   6   0  35 232.118 178.286   7
   6   0  36 4398.80 419.738   7
   6   0  37 8.57458 115.117   7
   6   0  38 12329.8 574.809   7
   6   1 -42 461.909 225.093  14
   6  -1 -42 206.868 162.873  14
   6   1 -41 602.726 265.879  14
   6  -1 -41 332.550 161.932  14
   6   1 -40 3455.57 503.959  14
   6  -1 -40 2974.94 390.895  14
   6   1 -39 234.726 221.022  14
   6  -1 -39 626.978 260.696  14
   6  -1 -38 1797.59 330.957  15
   6   1 -38 2377.93 423.037  14
   6  -1 -38 2548.04 457.633  14
   6  -1 -37 1563.90 354.893  15
   6   1 -37 1738.38 391.385  14
   6  -1 -37 1805.95 385.661  14
   6   1 -36 460.921 225.799  15
   6  -1 -36-107.301 183.120  15
   6   1 -36 249.192 224.166  14
   6  -1 -36 309.004 216.283  14
   6   1 -35 1608.25 351.837  15
   6  -1 -35 1662.61 414.892  15
   6   1 -35 1762.71 424.640  14
   6  -1 -35 1722.21 409.950  14
   6   1 -34 195.247 226.536  15
   6  -1 -34 255.245 239.557  15
   6   1 -34 214.069 239.058  14
   6  -1 -34-67.3234 192.374  14
   6   1 -33 7911.10 797.373  15
   6  -1 -33 7614.75 855.792  15
   6   1 -33 7901.54 866.686  14
   6  -1 -33 7462.20 773.250  14
   6   1 -32 9104.50 865.226  15
   6  -1 -32 8764.32 906.766  15
   6   1 -32 9578.12 958.147  14
   6  -1 -32 8954.93 891.547  14
   6   1 -31 17842.0 1270.76  15
   6  -1 -31 19152.6 1363.35  15
   6   1 -31 19415.7 1351.12  14
   6  -1 -31 18004.5 1249.52  14
   6   1 -30 1177.59 375.836  15
   6  -1 -30 1024.61 321.130  15
   6   1 -30 1034.89 383.392  14
   6  -1 -30 803.534 316.731  14
   6   1 -29 855.449 310.476  15
   6  -1 -29 845.167 316.069  15
   6   1 -29 1114.21 335.694  14
   6  -1 -29 1086.03 381.338  14
   6   1 -28 10944.1 1053.72  15
   6  -1 -28 11476.4 1112.77  15
   6   1 -28 9418.15 949.842  14
   6  -1 -28 9457.87 917.936  14
   6   1 -27 324.304 259.843  15
   6  -1 -27 772.141 355.246  15
   6   1 -27 183.973 252.204  14
   6  -1 -27 552.814 339.659  14
   6   1 -26 102.117 250.846  15
   6  -1 -26 280.138 233.718  15
   6   1 -26-324.154 282.959  14
   6  -1 -26 34.1025 226.999  14
   6   1 -25 3172.92 594.301  15
   6  -1 -25 2942.11 589.460  15
   6   1 -25 2933.05 565.494  14
   6  -1 -25 2990.49 518.101  14
   6   1 -24 486.803 584.886   9
   6   1 -24 869.351 360.978  15
   6  -1 -24 884.194 372.998  15
   6   1 -24 678.413 306.582  14
   6  -1 -24 888.177 350.025  14
  -6  -1  23 29.1879 467.924   3
   6   1 -23 1405.50 681.869   9
   6  -1 -23-14.4823 220.459   9
   6   1 -23 294.985 275.392  15
   6  -1 -23 116.936 228.628  15
   6   1 -23-21.4409 206.568  14
   6   1 -23-84.0206 518.683   5
   6  -1 -23 141.944 407.909   5
  -6  -1  22 668.361 384.882   3
   6   1 -22-270.757 413.252   9
   6  -1 -22 374.535 186.962   9
   6   1 -22 877.989 329.075  15
   6  -1 -22 697.914 354.352  15
   6   1 -22 485.454 271.632  14
   6   1 -22 376.518 467.073   5
   6  -1 -22 947.848 683.557   5
  -6  -1  21 25872.2 2539.02   3
   6   1 -21 27871.2 1378.41   9
   6  -1 -21 24618.0 1317.22   9
   6   1 -21 29074.7 1723.51  15
   6  -1 -21 29270.0 1755.51  15
   6   1 -21 24254.6 2575.17   5
   6  -1 -21 26385.7 2726.20   5
  -6  -1  20-542.214 616.825   3
   6   1 -20-81.1749 212.307   9
   6   1 -20-62.7494 242.926  15
   6  -1 -20-56.7544 212.754   9
   6  -1 -20 167.101 266.189  15
   6   1 -20-68.2743 390.695   5
   6  -1 -20 12.5369 365.692   5
  -6  -1  19 25769.4 2461.60   3
   6   1 -19 25443.5 1329.59   9
   6  -1 -19 25735.2 1357.92   9
   6   1 -19 27222.3 1638.76  15
   6  -1 -19 28042.6 1684.76  15
   6   1 -19 24874.9 2551.86   5
   6  -1 -19 26622.1 2688.64   5
  -6  -1  18 30742.6 2627.30   3
   6   1 -18 31894.5 1473.30   9
   6  -1 -18 29607.5 1444.19   9
   6   1 -18 31545.9 1753.45  15
   6  -1 -18 31076.4 1792.28  15
   6   1 -18 29806.1 2813.45   5
   6  -1 -18 28203.4 2767.95   5
   6  -1 -17 654.058 344.469  15
  -6  -1  17 1170.06 581.779   3
   6   1 -17 616.665 244.802   9
   6   1 -17 922.799 352.673  15
   6  -1 -17 851.586 326.770   9
   6   1 -17 1193.31 711.237   5
   6  -1 -17 304.916 470.738   5
  -6  -1  16 47290.3 3151.06   3
   6   1 -16 49311.3 1835.58   9
   6  -1 -16 51773.0 1918.75   9
   6   1 -16 53561.9 2216.98  15
   6  -1 -16 54731.6 2287.73  15
   6   1 -16 47138.6 3390.30   5
   6  -1 -16 50261.6 3532.38   5
  -6  -1  15 5526.18 1100.12   3
   6   1 -15 6561.48 688.813   9
   6  -1 -15 5943.45 649.228   9
   6   1 -15 5875.16 737.317  15
   6  -1 -15 5571.20 766.677  15
   6   1 -15 5825.70 1216.73   5
   6  -1 -15 6793.11 1335.37   5
  -6  -1  14 175661. 5795.42   3
   6   1 -14 177295. 3462.08   9
   6  -1 -14 175193. 3536.57   9
   6   1 -14 174316. 3956.79  15
   6  -1 -14 179904. 4053.41  15
   6   1 -14 171038. 6330.35   5
   6  -1 -14 180889. 6501.45   5
  -6  -1  13 9503.41 1354.83   3
   6   1 -13 10015.3 826.470   9
   6  -1 -13 9507.29 823.041   9
   6   1 -13 9842.84 941.085  15
   6  -1 -13 10327.5 985.106  15
   6   1 -13 10438.8 1610.67   5
   6  -1 -13 9865.20 1585.40   5
  -6  -1  12 24897.1 2123.91   3
   6   1 -12 24412.9 1272.71   9
   6  -1 -12 24518.2 1312.90   9
   6   1 -12 27053.6 1530.48  15
   6  -1 -12 25691.2 1477.38  15
   6   1 -12 25524.1 2407.03   5
   6  -1 -12 23184.9 2312.22   5
   6   1 -11 6867.37 686.524   9
   6  -1 -11 6120.81 673.007   9
   6   1 -11 6622.83 745.723  15
   6   1 -11 6138.10 1346.54   5
   6  -1 -11 7073.89 1336.08   5
   6   1 -10 90796.9 2422.86   9
   6  -1 -10 89869.4 2471.21   9
   6   1 -10 88731.5 4355.30   5
   6  -1 -10 84623.0 4261.50   5
   6   1  -9 10481.5 1633.43   5
   6  -1  -9 10058.2 1533.60   5
   6   1  -8 18070.7 1973.62   5
   6  -1  -8 15785.1 1806.24   5
   6  -1  -7 13263.7 1608.48   6
   6   1  -7 13327.7 1734.12   5
   6  -1  -7 12005.4 1562.49   5
   6  -1  -6 4141.39 994.066   6
   6   1  -6 4783.15 1149.35   5
   6  -1  -6 4088.62 896.782   5
   6  -1  -5 18120.7 1813.97   6
   6   1  -5 19779.5 2011.72   5
   6  -1  -5 18452.7 1855.76   5
   6  -1  -4 476.131 541.651   6
   6   1  -4-88.6849 285.171   5
   6  -1  -4 660.301 534.286   5
   6   1  -3 3379.22 991.714   6
   6  -1  -3 2268.12 1173.00   6
   6   1  -3 3061.72 950.999   5
   6  -1  -3 1789.91 853.394   5
   6   1  -2 42888.4 2405.65   6
   6  -1  -2 44548.4 2809.71   6
   6   1  -2 46194.6 3074.33   5
   6  -1  -2 40794.2 2671.79   5
   6   1  -1 8917.11 1170.79   6
   6  -1  -1 9779.65 1610.31   6
   6  -1  -1 9100.17 1337.66   5
   6   1   0 5180.65 869.700   6
   6  -1   0 6191.32 1149.77   6
   6  -1   0 5070.61 951.715   5
  -6   1  -1 1726.65 606.680  18
   6   1   1 3927.55 878.318   6
   6  -1   1 2692.25 938.182   6
   6  -1   1 1891.82 682.850   5
  -6   1  -2 13987.8 1785.32  18
   6   1   2 14901.6 1485.89   6
   6  -1   2 14948.3 1734.05   6
  -6   1  -3 14007.1 1807.08  18
   6   1   3 14967.0 1426.84   6
   6  -1   3 14845.3 1727.64   6
  -6   1  -4 542.562 399.571  18
   6   1   4 511.548 381.518   6
   6  -1   4 209.602 542.111   6
   6  -1   5 99.9549 197.990  11
   6   1   5 14.6923 230.888  11
  -6   1  -5 172.885 289.619  18
   6   1   5-414.955 247.511   6
   6  -1   5-62.8282 454.758   6
   6  -1   5 43.2067 153.885   8
   6  -1   6 13824.6 881.940  12
   6  -1   6 14283.0 1065.12  11
   6   1   6 14433.7 1020.23  11
  -6   1  -6 11909.6 1719.97  18
   6   1   6 14478.7 1441.92   6
   6  -1   6 13608.4 1660.47   6
   6  -1   6 15230.3 987.612   8
   6  -1   7 6626.82 646.629  12
   6   1   7 6341.57 612.946   7
   6  -1   7 6113.67 717.050  11
   6   1   7 7004.30 747.307  11
  -6   1  -7 6389.52 1310.55  18
   6   1   7 6448.73 994.770   6
   6  -1   7 7217.08 1269.14   6
   6   1   7 6203.51 613.787   8
   6  -1   7 7027.68 675.890   8
   6  -1   8 19623.7 1058.01  12
   6   1   8 18883.5 1036.28   7
   6  -1   8 18091.5 1215.55  11
   6   1   8 20338.1 1221.90  11
  -6   1  -8 15020.9 2009.55  18
   6   1   8 20973.5 1819.01   6
   6  -1   8 20641.4 2099.48   6
   6   1   8 18547.5 1056.48   8
   6  -1   8 19460.3 1123.94   8
   6  -1   9 1835.24 336.875  12
   6  -1   9 1567.62 356.036  11
   6   1   9 1467.11 333.108  11
   6  -1   9 1371.70 274.793   7
  -6   1  -9 808.097 504.537  18
   6   1   9 1848.13 318.504   7
   6   1   9 1362.68 454.764   6
   6  -1   9 1789.59 705.259   6
   6   1   9 1455.93 283.591   8
   6  -1   9 1576.92 340.047   8
   6  -1  10 8325.90 715.195  12
   6  -1  10 7809.34 695.938   7
   6   1  10 8112.86 704.504   7
   6  -1  10 7788.92 801.963  11
   6   1  10 7888.05 779.330  11
  -6   1 -10 6240.33 1381.05  18
   6  -1  10 9354.39 1441.97   6
   6   1  10 7659.24 686.847   8
   6  -1  10 7879.86 727.019   8
   6  -1  11 5484.05 579.565  12
   6  -1  11 5283.25 581.819   7
   6   1  11 5371.90 582.610   7
   6  -1  11 5520.52 717.250  11
   6   1  11 5564.55 653.047  11
  -6   1 -11 5059.26 1231.15  18
   6  -1  11 5444.34 1163.18   6
   6   1  11 4505.85 535.780   8
   6  -1  11 5099.68 575.490   8
   6  -1  12 9527.78 773.541  12
   6  -1  12 9403.40 774.136   7
   6   1  12 10052.0 812.289   7
   6  -1  12 10435.6 943.326  11
   6   1  12 9435.78 844.476  11
  -6   1 -12 8364.99 1697.63  18
   6  -1  12 9241.52 1492.44   6
   6   1  12 9443.56 782.307   8
   6  -1  12 9956.56 826.101   8
   6  -1  13 33562.0 1464.39  12
   6  -1  13 31586.0 1430.97   7
   6   1  13 32660.7 1444.76   7
   6  -1  13 32748.8 1653.48  11
   6   1  13 31900.9 1553.92  11
  -6   1 -13 28638.5 3071.43  18
  -6  -1 -13 28090.4 2726.20  18
   6  -1  13 34498.0 2873.67   6
   6   1  13 33313.1 1442.69   8
   6  -1  13 33004.7 1509.36   8
   6  -1  14 2447.72 424.208  12
   6  -1  14 2104.58 452.681  11
   6   1  14 2276.53 415.232  11
   6  -1  14 2069.61 388.989   7
   6   1  14 2321.05 412.894   7
  -6   1 -14 1329.32 718.809  18
  -6  -1 -14 1816.79 650.859  18
   6  -1  14 2407.04 774.753   6
   6   1  14 2611.40 419.598   8
   6  -1  14 2636.43 439.019   8
   6  -1  15 10947.6 854.355  12
   6  -1  15 10616.0 851.969   7
   6   1  15 10520.1 857.273   7
   6  -1  15 10334.8 953.723  11
   6   1  15 9335.84 841.631  11
  -6  -1 -15 8794.43 1638.00  18
  -6   1 -15 9078.00 1855.36  18
   6  -1  15 12624.6 1758.23   6
   6  -1  15 11306.7 874.807   8
   6  -1  16 26446.1 1351.99  12
   6  -1  16 26467.3 1378.48   7
   6   1  16 28748.1 1419.21   7
   6  -1  16 27016.2 1495.45  11
   6   1  16 26277.6 1418.13  11
  -6   1 -16 24218.5 2972.73  18
  -6  -1 -16 23115.9 2681.34  18
   6  -1  16 28660.2 2666.19   6
   6  -1  16 26903.1 1345.57   8
   6  -1  17 9101.62 798.493  12
   6  -1  17 7922.94 783.169   7
   6   1  17 8274.34 774.815   7
   6  -1  17 8167.29 828.519  11
   6   1  17 8536.95 807.659  11
  -6   1 -17 7481.24 1735.53  18
  -6  -1 -17 8382.35 1656.28  18
   6  -1  17 8381.89 1515.52   6
   6  -1  17 8607.93 766.529   8
   6  -1  18 48687.1 1809.68  12
   6  -1  18 45363.9 1822.90   7
   6   1  18 43099.1 1794.87   7
   6  -1  18 46624.1 1949.56  11
  -6   1 -18 45207.4 4166.71  18
  -6  -1 -18 43745.6 3809.04  18
   6  -1  18 47602.7 3520.76   6
   6  -1  18 48548.3 1796.26   8
   6  -1  19 2393.94 462.690  12
   6  -1  19 1783.40 360.343   7
   6   1  19 2391.58 472.666   7
   6  -1  19 1672.05 331.923   8
   6  -1  20 4301.00 579.214  12
   6  -1  20 3926.99 574.118   7
   6   1  20 3440.16 520.574   7
   6  -1  20 4328.50 541.789   8
   6  -1  21 15446.0 1021.24  12
   6  -1  21 16961.2 1140.68   7
   6   1  21 16150.3 1128.88   7
   6  -1  22 11276.0 888.556  12
   6  -1  22 11681.2 982.701   7
   6   1  22 12344.0 975.999   7
   6  -1  23 8978.31 790.262  12
   6  -1  23 9279.13 850.493   7
   6   1  23 9961.94 874.408   7
   6  -1  24 43463.5 1666.21  12
   6  -1  24 44320.6 1850.85   7
   6   1  24 44371.3 1822.92   7
   6  -1  25 12185.2 891.467  12
   6  -1  25 12969.4 980.358   7
   6   1  25 12691.7 991.889   7
   6  -1  26 9502.37 766.958  12
   6  -1  26 10064.3 883.678   7
   6   1  26 10956.2 895.139   7
   6  -1  27 2482.34 414.475  12
   6  -1  27 1871.65 388.759   7
   6   1  27 1587.80 357.485   7
   6  -1  28 1528.53 327.733  12
   6  -1  28 866.801 279.085   7
   6   1  28 1528.24 406.647   7
   6  -1  29 9604.74 714.687  12
   6  -1  29 9565.56 812.144   7
   6   1  29 9698.15 802.467   7
   6  -1  30 3209.79 416.452  12
   6  -1  30 2995.12 468.524   7
   6   1  30 3025.60 473.344   7
   6  -1  31 3373.65 405.898  12
   6  -1  31 3594.02 510.652   7
   6   1  31 3345.16 466.991   7
   6  -1  32 2634.17 333.969  12
   6  -1  32 2602.57 423.550   7
   6   1  32 2732.27 399.682   7
   6  -1  33 542.555 225.419   7
   6   1  33 648.528 205.840   7
   6  -1  34 538.214 205.154   7
   6   1  34-50.8399 173.562   7
   6  -1  35 385.171 172.797   7
   6   1  35 214.207 134.359   7
   6  -1  36 353.809 165.440   7
   6   1  36 398.910 152.572   7
   6  -1  37 169.444 129.708   7
   6   1  37-155.594 119.494   7
   6   2 -41 11875.5 850.324  14
   6  -2 -41 12359.9 683.757  14
   6   2 -40 2856.18 457.950  14
   6  -2 -40 2320.42 335.807  14
   6  -2 -39 14514.5 775.994  15
   6   2 -39 15246.0 1052.42  14
   6  -2 -39 13635.1 811.148  14
   6  -2 -38-107.151 138.415  15
   6   2 -38-402.456 265.607  14
   6  -2 -38-158.826 161.137  14
   6  -2 -37 17297.2 1017.81  15
   6   2 -37 19695.8 1264.77  14
   6  -2 -37 18014.0 1022.42  14
   6  -2 -36-285.755 186.765  15
   6   2 -36 279.921 226.985  14
   6  -2 -36-33.8559 174.938  14
   6   2 -35 12420.8 854.920  15
   6  -2 -35 12204.7 974.495  15
   6   2 -35 12526.5 1049.02  14
   6  -2 -35 11909.4 895.743  14
   6   2 -34 165.265 217.144  15
   6  -2 -34-14.0015 209.752  15
   6   2 -34 189.332 250.915  14
   6  -2 -34 137.056 196.943  14
   6   2 -33 6041.46 667.722  15
   6  -2 -33 6611.44 765.571  15
   6   2 -33 6491.51 806.293  14
   6  -2 -33 5838.90 666.043  14
   6   2 -32 206.428 204.675  15
   6  -2 -32 383.682 248.467  15
   6   2 -32 327.844 297.472  14
   6  -2 -32 365.171 188.807  14
   6   2 -31 660.387 325.555  15
   6  -2 -31 1438.47 429.873  15
   6   2 -31 998.391 403.719  14
   6  -2 -31 989.809 332.092  14
   6   2 -30 878.014 335.112  15
   6  -2 -30 518.500 322.463  15
   6   2 -30 507.807 288.335  14
   6  -2 -30 654.025 289.312  14
   6   2 -29 11609.7 1052.10  15
   6  -2 -29 12469.3 1130.52  15
   6   2 -29 11837.6 1133.91  14
   6  -2 -29 10829.1 948.632  14
   6   2 -28 196.701 263.404  15
   6  -2 -28 181.515 235.685  15
   6   2 -28-65.1716 241.085  14
   6  -2 -28 402.947 294.463  14
   6   2 -27 4110.73 633.828  15
   6  -2 -27 4220.41 743.884  15
   6   2 -27 3846.03 660.600  14
   6  -2 -27 3379.90 557.394  14
   6   2 -26 2183.96 495.861  15
   6  -2 -26 2393.18 562.568  15
   6   2 -26 2376.59 536.333  14
   6  -2 -26 2146.10 445.635  14
   6   2 -25 373.594 302.068  15
   6  -2 -25 568.093 358.986  15
   6   2 -25 288.381 265.562  14
   6  -2 -25 197.907 194.396  14
   6   2 -24 15564.9 1265.43  15
   6  -2 -24 14466.4 1277.28  15
   6   2 -24 12152.2 1134.18  14
   6  -2 -24 13109.0 1034.33  14
   6   2 -23 2149.74 500.229  15
   6  -2 -23 2451.83 463.806   9
   6  -2 -23 3703.76 702.833  15
   6   2 -23 2084.10 486.305  14
   6  -2 -22 6376.42 689.562   9
   6   2 -22 6712.94 820.531  15
   6  -2 -22 7463.91 912.198  15
   6   2 -22 6159.74 805.186  14
  -6  -2  21 1149.82 773.536   3
   6   2 -21 671.618 352.630  15
   6  -2 -21 799.454 286.682   9
   6  -2 -21 621.646 421.018  15
   6   2 -21 596.549 326.729  14
   6   2 -21-529.923 633.942   5
   6  -2 -21 742.106 386.813   5
  -6  -2  20 2656.77 819.787   3
   6   2 -20 850.755 859.716   9
   6   2 -20 4001.24 660.610  15
   6  -2 -20 3795.13 551.303   9
   6  -2 -20 3912.68 714.430  15
   6   2 -20 3658.22 565.011  14
   6   2 -20 3274.59 952.066   5
   6  -2 -20 4459.86 1119.90   5
  -6  -2  19 68661.3 4179.00   3
   6   2 -19 69403.6 2231.78   9
   6  -2 -19 66600.4 2248.27   9
   6   2 -19 64049.4 2518.39  15
   6  -2 -19 68362.1 2698.44  15
   6   2 -19 62910.0 3991.78   5
   6  -2 -19 64043.1 4213.53   5
  -6  -2  18 11381.4 1642.17   3
   6  -2 -18 11868.0 965.363   9
   6   2 -18 13440.8 1143.60  15
   6  -2 -18 14300.4 1228.40  15
   6   2 -18 13674.8 1273.00   9
   6   2 -18 10841.9 1651.59   5
   6  -2 -18 11796.2 1776.97   5
  -6  -2  17 15590.5 1919.01   3
   6  -2 -17 14532.4 1063.64   9
   6   2 -17 15379.8 1240.79  15
   6  -2 -17 15992.8 1289.43  15
   6   2 -17 16247.0 1253.78   9
   6   2 -17 14535.6 1956.28   5
   6  -2 -17 14276.4 1926.06   5
  -6  -2  16 658.763 476.500   3
   6   2 -16 1381.67 780.134   9
   6   2 -16 1050.76 424.314  15
   6  -2 -16 726.602 271.669  15
   6  -2 -16 269.418 188.885   9
   6   2 -16 65.1425 319.371   5
   6  -2 -16-144.000 533.677   5
  -6  -2  15 47419.8 3266.80   3
   6   2 -15 50407.3 2020.03   9
   6  -2 -15 44450.4 1877.93   9
   6   2 -15 48013.5 2129.55  15
   6  -2 -15 49422.4 2207.41  15
   6   2 -15 43058.4 3199.91   5
   6  -2 -15 41674.0 3229.92   5
  -6  -2  14 15666.9 1859.95   3
   6   2 -14 16080.3 1133.81   9
   6  -2 -14 14378.7 1063.07   9
   6   2 -14 14713.5 1170.49  15
   6  -2 -14 14445.9 1192.48  15
   6   2 -14 14383.0 1847.86   5
   6  -2 -14 13321.6 1796.46   5
   6   2 -13 3453.66 463.504  11
   6   2 -13 4011.36 713.993   9
  -6  -2  13 2734.40 785.252   3
   6   2 -13 4400.26 654.218  15
   6  -2 -13 4007.67 627.692  15
   6  -2 -13 2934.50 517.038   9
   6   2 -13 3309.31 1009.51   5
   6  -2 -13 3558.22 936.720   5
   6   2 -12 92267.5 2562.26  11
  -6  -2  12 97136.8 4460.59   3
   6   2 -12 98492.4 2631.61   9
   6  -2 -12 93659.6 2679.60   9
   6   2 -12 92594.4 2877.51  15
   6  -2 -12 92208.7 2942.64  15
   6   2 -12 94913.9 4675.72   5
   6  -2 -12 91992.1 4537.47   5
  -6  -2  11 17764.2 1880.44   3
   6   2 -11 16383.2 1102.15  11
   6   2 -11 17703.3 1155.21   9
   6  -2 -11 16679.4 1143.96   9
   6   2 -11 16059.5 1202.87  15
   6  -2 -11 15548.1 1192.65  15
   6   2 -11 18496.0 2131.86   5
   6  -2 -11 17402.8 2007.36   5
   6  -2 -10 315.160 191.703  11
   6   2 -10 389.684 246.353  11
  -6  -2  10 645.414 399.239   3
   6   2 -10 1117.74 456.845   9
   6   2 -10 1018.42 319.213  15
   6  -2 -10 761.336 325.689  15
   6  -2 -10 722.249 360.892   9
   6   2 -10 514.012 606.855   5
   6  -2 -10 367.541 365.520   5
   6  -2  -9 20883.4 1275.07  11
  -6  -2   9 21262.7 2006.62   3
   6   2  -9 22134.2 1274.46  11
   6   2  -9 23889.6 2201.27   2
   6   2  -9 22683.7 1275.93   9
   6  -2  -9 22417.1 1310.09   9
   6   2  -9 23182.8 1398.13  15
   6  -2  -9 20543.8 1356.61  15
   6   2  -9 21919.9 2279.76   5
   6  -2  -9 21289.5 2063.25   5
   6  -2  -8 14452.5 960.139  12
   6  -2  -8 14620.0 1113.09  11
  -6  -2   8 17618.5 1806.77   3
   6   2  -8 20930.2 2190.28   2
   6   2  -8 14457.8 1041.42  11
   6   2  -8 15971.5 1113.23   9
   6  -2  -8 16008.7 1116.83   9
   6   2  -8 15249.1 1124.10  15
   6  -2  -8 13072.8 1047.94  15
   6   2  -8 19151.2 2158.44   5
   6  -2  -8 14916.0 1735.79   5
   6  -2  -8 15306.1 914.050   8
   6  -2  -7 39002.1 1514.70  12
   6  -2  -7 40341.8 1824.54  11
  -6  -2   7 46102.2 2850.07   3
   6   2  -7 45473.8 3066.87   2
   6   2  -7 41562.6 1760.72  11
   6  -2  -7 47861.0 3175.79   6
   6   2  -7 43123.6 1684.82   9
   6  -2  -7 43749.1 1806.09   9
   6   2  -7 42568.9 1862.41  15
   6   2  -7 44925.1 3213.29   5
   6  -2  -7 41304.4 2801.12   5
   6  -2  -7 41440.2 1533.27   8
   6  -2  -6 9076.96 754.930  12
  -6  -2   6 8136.60 1169.01   1
   6   2  -6 9480.78 1488.23   2
   6  -2  -6 7760.93 803.911  11
   6   2  -6 8514.01 814.266  11
   6  -2  -6 10249.9 1565.64   6
   6   2  -6 8598.08 837.078   9
   6  -2  -6 8725.06 836.285   9
   6   2  -6 8761.93 838.499  15
   6   2  -6 9993.62 1645.73   5
   6  -2  -6 7774.37 1251.31   5
   6  -2  -6 7520.69 668.260   8
   6  -2  -5 12429.5 875.712  12
  -6  -2   5 16080.2 1646.40   1
   6   2  -5 16109.2 1955.31   2
   6  -2  -5 11473.3 1005.75  11
   6   2  -5 12151.9 946.384  11
   6  -2  -5 17590.3 1919.68   6
   6   2  -5 12298.2 983.763   9
   6  -2  -5 12903.5 970.547   9
   6   2  -5 12194.6 1003.43  15
   6   2  -5 15930.1 1941.72   5
   6  -2  -5 12915.4 1602.96   5
   6  -2  -5 12207.6 859.984   8
   6  -2  -4 33170.3 1383.45  12
  -6  -2   4 34072.7 2323.01   1
   6   2  -4 33212.2 2655.08   2
   6  -2  -4 31367.2 1616.16  11
   6   2  -4 33297.4 1565.97  11
   6  -2  -4 36277.5 2751.19   6
   6   2  -4 33516.2 1454.29   9
   6  -2  -4 32159.6 1524.16   9
   6  -2  -4 29908.7 2285.57   5
   6  -2  -4 32628.1 1391.52   8
  -6  -2   3 14009.6 1548.37   1
   6  -2  -3 16362.6 979.427  12
   6   2  -3 16388.5 1965.76   2
   6  -2  -3 15140.8 1124.19  11
   6   2  -3 16320.6 1100.87  11
   6  -2  -3 18628.9 2181.42   6
   6   2  -3 15179.7 993.598   9
   6  -2  -3 15311.2 1051.04   9
   6  -2  -3 14468.0 1626.29   5
   6  -2  -3 14493.1 946.754   8
   6  -2  -2 1542.79 432.372  12
   6  -2  -2 1308.94 391.905  11
   6   2  -2 1270.97 369.647  11
  -6  -2   2 963.801 565.430   1
   6  -2  -2 2830.12 1399.15   6
   6   2  -2 460.549 423.613   9
   6   2  -2 2564.27 928.344   2
   6  -2  -2 1353.20 435.929   9
   6  -2  -2 1694.89 678.548   5
   6  -2  -2 928.192 322.628   8
  -6  -2   1 11742.1 1400.66   1
   6  -2  -1 11067.8 793.753  12
   6   2  -1 11874.1 1618.28   2
   6  -2  -1 10363.6 912.977  11
   6   2  -1 11545.2 919.336  11
   6  -2  -1 12210.7 1580.43   6
   6   2  -1 12210.5 923.860   9
   6  -2  -1 10089.4 868.234   9
   6  -2  -1 10767.6 1332.10   5
   6   2  -1 12195.2 871.662   8
   6  -2  -1 11175.3 817.403   8
   6  -2   0 164.913 176.322  12
   6  -2   0-125.231 218.002  11
  -6  -2   0-114.331 389.498   1
   6   2   0 148.959 201.005  11
   6   2   0 99.8403 186.421   7
   6  -2   0 426.948 838.904   6
   6   2   0 194.622 555.704   2
   6   2   0-177.411 446.078   9
   6  -2   0 31.7821 226.956   9
   6   2   0 608.251 334.859   8
   6  -2   0 60.9640 161.658   8
   6  -2   1 421.225 216.779   8
   6  -2   1 335.473 208.375  12
   6  -2   1 253.539 259.804  11
  -6  -2  -1-256.708 437.478   1
   6   2   1 192.858 200.914  11
  -6   2  -1 357.055 402.187  18
   6   2   1-35.6522 161.057   7
   6  -2   1-246.423 379.686   6
   6   2   1-278.776 332.836   2
   6   2   1-707.783 508.016   9
   6  -2   1 606.491 243.311   9
   6   2   1 19.3205 170.803   8
   6  -2   2 443.956 212.532   8
   6  -2   2 118.911 207.248  12
  -6  -2  -2-206.446 254.822   1
   6  -2   2-308.889 247.222  11
   6   2   2 24.7293 153.292  11
  -6   2  -2 586.145 685.883  18
   6   2   2 342.456 202.498   7
   6  -2   2 349.339 458.223   6
   6   2   2 410.142 467.260   2
   6   2   2 537.671 602.598   9
   6  -2   2 206.099 179.647   9
   6   2   2 298.351 222.549   8
   6  -2   3 4373.63 524.553  12
  -6  -2  -3 4259.57 925.927   1
   6   2   3 4019.46 539.402   7
   6  -2   3 4277.12 623.618  11
   6   2   3 4119.60 571.391  11
  -6   2  -3 3702.92 1001.52  18
   6  -2   3 4025.34 1023.08   6
   6   2   3 5188.44 1116.51   2
   6   2   3 3357.06 695.246   9
   6  -2   3 3368.56 480.876   9
   6   2   3 4388.24 546.767   8
   6  -2   3 4296.76 540.905   8
   6  -2   4 7849.11 724.883  12
   6   2   4 9931.99 1444.21   2
   6  -2   4 8865.23 894.495  11
   6   2   4 8763.54 716.355   7
   6   2   4 8902.32 836.409  11
  -6   2  -4 6201.89 1405.55  18
   6  -2   4 9126.06 1455.69   6
   6  -2   4 7711.63 717.577   9
   6   2   4 8180.75 854.473   9
   6   2   4 8188.12 715.265   8
   6  -2   4 9688.87 813.275   8
  -6  -2  -4 9796.15 1427.32   1
   6   2   5 6169.28 1180.96   2
   6  -2   5 4900.60 593.200  12
  -6  -2  -5 5367.80 1065.15   1
   6  -2   5 4798.81 665.298  11
   6   2   5 5801.71 596.111   7
   6   2   5 4976.46 625.398  11
  -6   2  -5 3528.73 1101.80  18
   6  -2   5 5631.20 1171.26   6
   6  -2   5 4570.39 565.271   9
   6   2   5 4688.16 546.985   8
   6  -2   5 5348.10 601.803   8
   6   2   6 11165.9 1505.25   2
   6  -2   6 9246.47 789.152  12
   6  -2   6 9301.06 911.209  11
   6   2   6 9809.38 771.628   7
   6   2   6 9823.99 898.728  11
  -6   2  -6 7655.30 1479.48  18
   6  -2   6 11247.0 1671.34   6
   6  -2   6 8537.68 722.437   9
   6   2   6 9261.28 763.689   8
   6  -2   6 9997.54 826.736   8
  -6  -2  -6 9662.19 1418.16   1
   6   2   7 18264.5 1889.50   2
   6  -2   7 17081.3 1028.45  12
   6   2   7 16663.6 993.504   7
   6  -2   7 16549.2 1231.12  11
   6   2   7 17182.7 1172.93  11
  -6   2  -7 14994.3 2178.06  18
   6  -2   7 19548.8 2098.20   6
   6   2   7 15837.1 984.827   8
  -6  -2  -7 17352.1 1892.98   1
   6  -2   7 17185.4 1092.13   8
   6  -2   8 1013.43 299.993   8
  -6  -2  -8 175.742 406.679   1
   6  -2   8 912.451 290.516  12
   6  -2   8 1299.73 349.314  11
   6   2   8 1178.09 281.318  11
  -6   2  -8 1388.40 751.852  18
   6   2   8 887.689 289.886   7
   6   2   8 1132.85 569.018   2
   6  -2   8 944.527 686.974   6
   6   2   8 670.271 211.015   8
  -6  -2  -9 6241.74 1167.55   1
   6  -2   9 7344.96 718.370  12
   6   2   9 7256.95 709.513   7
   6  -2   9 7261.89 823.579  11
   6   2   9 7002.82 769.505  11
  -6   2  -9 7115.45 1496.74  18
   6  -2   9 8033.36 1457.87   6
   6   2   9 6605.54 1153.23   2
   6   2   9 6140.26 613.185   8
   6  -2   9 6536.72 704.928   8
   6   2  10 6472.06 1229.50   2
   6  -2  10 8304.56 741.719  12
   6   2  10 7435.17 695.726   7
   6  -2  10 7479.99 839.499  11
   6   2  10 8221.67 800.854  11
  -6   2 -10 7791.19 1695.61  18
   6  -2  10 6645.16 1287.97   6
   6   2  10 6974.04 659.166   8
   6  -2  10 6840.34 706.340   8
   6  -2  11 7065.40 694.470  12
   6  -2  11 6123.88 611.854   7
   6   2  11 6640.45 656.723   7
   6  -2  11 6512.91 761.715  11
   6   2  11 6422.08 717.016  11
  -6   2 -11 6045.70 1462.41  18
   6  -2  11 6827.97 1326.85   6
   6   2  11 6231.51 620.625   8
   6  -2  11 6415.87 663.261   8
   6  -2  12 4332.96 566.258   8
   6  -2  12 5405.79 598.110  12
   6  -2  12 4285.56 525.300   7
   6   2  12 5068.35 596.065   7
   6   2  12 4827.76 606.964  11
   6  -2  12 4806.03 648.926  11
  -6   2 -12 3568.37 1101.83  18
   6  -2  12 4576.08 1095.42   6
   6   2  12 4822.26 527.101   8
   6  -2  13 16627.3 1077.06  12
   6  -2  13 14918.5 978.523   7
   6   2  13 15112.2 1039.77   7
   6  -2  13 15857.2 1195.96  11
   6   2  13 15448.4 1121.15  11
  -6   2 -13 13384.2 2220.95  18
   6  -2  13 16452.7 2141.44   6
   6  -2  13 16433.9 1094.83   8
   6  -2  14 6218.18 667.289  12
   6  -2  14 5476.66 633.574   7
   6   2  14 5968.36 664.899   7
   6  -2  14 5849.00 755.890  11
   6   2  14 5730.70 687.690  11
  -6   2 -14 4856.90 1357.20  18
   6  -2  14 5743.59 1289.07   6
   6  -2  14 5651.78 666.655   8
   6  -2  15 593.171 256.602   8
   6  -2  15 223.899 204.627  12
   6  -2  15 17.7454 216.081  11
   6  -2  15 555.421 225.038   7
   6   2  15 568.090 301.274  11
  -6   2 -15-369.676 917.749  18
   6   2  15 840.659 275.465   7
   6  -2  15 413.655 309.119   6
   6  -2  16 3579.66 525.422  12
   6  -2  16 3328.30 572.958  11
   6  -2  16 2890.09 472.207   7
   6   2  16 2991.63 503.284  11
   6   2  16 3087.54 479.864   7
   6  -2  16 3143.91 508.749   8
   6  -2  17 130.177 173.893  12
   6  -2  17 231.548 265.575  11
   6  -2  17 115.901 181.623   7
   6   2  17 246.914 179.808   7
   6  -2  17 41.3209 181.430   8
   6  -2  18 1042.64 328.825  12
   6  -2  18 773.449 299.149  11
   6  -2  18 1305.57 333.921   7
   6   2  18 1656.64 432.143   7
   6  -2  18 1049.08 277.009   8
   6  -2  19 484.363 247.889  12
   6  -2  19 635.567 281.072  11
   6  -2  19 625.306 254.461   7
   6   2  19 282.580 227.701   7
   6  -2  19 1219.34 371.100   8
   6  -2  20 4653.95 612.557  12
   6  -2  20 4868.24 607.598   7
   6   2  20 4342.85 577.209   7
   6  -2  20 4854.04 595.808   8
   6  -2  21-51.6043 202.473  12
   6  -2  21-11.8350 175.567   7
   6   2  21 0.18534 216.897   7
   6  -2  21 321.383 258.802   8
   6  -2  22 4660.09 610.994  12
   6  -2  22 4794.01 617.030   7
   6   2  22 4667.13 598.251   7
   6  -2  22 4762.01 562.688   8
   6  -2  23 775.063 322.593  12
   6  -2  23 1126.35 338.844   7
   6   2  23 1207.88 346.093   7
   6  -2  23 1038.59 261.197   8
   6  -2  24 40.3162 203.217  12
   6  -2  24 73.0997 178.652   7
   6   2  24 254.178 273.010   7
   6  -2  25 4430.69 566.124  12
   6  -2  25 5327.11 619.056   7
   6   2  25 5155.49 636.488   7
   6  -2  26 2340.13 442.830  12
   6  -2  26 2663.67 465.036   7
   6   2  26 2386.74 443.825   7
   6  -2  27 352.391 225.933  12
   6  -2  27 530.733 235.063   7
   6   2  27 476.715 241.530   7
   6  -2  28 4713.82 555.242  12
   6  -2  28 4912.80 572.289   7
   6   2  28 4988.60 592.574   7
   6  -2  29 37.4832 157.840  12
   6  -2  29-45.5802 181.454   7
   6   2  29-93.0479 226.980   7
   6  -2  30 4174.08 488.214  12
   6  -2  30 4813.47 545.733   7
   6   2  30 3674.35 487.606   7
   6  -2  31 734.048 241.675  12
   6  -2  31 561.820 228.975   7
   6   2  31 828.782 241.938   7
   6  -2  32 4091.30 445.805  12
   6  -2  32 4406.04 494.865   7
   6   2  32 4120.79 440.670   7
   6  -2  33 5690.57 469.998  12
   6  -2  33 5779.36 520.879   7
   6   2  33 6291.19 513.597   7
   6  -2  34 2082.11 292.741  12
   6  -2  34 1772.00 296.380   7
   6   2  34 2067.88 297.866   7
   6  -2  35 3279.52 314.716  12
   6  -2  35 3417.12 373.160   7
   6   2  35 3233.63 333.484   7
  -6  -3  39 4087.27 338.519  10
   6   3 -39 3592.23 524.080  14
   6  -3 -38 2355.34 331.043  15
   6   3 -38 2149.93 470.387  14
   6  -3 -38 2314.17 313.858  14
   6  -3 -37 1560.11 294.795  15
   6   3 -37 1145.65 324.149  14
   6  -3 -37 1452.67 280.872  14
   6  -3 -36 132.568 158.100  15
   6   3 -36 180.406 241.916  14
   6  -3 -36 76.0243 137.207  14
   6  -3 -35 10181.8 823.845  15
   6   3 -35 9595.38 959.251  14
   6  -3 -35 9934.64 755.854  14
   6  -3 -34 4967.78 594.842  15
   6  -3 -34 4012.34 508.453  14
   6   3 -34 4701.43 737.847  14
   6   3 -33 2844.08 414.828  15
   6  -3 -33 3122.82 496.827  15
   6   3 -33 2532.24 546.688  14
   6  -3 -33 2468.05 407.628  14
   6   3 -32 120.923 199.627  15
   6  -3 -32 339.724 260.915  15
   6   3 -32 36.0451 233.692  14
   6  -3 -32 303.549 221.328  14
   6   3 -31 1614.91 365.174  15
   6  -3 -31 1636.45 420.117  15
   6   3 -31 1385.11 461.687  14
   6  -3 -31 1247.19 285.797  14
   6   3 -30 151.982 191.061  15
   6  -3 -30 356.814 337.401  15
   6   3 -30 617.575 422.747  14
   6  -3 -30 61.8497 163.775  14
   6   3 -29 2678.17 543.707  15
   6  -3 -29 2493.46 504.523  15
   6   3 -29 2290.89 512.080  14
   6  -3 -29 2577.07 438.078  14
   6   3 -28 7881.39 844.209  15
   6  -3 -28 8389.60 946.518  15
   6   3 -28 7593.29 941.837  14
   6  -3 -28 7725.41 777.835  14
   6   3 -27 4362.70 640.694  15
   6  -3 -27 3803.93 678.923  15
   6   3 -27 3793.72 701.909  14
   6  -3 -27 3760.73 548.228  14
   6   3 -26 557.475 270.591  15
   6  -3 -26 404.175 314.775  15
   6   3 -26-318.467 263.599  14
   6  -3 -26 125.647 214.011  14
   6   3 -25 30038.0 1702.49  15
   6  -3 -25 31964.9 1911.58  15
   6   3 -25 24567.8 1762.94  14
   6  -3 -25 26982.1 1460.56  14
   6   3 -24 3488.34 598.223  15
   6  -3 -24 3027.63 582.774  15
   6   3 -24 2490.72 584.399  14
   6   3 -23 2410.88 501.511  15
   6  -3 -23 2154.71 430.619   9
   6  -3 -23 2654.20 659.678  15
   6   3 -23 2049.77 510.685  14
   6   3 -22 3540.10 603.602  15
   6  -3 -22 3576.90 534.451   9
   6  -3 -22 3603.30 674.480  15
   6   3 -22 3495.60 720.512  14
   6  -3 -21 19968.8 1232.51   9
   6   3 -21 19997.2 1415.08  15
   6  -3 -21 21831.4 1600.52  15
   6   3 -21 18492.7 1492.63  14
   6   3 -20 1542.42 407.092  15
   6  -3 -20 1451.95 355.364   9
   6  -3 -20 2178.23 561.359  15
   6   3 -20 1501.89 505.551  14
   6   3 -19 3033.57 571.744  15
   6  -3 -19 3527.24 671.216  15
   6  -3 -19 3028.74 469.516   9
   6   3 -19 3327.95 655.796  14
   6   3 -18 3887.97 630.104  15
   6  -3 -18 3913.22 668.142  15
   6  -3 -18 3593.23 590.461   9
   6   3 -18 3652.42 693.977  14
   6  -3 -17 22742.5 1389.84   9
   6  -3 -17 26896.3 1738.22  15
   6   3 -17 24522.1 1563.96  15
  -6  -3  16 5947.65 1254.61   3
   6   3 -16 5488.82 772.426  15
   6  -3 -16 5905.06 849.580  15
   6  -3 -16 4760.99 634.267   9
   6  -3 -16 4951.44 1159.49   5
   6   3 -15 10921.2 890.236  11
  -6  -3  15 10817.6 1642.02   3
   6  -3 -15 10153.1 894.583   9
   6   3 -15 9767.97 992.129  15
   6  -3 -15 10805.4 1109.09  15
   6   3 -15 11839.1 1734.60   5
   6  -3 -15 8624.33 1432.52   5
  -6  -3  14 33225.7 2910.83   3
   6   3 -14 34362.0 1618.85  11
   6  -3 -14 32517.2 1635.58   9
   6   3 -14 34367.2 1830.08  15
   6  -3 -14 35601.5 1912.67  15
   6   3 -14 36436.7 3045.02   5
  -6  -3  13 25033.1 2473.11   3
   6   3 -13 24533.6 1386.18  11
   6  -3 -13 23222.8 1330.44  10
  -6  -3  13 24577.6 2296.06   1
   6  -3 -13 23466.0 1400.92   9
   6   3 -13 24518.5 1536.65  15
   6  -3 -13 25493.3 1623.43  15
  -6  -3  12 1304.98 491.971   1
   6   3 -12 1664.46 387.801  11
   6  -3 -12 1231.85 337.681  10
  -6  -3  12 1123.40 553.396   3
   6   3 -12 1075.93 358.923  15
   6  -3 -12 1313.91 424.771  15
   6  -3 -12 800.202 335.298   9
   6  -3 -11 1609.66 396.641  11
   6   3 -11 2280.69 465.399  11
   6  -3 -11 2090.14 445.364  10
  -6  -3  11 2673.47 1102.44   3
   6   3 -11 2708.69 604.887  15
   6  -3 -11 2091.68 503.989  15
   6  -3 -11 2143.56 471.575   9
  -6  -3  11 1516.98 859.807   1
   6  -3 -10 75987.7 2587.03  11
  -6  -3  10 79779.6 4307.34   3
   6   3 -10 79618.6 4570.38   2
   6   3 -10 78735.0 2502.16  11
  -6  -3  10 79670.9 4052.26   1
   6  -3 -10 71159.3 2257.16  10
   6  -3 -10 76805.4 2495.40   9
   6   3 -10 79456.9 2712.04  15
   6  -3 -10 72116.1 2661.51  15
   6  -3  -9 38.8932 289.678  11
   6   3  -9 434.065 318.677  11
   6  -3  -9 223.451 348.509  10
  -6  -3   9 568.621 1009.13   3
   6   3  -9 672.809 447.368  15
   6  -3  -9 393.585 352.781  15
   6  -3  -9 714.643 516.579   9
   6   3  -9 1150.40 1243.90   2
  -6  -3   9 1123.31 925.390   1
   6  -3  -8 49351.9 1767.44  12
   6  -3  -8 53977.9 2212.99  11
   6   3  -8 53544.7 3763.00   2
  -6  -3   8 56675.7 3420.68   1
   6   3  -8 56498.6 2103.82  11
   6  -3  -8 56393.2 2123.97   9
   6   3  -8 55443.5 2254.47  15
   6  -3  -8 51207.5 2165.66  15
   6  -3  -8 52618.4 1761.71   8
   6  -3  -7 5104.47 606.812  12
   6  -3  -7 5387.71 776.861  11
   6   3  -7 4925.80 672.165  11
   6  -3  -7 7117.34 840.824   9
  -6  -3   7 6167.94 1173.18   1
   6   3  -7 4268.20 648.504  15
   6  -3  -7 3330.09 595.686  15
   6   3  -7 6240.85 1351.69   2
   6  -3  -7 5208.59 580.646   8
   6  -3  -6 1131.30 414.415  12
   6  -3  -6 803.994 329.826  11
   6   3  -6 1406.02 393.987  11
   6  -3  -6 2420.72 969.584   6
  -6  -3   6 1672.15 771.456   1
   6   3  -6 987.380 380.012  15
   6   3  -6 1924.71 877.715   2
   6  -3  -6 243.195 193.853  15
   6  -3  -6 1107.69 376.728   9
   6  -3  -6 645.630 283.513   8
   6  -3  -5 15198.9 976.425  12
  -6  -3   5 15478.2 1750.00   1
   6   3  -5 13002.6 1863.57   2
   6  -3  -5 15359.3 1228.23  11
   6   3  -5 15414.1 1117.59  11
   6  -3  -5 16949.6 1917.59   6
   6   3  -5 16690.7 1218.04  15
   6  -3  -5 17124.8 1163.94   9
   6  -3  -5 14710.7 967.325   8
   6  -3  -4 1214.30 383.857   8
   6  -3  -4 1490.56 490.175  12
   6   3  -4 6021.25 1567.44   2
   6  -3  -4 1120.29 402.186  11
   6   3  -4 1994.13 453.761  11
  -6  -3   4 2856.63 993.818   1
   6  -3  -4 5468.19 1241.22   6
   6   3  -4 1446.75 477.386  15
   6  -3  -4 1774.39 469.996   9
   6  -3  -3 16877.6 1026.34  12
  -6  -3   3 18589.0 1967.84   1
   6   3  -3 16192.8 2047.33   2
   6  -3  -3 18512.2 1297.94  11
   6   3  -3 18152.2 1218.81  11
   6  -3  -3 18680.6 2018.67   6
   6   3  -3 17762.0 1219.46  15
   6  -3  -3 17887.9 1151.28   9
   6  -3  -3 16462.7 1040.18   8
   6  -3  -2 610.935 279.445   8
   6  -3  -2 997.629 543.791  12
   6   3  -2 6440.72 1769.56   2
   6  -3  -2 166.316 253.391  11
   6   3  -2 869.429 407.035  11
  -6  -3   2 3078.66 1010.57   1
   6  -3  -2 5921.46 1445.63   6
   6   3  -2 930.932 444.079  15
   6  -3  -2 1344.01 464.620   9
  -6  -3   1 28053.5 2390.63   1
   6  -3  -1 24355.8 1222.65  12
   6   3  -1 25136.8 2539.84   2
   6  -3  -1 25838.5 1530.81  11
   6   3  -1 27371.5 1485.73  11
   6  -3  -1 28808.3 2519.71   6
   6   3  -1 25387.1 1435.38  15
   6  -3  -1 24759.4 1359.25   9
   6  -3  -1 25014.3 1291.49   8
   6  -3   0 601.295 372.402   8
   6  -3   0 894.769 409.628  12
   6   3   0 6975.46 1690.46   2
   6  -3   0 742.361 370.508  11
   6   3   0 658.737 354.781  11
  -6  -3   0 1174.97 786.683   1
   6   3   0 1473.01 413.606   7
   6  -3   0 6621.88 1857.22   6
   6   3   0 808.521 368.149  15
   6  -3   0 645.961 370.057   9
  -6  -3  -1 21820.1 2246.95   1
   6  -3   1 18287.1 1121.77  12
   6   3   1 23233.9 2542.71   2
   6  -3   1 18907.4 1329.49  11
   6   3   1 21106.4 1203.11   7
   6   3   1 20882.7 1315.91  11
   6  -3   1 23650.4 2428.30   6
   6   3   1 18852.9 1224.13  15
   6  -3   1 18261.4 1186.07   9
   6  -3   1 20787.2 1204.40   8
   6  -3   2 21774.9 1219.92  12
   6   3   2 23879.9 2673.58   2
   6  -3   2 22311.5 1463.51  11
   6   3   2 22656.5 1192.52   7
   6   3   2 21427.8 1357.07  11
   6  -3   2 26502.5 2560.97   6
   6   3   2 22437.2 1315.32  15
   6  -3   2 18734.1 1231.28   9
   6  -3   2 22632.9 1274.50   8
  -6  -3  -2 23467.4 2311.78   1
   6  -3   3 12310.9 915.624  12
   6   3   3 11957.6 1825.62   2
   6  -3   3 12317.8 1106.42  11
   6   3   3 11710.5 875.656   7
   6   3   3 12627.7 1030.24  11
   6  -3   3 13302.6 1815.06   6
   6   3   3 12598.7 977.550  15
   6  -3   3 10728.2 927.686   9
   6  -3   3 12483.3 953.636   8
  -6  -3  -3 12128.7 1705.00   1
   6  -3   4 984.763 365.454   8
   6  -3   4 824.164 348.270  12
  -6  -3  -4 962.239 595.750   1
   6  -3   4 388.631 271.123  11
   6   3   4 1193.58 362.721  11
  -6   3  -4 280.790 538.093  18
   6   3   4 880.102 288.539   7
   6  -3   4 869.093 767.664   6
   6   3   4 866.903 546.929   2
   6  -3   4 393.731 249.499   9
   6  -3   5 373.795 238.223   8
   6  -3   5 906.234 336.583  12
  -6  -3  -5 1692.85 931.562   1
   6  -3   5 647.177 329.996  11
   6   3   5 556.951 344.363  11
  -6   3  -5 763.727 581.948  18
   6   3   5 764.186 298.440   7
   6  -3   5 2212.19 1035.75   6
   6   3   5 1230.07 840.923   2
   6  -3   5 501.990 252.601   9
   6  -3   6 23148.1 1251.81  12
   6   3   6 25149.0 2514.02   2
   6  -3   6 24308.0 1553.32  11
   6   3   6 25420.3 1274.03   7
   6   3   6 23836.0 1442.62  11
  -6   3  -6 20784.3 2715.73  18
   6  -3   6 23100.2 2406.79   6
   6  -3   6 21419.8 1279.46   9
   6  -3   6 25131.7 1362.28   8
  -6  -3  -6 24590.4 2454.96   1
   6  -3   7 67.8948 171.389   8
   6  -3   7 168.810 244.837  12
  -6  -3  -7 12.9802 368.070   1
   6  -3   7-9.16056 209.433  11
   6   3   7 156.377 184.031  11
  -6   3  -7-144.362 433.592  18
   6   3   7-150.692 204.963   7
   6   3   7 718.170 741.125   2
   6  -3   7 213.811 367.473   6
   6  -3   7 19.6181 176.423   9
   6  -3   8 3405.09 512.806   8
   6  -3   8 3200.62 504.249  12
  -6  -3  -8 3449.38 973.489   1
   6  -3   8 2488.20 491.473  11
   6   3   8 3188.18 544.262  11
  -6   3  -8 2264.07 903.424  18
   6   3   8 3627.73 497.384   7
   6   3   8 3877.10 1065.32   2
   6  -3   8 4527.19 1134.56   6
   6  -3   8 2984.88 481.695   9
   6  -3   9 4451.55 595.922   8
   6  -3   9 4586.67 572.411  12
  -6  -3  -9 4619.26 1120.07   1
   6  -3   9 4703.60 687.161  11
   6   3   9 4416.61 594.948  11
  -6   3  -9 5564.80 1396.88  18
   6   3   9 4047.56 525.452   7
   6   3   9 4355.97 1094.56   2
   6  -3   9 4340.93 1157.87   6
   6  -3  10 2639.78 474.040   8
  -6  -3 -10 3720.27 1018.63   1
   6  -3  10 2185.46 442.826  12
   6  -3  10 2157.31 487.273  11
   6   3  10 2570.78 477.971  11
  -6   3 -10 2187.71 1032.75  18
   6   3  10 2750.52 454.803   7
   6   3  10 2233.53 870.077   2
   6  -3  10 3420.92 1001.86   6
   6   3  11 8311.88 1511.85   2
   6  -3  11 8174.53 789.252  12
   6  -3  11 7682.21 909.927  11
   6   3  11 8936.99 801.576   7
   6   3  11 7564.49 818.348  11
  -6   3 -11 5203.04 1551.44  18
   6  -3  11 7015.82 1418.78   6
  -6  -3 -11 9578.41 1607.59   1
   6  -3  11 7977.15 793.978   8
   6  -3  12-14.3592 231.069   8
   6  -3  12 100.322 212.658  12
   6  -3  12-35.1962 258.623  11
   6   3  12 51.7996 207.767  11
   6   3  12-41.9286 175.555   7
   6  -3  13 29044.0 1447.97  12
   6   3  13 28633.0 1405.44   7
   6  -3  13 26450.2 1626.68  11
   6   3  13 26329.4 1448.95  11
   6  -3  13 27042.5 1439.68   8
   6  -3  14 419.091 247.009   8
   6  -3  14 123.557 211.110  11
   6   3  14-4.40761 224.157  11
   6   3  14 143.413 169.897   7
   6  -3  15 30439.0 1498.15  12
   6  -3  15 27936.0 1358.60   7
   6   3  15 32578.1 1500.70   7
   6   3  15 27422.9 1471.95  11
   6  -3  15 31185.0 1560.74   8
   6  -3  16 39233.2 1710.84  12
   6  -3  16 34921.7 1514.70   7
   6   3  16 40439.1 1678.84   7
   6   3  16 36864.1 1684.96  11
   6  -3  16 39801.3 1758.63   8
   6  -3  17 6904.99 743.607  12
   6  -3  17 4685.26 561.402   7
   6   3  17 5483.85 640.132   7
   6  -3  17 6511.65 739.782   8
   6  -3  18 30759.0 1513.80  12
   6  -3  18 28921.6 1399.34   7
   6   3  18 31797.1 1512.45   7
   6  -3  18 30926.9 1534.05   8
   6  -3  19 21650.9 1259.54  12
   6  -3  19 19871.6 1166.80   7
   6   3  19 20592.3 1227.61   7
   6  -3  19 21008.7 1248.38   8
   6  -3  20 31947.9 1536.10  12
   6  -3  20 29728.7 1422.36   7
   6   3  20 28950.7 1446.88   7
   6  -3  20 32675.8 1531.79   8
   6  -3  21 345.311 248.260  12
   6  -3  21 242.991 187.308   7
   6   3  21 290.586 220.931   7
   6  -3  21 231.309 220.139   8
   6  -3  22 17155.7 1130.46  12
   6  -3  22 17281.4 1072.46   7
   6   3  22 17789.0 1117.51   7
   6  -3  22 18212.9 1113.86   8
   6  -3  23 2334.84 464.646  12
   6  -3  23 1928.32 376.339   7
   6   3  23 1881.50 407.786   7
   6   3  23 3366.60 556.745  16
   6  -3  23 1915.60 391.442   8
   6  -3  24 4193.55 565.970  12
   6  -3  24 4076.48 520.076   7
   6   3  24 3302.67 503.122   7
   6   3  24 5400.30 714.481  16
   6  -3  24 4332.03 506.619   8
   6  -3  25 4748.09 565.424  12
   6  -3  25 5074.00 576.191   7
   6   3  25 5060.88 582.854   7
   6   3  25 5090.55 663.747  16
   6  -3  25 5321.88 549.645   8
   6  -3  26 6909.56 669.314  12
   6  -3  26 6714.81 669.040   7
   6   3  26 6740.76 662.378   7
   6   3  26 7076.97 762.226  16
   6  -3  27 6902.28 661.781  12
   6  -3  27 6692.91 639.409   7
   6   3  27 6504.28 618.841   7
   6   3  27 5964.52 696.751  16
   6  -3  28 2688.27 408.633  12
   6  -3  28 2266.64 392.245   7
   6   3  28 2287.82 373.416   7
   6  -3  29 2095.87 357.104  12
   6  -3  29 2152.53 354.970   7
   6   3  29 1899.27 324.142   7
   6  -3  30 20.4275 174.401  12
   6   3  30 293.640 209.764   7
   6  -3  31 3485.28 405.321   7
   6  -3  31 4539.65 453.095  12
   6   3  31 3437.30 381.402   7
   6  -3  32 3265.84 363.870  12
   6   3  32 3420.70 362.450   7
   6  -3  33 1418.52 248.663  12
   6   3  33 1284.72 217.077   7
   6  -3  34 181.345 110.521  12
  -6  -4  36 1962.48 255.631  10
   6  -4 -36 1957.18 295.142  15
   6   4 -36 2024.30 398.279  14
  -6  -4  35 763.369 184.913  10
   6  -4 -35 904.257 253.456  15
   6   4 -35 804.591 338.685  14
   6  -4 -35 828.246 195.865  14
  -6  -4  34 1186.18 240.837  10
   6  -4 -34 880.098 268.559  15
   6   4 -34 1103.75 434.225  14
   6  -4 -34 1244.66 254.950  14
  -6  -4  33 194.539 161.409  10
   6  -4 -33 197.060 195.053  15
   6   4 -33-332.720 292.811  14
   6  -4 -33 62.6465 120.581  14
   6  -4 -32 23004.8 1253.45  15
   6   4 -32 19558.5 1494.92  14
   6  -4 -32 18756.0 985.449  14
   6  -4 -31 116.801 190.743  15
   6   4 -31-161.674 278.248  14
   6  -4 -31-7.18845 133.774  14
   6   4 -30 19375.8 1092.48  15
   6  -4 -30 20354.9 1275.86  15
   6   4 -30 17851.0 1488.27  14
   6  -4 -30 17499.7 1003.35  14
   6   4 -29-202.560 177.216  15
   6  -4 -29 247.966 236.657  15
   6   4 -29-125.320 290.176  14
   6  -4 -29-31.4537 206.279  14
   6   4 -28 28358.9 1412.37  15
   6   4 -28 24846.2 1837.88  14
   6  -4 -28 25760.3 1304.19  14
   6   4 -27 17225.2 1137.73  15
   6  -4 -27 18300.5 1339.63  15
   6   4 -27 14359.5 1420.26  14
   6  -4 -27 15903.9 1031.24  14
   6   4 -26 4058.37 578.446  15
   6  -4 -26 4273.18 691.095  15
   6   4 -26 3999.96 820.040  14
   6  -4 -26 3586.07 487.715  14
   6   4 -25 8509.58 845.444  15
   6  -4 -25 9587.40 1019.67  15
   6   4 -25 6617.90 939.932  14
   6   4 -24 21117.1 1351.95  15
   6  -4 -24 22874.5 1576.08  15
   6   4 -23 3225.23 518.553  15
   6  -4 -23 3656.30 509.575   9
   6  -4 -23 3825.85 691.367  15
   6   4 -23 2372.56 671.174  14
   6  -4 -22 15916.4 1054.23   9
   6   4 -22 17148.2 1270.60  15
   6  -4 -22 18056.5 1425.61  15
   6  -4 -21 36827.4 1631.94   9
   6   4 -21 33757.2 1818.90  15
   6  -4 -21 37103.6 2020.51  15
   6   4 -20 2357.61 510.175  15
   6  -4 -20 2192.58 550.215  15
   6  -4 -20 2029.34 445.009   9
   6   4 -20 1687.31 541.905  14
   6   4 -19 147.428 218.861  15
   6  -4 -19 141.103 316.748  15
   6  -4 -19 215.895 219.157   9
   6   4 -19 346.716 438.410  14
   6   4 -18 670.168 303.034  15
   6  -4 -18 835.884 362.878  15
   6  -4 -18 673.473 316.380   9
   6   4 -18 686.359 432.772  14
   6  -4 -17 20690.3 1303.60  10
   6  -4 -17 19998.0 1288.94   9
   6   4 -17 17905.0 1377.09  15
   6  -4 -17 19845.9 1517.22  15
   6   4 -17 17216.1 1656.04  14
   6   4 -16 4734.62 604.578  11
   6  -4 -16 4971.60 643.191  10
   6   4 -16 4661.37 702.802  15
   6  -4 -16 4539.59 732.466  15
   6  -4 -16 4042.56 558.032   9
   6   4 -16 3271.66 747.665  14
   6   4 -15 6687.18 760.388  11
   6  -4 -15 6294.37 745.413  10
   6   4 -15 6162.18 827.907  15
   6  -4 -15 6452.98 728.358   9
   6  -4 -15 6799.96 894.041  15
   6   4 -14 1561.40 405.434  11
   6  -4 -14 1454.78 355.968  10
   6   4 -14 1681.53 415.661  15
   6  -4 -14 1317.09 470.461  15
   6  -4 -14 1596.29 404.172   9
   6   4 -13-61.4868 190.030  11
   6  -4 -13 151.741 262.032  10
   6   4 -13 113.871 295.327  15
   6  -4 -13 233.003 244.677  15
   6  -4 -13 611.182 311.567   9
   6   4 -12 514.711 286.884  11
   6  -4 -12 543.705 294.745  10
   6   4 -12 211.656 279.420  15
   6  -4 -12 140.348 213.624  15
   6  -4 -12 120.296 260.426   9
   6   4 -11 8336.43 840.406  11
   6  -4 -11 6167.33 727.148  10
   6   4 -11 7441.31 862.384  15
   6  -4 -11 9228.72 850.695   9
   6  -4 -11 6739.60 885.448  15
   6   4 -10 7637.63 818.390  11
   6  -4 -10 7959.66 782.510  10
   6   4 -10 9365.44 972.663  15
   6  -4 -10 9792.15 884.260   9
   6  -4 -10 7590.40 926.573  15
   6   4  -9 6651.96 755.200  11
   6  -4  -9 5279.79 641.653  10
   6   4  -9 6185.44 824.649  15
   6  -4  -9 7259.70 807.743   9
   6  -4  -9 5173.88 783.705  15
   6   4  -8 3029.07 551.913  11
   6  -4  -8 2152.41 416.031  10
   6   4  -8 3224.23 596.328  15
   6  -4  -8 2530.91 532.946  15
   6  -4  -8 3341.13 546.735   9
   6   4  -7 7786.89 850.443  11
  -6  -4   7 8361.93 789.122  10
   6   4  -7 9002.34 983.817  15
   6  -4  -7 8928.27 901.491   9
   6  -4  -7 6438.03 777.308  15
   6  -4  -6 10097.6 804.843  12
   6   4  -6 10249.9 969.075  11
  -6  -4   6 9813.27 846.556  10
   6   4  -6 10211.1 1035.41  15
   6  -4  -6 11162.5 998.183   9
   6  -4  -6 8785.17 930.942  15
   6  -4  -6 10238.0 829.951   8
   6  -4  -5 508.733 321.406   8
   6  -4  -5 1345.68 435.567  12
   6   4  -5 1304.64 504.705  11
  -6  -4   5 1315.38 420.050  10
   6   4  -5 1291.50 553.656  15
   6  -4  -5 1544.17 491.570   9
   6  -4  -4 26085.7 1278.83  12
  -6  -4   4 31225.2 2787.81   1
   6   4  -4 29216.5 1630.09  11
  -6  -4   4 28064.1 1385.57  10
   6   4  -4 29531.4 1683.06  15
   6  -4  -4 29232.5 1559.21   9
   6  -4  -4 24632.7 1291.84   8
   6  -4  -3 10176.2 849.402  12
  -6  -4   3 8746.34 1563.17   1
   6   4  -3 8988.07 933.974  11
   6   4  -3 10150.4 1001.57  15
   6  -4  -3 10042.9 977.549   9
   6  -4  -3 9441.35 828.887   8
   6  -4  -2 13115.5 1052.70  12
   6   4  -2 12294.7 1148.46  11
   6   4  -2 11597.8 1217.92  15
   6  -4  -2 11433.8 1078.40   9
   6  -4  -2 9093.16 851.045   8
   6  -4  -1 116412. 2744.06  12
   6   4  -1 120588. 3317.78  11
   6   4  -1 121937. 3357.48  15
   6  -4  -1 118748. 3141.96   9
   6  -4  -1 118779. 2908.07   8
   6  -4   0 127983. 2883.64  12
   6   4   0 125761. 3385.80  11
   6   4   0 120602. 3299.70  15
   6  -4   0 128125. 3243.05   9
   6  -4   0 127884. 3021.54   8
   6  -4   1 6562.91 882.982  12
   6   4   1 2982.74 732.567   7
   6   4   1 1557.09 583.759  11
   6  -4   1 6208.62 865.552   9
   6   4   1 1372.68 500.230  15
   6  -4   1 4621.80 777.336   8
   6  -4   2 43594.1 1684.21  12
   6   4   2 46376.2 1817.51   7
   6   4   2 47643.0 2104.68  11
   6   4   2 47336.8 2030.57  15
   6  -4   2 42377.0 1864.26   9
   6  -4   2 44276.4 1823.41   8
   6  -4   3 3030.68 594.548   8
   6  -4   3 3868.03 670.926  12
   6   4   3 4347.86 664.726   7
   6   4   3 2792.97 653.146  11
   6   4   3 1839.73 505.333  15
   6  -4   3 2862.46 595.866   9
   6  -4   4 32813.2 1477.71  12
   6   4   4 33884.0 1554.44   7
   6   4   4 34336.5 1776.67  11
   6   4   4 34079.4 1675.33  15
   6  -4   4 31859.8 1599.70   9
   6  -4   4 33889.2 1614.18   8
   6  -4   5 1470.30 481.641   8
   6  -4   5 1384.86 496.708  12
   6   4   5 587.412 399.786  11
   6   4   5 1302.53 477.344   7
   6   4   5 261.820 305.032  15
   6  -4   5 989.729 417.352   9
   6  -4   6 40706.6 1675.40  12
   6   4   6 43845.5 1753.22   7
   6   4   6 42808.4 1984.60  11
   6   4   6 43051.4 1855.94  15
   6  -4   6 38468.9 1733.57   9
   6  -4   6 41189.5 1801.99   8
   6  -4   7 6946.77 842.484  12
   6   4   7 6850.74 879.714   7
   6   4   7 5428.43 790.052  11
   6  -4   7 5496.50 692.673   9
   6  -4   7 5539.89 756.499   8
   6  -4   8 89037.1 2484.37  12
   6   4   8 87648.8 2513.51   7
   6   4   8 92444.0 2867.32  11
   6  -4   8 88139.6 2549.96   9
   6  -4   8 86073.7 2625.70   8
   6  -4   9 25058.8 1349.28  12
   6   4   9 25653.7 1365.47   7
   6   4   9 25335.2 1484.39  11
   6  -4   9 24411.7 1334.90   9
   6  -4   9 24289.8 1409.85   8
   6  -4  10 6293.67 711.791  12
   6   4  10 5423.09 668.331   7
   6   4  10 5278.34 742.942  11
   6  -4  10 5000.04 671.638   8
   6  -4  11 44226.0 1769.48  12
   6   4  11 47032.4 1811.83   7
   6   4  11 45299.3 1986.19  11
   6  -4  11 44531.0 1888.63   8
   6  -4  12 19.9462 204.393   8
   6  -4  12 403.712 342.218  12
   6   4  12 49.7192 181.606  11
   6   4  12-1.91556 211.648   7
   6  -4  13 28910.2 1430.85  12
   6   4  13 30093.8 1425.54   7
   6   4  13 28141.0 1498.29  11
   6   4  13 26051.8 1436.37  16
   6  -4  13 27989.4 1486.86   8
   6  -4  14 2297.14 486.527   8
   6  -4  14 2693.52 503.987  12
   6   4  14 2281.99 449.157  11
   6   4  14 2558.99 470.209   7
   6   4  14 2177.12 418.531  16
   6  -4  15 936.448 341.595   8
   6  -4  15 1089.27 318.457  12
   6   4  15 468.163 237.108  11
   6   4  15 777.947 255.361   7
   6   4  15 932.934 284.706  16
   6  -4  16 11992.7 932.198  12
   6   4  16 12475.6 921.863   7
   6   4  16 12305.0 934.284  11
   6   4  16 11386.9 984.801  16
   6  -4  16 12709.3 992.750   8
   6  -4  17 12582.1 944.896  12
   6   4  17 11390.8 877.304   7
   6   4  17 11653.8 1001.70  16
   6  -4  17 11922.8 958.737   8
   6  -4  18 346.163 234.225   8
   6  -4  18 596.443 313.391  12
   6   4  18 189.770 196.627   7
   6   4  18-46.5862 186.554  16
   6  -4  19 3421.18 504.622   8
   6  -4  19 3731.51 534.491  12
   6  -4  19 2719.61 425.457   7
   6   4  19 3414.11 483.471   7
   6   4  19 2708.16 487.016  16
   6  -4  20 5115.35 584.255  12
   6   4  20 4552.02 548.632   7
   6   4  20 5016.30 671.878  16
   6  -4  20 4985.73 591.280   8
   6  -4  21 3371.11 470.915   8
   6  -4  21 3083.42 503.958  12
   6   4  21 2873.65 449.249   7
   6   4  21 2992.58 507.665  16
   6  -4  22 2055.69 399.648  12
   6   4  22 2676.32 406.444   7
   6   4  22 1978.80 450.266  16
   6  -4  22 1910.42 373.937   8
   6  -4  23 7229.36 655.656  12
   6   4  23 6972.49 657.484   7
   6   4  23 6960.82 751.601  16
   6  -4  23 7982.19 687.891   8
   6  -4  24 6867.01 643.806  12
   6   4  24 6463.97 587.389   7
   6   4  24 5469.69 662.805  16
   6  -4  24 6742.49 592.588   8
   6  -4  25 982.921 283.974  12
   6   4  25 537.596 213.630   7
   6   4  25 520.147 227.155  16
   6  -4  25 666.004 197.800   8
   6  -4  26 4617.21 493.190  12
   6   4  26 4251.20 464.189   7
   6   4  26 3472.63 516.423  16
   6  -4  26 4126.48 427.934   8
   6  -4  27 4444.78 480.523  12
   6   4  27 4120.65 445.184   7
   6   4  27 4144.90 524.928  16
   6  -4  28 1781.14 311.833  12
   6   4  28 1552.82 262.006   7
   6   4  28 1359.30 331.890  16
   6  -4  29 4075.39 430.874  12
   6   4  29 3500.78 355.471   7
   6  -4  30-21.9567 125.824  12
   6  -4  31 1762.96 250.479  12
   6  -4  32 3624.50 326.190  12
  -6  -5  33 2589.13 270.655  10
   6  -5 -33 1998.76 302.928  15
  -6  -5  32 465.912 167.347  10
   6  -5 -32 147.439 143.359  15
   6   5 -32 406.148 381.561  14
  -6  -5  31 82.4060 125.441  10
   6  -5 -31 30.7781 152.774  15
  -6  -5  30 12317.1 703.419  10
   6  -5 -30 11878.1 822.357  15
  -6  -5  29-278.791 196.655  10
   6  -5 -29-27.9511 173.236  15
   6   5 -29 23.0461 314.277  14
  -6  -5  28 11044.2 719.087  10
   6   5 -28 8961.88 652.974  15
   6  -5 -28 11486.6 883.977  15
  -6  -5  27 10542.9 735.577  10
   6   5 -27 9809.45 719.069  15
   6  -5 -27 11117.9 896.288  15
  -6  -5  26 8004.62 669.611  10
   6   5 -26 7429.11 658.909  15
   6  -5 -26 8468.83 828.564  15
  -6  -5  25 1272.69 334.034  10
   6   5 -25 1501.01 368.403  15
   6  -5 -25 1855.67 422.129  15
   6   5 -25 833.516 421.431  14
  -6  -5  24 2465.37 411.329  10
   6   5 -24 2649.10 448.291  15
   6  -5 -24 2465.35 471.750  15
   6   5 -24 1241.71 472.328  14
  -6  -5  23 3636.24 495.617  10
   6   5 -23 3751.80 581.779  15
   6  -5 -23 3051.70 553.207  15
   6   5 -23 2446.59 762.804  14
  -6  -5  22 128.140 233.656  10
   6   5 -22-72.9391 248.521  15
   6  -5 -22 126.643 227.978   9
   6  -5 -22-369.159 311.384  15
   6   5 -22 184.940 417.599  14
  -6  -5  21 921.399 312.340  10
   6   5 -21 702.601 287.531  15
   6  -5 -21 615.522 278.871   9
   6  -5 -21 1134.90 379.580  15
   6   5 -21 607.669 402.746  14
  -6  -5  20 299.444 264.487  10
   6   5 -20 262.700 226.413  15
   6  -5 -20 149.885 286.008  15
   6  -5 -20 57.9090 184.457   9
   6   5 -20-33.0725 414.372  14
  -6  -5  19 233.133 196.877  10
   6   5 -19-258.112 275.087  15
   6  -5 -19 250.950 298.467  15
   6  -5 -19-18.3673 243.738   9
   6   5 -19 130.157 422.128  14
  -6  -5  18 2831.89 464.613  10
   6   5 -18 3373.01 565.534  15
   6  -5 -18 3328.51 632.708  15
   6  -5 -18 3003.76 503.385   9
   6   5 -18 2166.35 743.601  14
   6   5 -17 786.794 248.824  11
   6  -5 -17 627.985 204.992  10
  -6  -5  17 658.820 253.536  10
   6   5 -17 365.802 294.508  15
   6  -5 -17 748.503 391.019  15
   6  -5 -17 484.477 285.595   9
   6   5 -17-15.3612 454.672  14
   6   5 -16 11111.5 903.821  11
   6  -5 -16 10864.3 916.481  10
  -6  -5  16 10653.4 883.174  10
   6   5 -16 11504.6 1017.71  15
   6  -5 -16 10647.7 928.889   9
   6  -5 -16 11335.8 1090.39  15
   6   5 -16 9247.25 1394.73  14
   6   5 -15 2343.69 432.839  11
   6  -5 -15 2136.98 425.303  10
  -6  -5  15 3075.73 513.853  10
   6   5 -15 2317.82 554.711  15
   6  -5 -15 2591.24 551.198  15
   6  -5 -15 2241.73 467.106   9
   6   5 -15 2220.58 670.147  14
   6   5 -14 41819.0 1784.94  11
   6  -5 -14 39324.5 1720.20  10
  -6  -5  14 40759.8 1735.21  10
   6   5 -14 38953.4 1949.34  15
   6  -5 -14 40504.3 1806.21   9
   6  -5 -14 41136.7 2078.29  15
   6   5 -14 37052.3 2714.36  14
   6   5 -13-293.666 290.484  11
   6  -5 -13 564.137 330.537  10
  -6  -5  13-13.2725 206.267  10
   6   5 -13 5.42538 288.636  15
   6  -5 -13 516.177 376.347  15
   6  -5 -13 241.517 328.265   9
   6   5 -12 1615.74 420.976  11
   6  -5 -12 1361.66 374.931  10
  -6  -5  12 1711.82 352.164  10
   6   5 -12 1689.27 422.522  15
   6  -5 -12 1199.23 385.204  15
   6  -5 -12 2028.54 460.875   9
   6   5 -11 1067.73 387.707  11
   6  -5 -11 868.559 268.297  10
  -6  -5  11 1054.83 304.399  10
   6   5 -11 786.404 343.978  15
   6  -5 -11 505.847 309.189  15
   6  -5 -11 1188.54 373.426   9
   6   5 -10 120.119 223.641  11
   6  -5 -10 298.358 270.709  10
  -6  -5  10 597.436 313.614  10
   6   5 -10 73.1365 283.519  15
   6  -5 -10 41.8999 207.838  15
   6  -5 -10 373.689 345.187   9
   6   5  -9 6786.52 806.814  11
   6  -5  -9 5904.63 668.156  10
  -6  -5   9 6974.47 739.533  10
   6   5  -9 6322.51 807.249  15
   6  -5  -9 5965.22 762.162   9
   6  -5  -9 5393.00 775.829  15
   6   5  -8 1860.54 493.950  11
   6  -5  -8 1151.83 365.441  10
  -6  -5   8 2502.85 549.791  10
   6   5  -8 2083.17 662.195  15
   6  -5  -8 1234.78 412.668  15
   6  -5  -8 2245.78 543.528   9
   6   5  -7 33728.8 1722.00  11
   6  -5  -7 26922.8 1384.03  10
  -6  -5   7 30284.2 1470.18  10
   6   5  -7 29762.0 1708.86  15
   6  -5  -7 33825.3 1691.56   9
   6  -5  -7 25969.0 1552.63  15
   6   5  -6 3098.56 572.593  11
  -6  -5   6 3274.72 518.969  10
   6  -5  -6 5083.13 753.867   9
   6   5  -6 4209.38 740.301  15
   6   5  -5 8704.57 934.694  11
  -6  -5   5 8541.12 775.248  10
   6   5  -5 8926.80 954.166  15
   6  -5  -5 9077.29 903.009   9
   6  -5  -5 7692.92 707.193   8
   6   5  -4 7686.68 898.934  11
  -6  -5   4 7870.38 748.965  10
   6   5  -4 6992.05 838.568  15
   6  -5  -4 8387.87 841.066   9
   6  -5  -4 6614.95 681.533   8
   6  -5  -3 7741.70 679.807  12
   6   5  -3 7324.59 849.482  11
  -6  -5   3 8284.12 752.990  10
   6   5  -3 8005.86 903.347  15
   6  -5  -3 9648.85 932.690   9
   6  -5  -3 8104.43 754.428   8
   6  -5  -2 673.758 258.772   8
   6  -5  -2 786.970 279.962  12
   6   5  -2 481.429 236.938  11
  -6  -5   2 580.454 264.138  10
   6   5  -2 425.825 246.293  15
   6  -5  -2 1221.39 403.669   9
   6  -5  -1 334.664 214.689   8
   6  -5  -1 514.459 281.205  12
   6   5  -1 587.739 378.155  11
   6   5  -1 499.617 318.163  15
   6  -5  -1 760.588 357.274   9
   6  -5   0 8211.35 704.040  12
   6   5   0 10887.3 868.869   7
   6   5   0 8878.00 911.713  11
   6   5   0 8478.31 774.717  16
   6   5   0 8715.76 900.292  15
   6  -5   0 8878.06 889.909   9
   6  -5   0 9831.69 848.752   8
   6  -5   1 628.676 302.629   8
   6  -5   1 571.864 281.583  12
   6   5   1 23.2784 244.767  11
   6   5   1 30.9614 292.680   7
   6   5   1 639.874 395.429  16
   6   5   1 422.311 283.768  15
   6  -5   1 802.785 398.597   9
   6  -5   2 4286.14 576.153   8
   6  -5   2 4057.11 515.758  12
   6   5   2 5149.12 596.547   7
   6   5   2 4081.64 643.535  11
   6   5   2 3770.61 525.002  16
   6   5   2 3646.21 570.022  15
   6  -5   2 4449.68 644.708   9
   6  -5   2 4043.81 481.021  13
   6  -5   3 927.913 347.040   8
   6  -5   3 1289.72 405.180  12
   6   5   3 2623.55 619.788   7
   6   5   3 1719.23 556.760  11
   6   5   3 1681.88 490.825  15
   6  -5   3 1177.73 386.206   9
   6  -5   4 26221.5 1254.11  12
   6   5   4 31981.7 1509.49   7
   6   5   4 29913.6 1658.02  11
   6   5   4 32882.2 1566.51  16
   6  -5   4 27961.0 1489.75   9
   6  -5   4 28790.6 1485.38   8
   6  -5   4 29779.3 1297.20  13
   6  -5   5 13590.8 937.474  12
   6   5   5 14387.0 1011.11   7
   6   5   5 13899.3 1125.71  11
   6   5   5 14893.6 1054.58  16
   6  -5   5 13992.8 1061.30   9
   6  -5   5 14069.3 1047.45   8
   6  -5   5 17931.8 1062.78  13
   6  -5   6 4518.03 605.459   8
   6  -5   6 3501.88 488.709  12
   6   5   6 4253.06 574.710   7
   6   5   6 3863.99 621.239  11
   6   5   6 3691.20 541.595  16
   6  -5   6 3757.11 574.482   9
   6  -5   6 4904.33 594.173  13
   6  -5   7 505.373 256.434   8
   6  -5   7 961.232 290.690  13
   6  -5   7 881.694 280.319  12
   6   5   7 541.559 201.526  11
   6   5   7 786.786 307.365   7
   6   5   7 149.357 189.459  16
   6  -5   7 333.384 218.634   9
   6  -5   8 588.926 295.650   8
   6  -5   8 544.326 191.724  13
   6  -5   8 518.099 229.136  12
   6   5   8 335.430 259.514  11
   6   5   8 258.341 193.742   7
   6   5   8 372.259 194.704  16
   6  -5   8 715.823 310.210   9
   6  -5   9 3313.41 515.380   8
   6  -5   9 3818.27 493.476  12
   6   5   9 4193.91 541.935   7
   6   5   9 3866.22 590.545  11
   6   5   9 3813.66 541.215  16
   6  -5   9 3273.84 507.227   9
   6  -5   9 3496.43 448.912  13
   6  -5  10 1797.14 448.021   8
   6  -5  10 2528.60 390.354  13
   6  -5  10 2742.95 440.514  12
   6   5  10 2509.32 491.468  11
   6   5  10 2378.63 405.645   7
   6   5  10 2679.64 490.859  16
   6  -5  10 2623.83 426.250   9
   6  -5  11 382.671 252.957   8
   6  -5  11 881.229 247.281  13
   6  -5  11 879.588 273.153  12
   6   5  11 536.496 266.119  11
   6   5  11 828.337 270.135   7
   6   5  11 555.844 279.722  16
   6  -5  12 282.728 250.569   8
   6  -5  12 603.818 221.610  13
   6  -5  12 411.221 224.999  12
   6   5  12 247.333 208.515  11
   6   5  12 431.729 228.091   7
   6   5  12 580.081 242.368  16
   6  -5  13 626.542 298.901   8
   6  -5  13 463.796 182.206  13
   6  -5  13 514.651 227.020  12
   6   5  13 599.029 270.182  11
   6   5  13 532.675 215.510   7
   6   5  13 560.146 258.979  16
   6  -5  14 379.604 269.564   8
   6  -5  14-152.234 171.985  13
   6  -5  14-113.844 164.551  12
   6   5  14 9.60518 160.904  11
   6   5  14 228.428 194.107   7
   6   5  14-137.537 190.735  16
   6  -5  15 4668.49 541.055  12
   6   5  15 5794.44 589.997   7
   6   5  15 5000.63 571.415  11
   6   5  15 4488.10 572.001  16
   6  -5  15 5421.51 649.021   8
   6  -5  15 3894.27 446.896  13
   6  -5  16 7922.92 673.245  12
   6   5  16 7775.59 681.658   7
   6   5  16 7202.00 731.961  16
   6  -5  16 7842.12 760.010   8
   6  -5  16 6872.16 578.771  13
   6  -5  17 1448.85 341.802   8
   6  -5  17 1632.82 277.688  13
   6  -5  17 1442.51 325.298  12
   6   5  17 1194.60 288.000   7
   6   5  17 1629.80 357.225  16
   6  -5  18 587.336 220.950   8
   6  -5  18 906.723 274.167  12
   6   5  18 144.018 146.667   7
   6   5  18 516.426 237.097  16
   6  -5  19 1239.14 308.046   8
   6  -5  19 1287.49 297.891  12
   6   5  19 1030.85 259.372   7
   6   5  19 1282.46 357.603  16
   6  -5  20 5773.34 545.147  12
   6   5  20 5326.06 507.723   7
   6   5  20 6580.96 680.632  16
   6  -5  20 6192.88 604.329   8
   6  -5  21 5317.93 525.248  12
   6   5  21 5892.40 522.473   7
   6   5  21 5464.64 621.498  16
   6  -5  21 6186.35 575.671   8
   6  -5  22 4627.78 473.058  12
   6   5  22 4521.95 445.250   7
   6   5  22 5003.56 569.510  16
   6  -5  22 4636.70 484.864   8
   6  -5  23 2426.99 347.889  12
   6   5  23 2246.99 312.321   7
   6   5  23 2949.08 439.016  16
   6  -5  23 2162.11 321.283   8
   6  -5  24 5552.90 479.296  12
   6   5  24 4701.47 417.492   7
   6   5  24 4963.58 569.612  16
   6  -5  24 5350.09 467.321   8
   6  -5  25 5770.93 471.478  12
   6   5  25 5764.37 434.648   7
   6   5  25 5959.29 557.670  16
   6  -5  25 6320.78 467.543   8
   6  -5  26 6778.92 485.827  12
   6  -5  26 5952.06 410.693   8
   6  -5  27 104.945 105.896  12
   6  -5  28 522.316 158.203  12
   6  -6 -28 817.227 220.678  15
  -6  -6  27 893.467 198.426  10
   6  -6 -27 794.493 230.706  15
  -6  -6  26 7798.57 508.278  10
   6  -6 -26 7500.94 615.387  15
  -6  -6  25-78.1790 123.799  10
   6  -6 -25-49.1623 153.618  15
  -6  -6  24 2971.28 364.076  10
   6  -6 -24 2727.43 423.138  15
  -6  -6  23 2868.79 372.653  10
   6  -6 -23 3332.37 475.527  15
  -6  -6  22 437.909 205.309  10
   6  -6 -22 66.0319 168.384  15
  -6  -6  21 2710.02 391.899  10
   6   6 -21 3035.77 437.442  15
   6  -6 -21 2746.96 355.057   9
   6  -6 -21 2477.73 437.046  15
  -6  -6  20 408.799 194.610  10
   6   6 -20 591.108 247.221  15
   6  -6 -20 516.162 231.009   9
   6  -6 -20 622.662 259.413  15
   6  -6 -19-55.3512 161.633  13
  -6  -6  19 11.8364 170.326  10
   6   6 -19 639.411 253.802  15
   6  -6 -19 437.249 248.353  15
   6  -6 -19 219.661 194.874   9
   6  -6 -18-5.54265 154.742  13
  -6  -6  18-85.2687 168.148  10
   6   6 -18-27.9276 186.341  15
   6  -6 -18-123.759 182.985  15
   6  -6 -18-14.1245 159.354   9
   6  -6 -17 135.401 150.169  13
   6   6 -17 259.893 196.182  11
  -6  -6  17 250.623 222.278  10
   6   6 -17-69.5214 202.224  15
   6  -6 -17-11.6052 224.871  15
   6  -6 -17 229.807 235.748   9
   6  -6 -16 335.661 190.526  13
   6   6 -16 379.021 189.326  11
  -6  -6  16 129.110 165.237  10
   6   6 -16-154.391 262.040  15
   6  -6 -16 290.806 219.195  15
   6  -6 -16 255.943 193.022   9
   6   6 -15 3830.95 486.607  11
  -6  -6  15 3934.91 491.428  10
   6   6 -15 3878.07 567.151  15
   6  -6 -15 3285.64 529.959  15
   6  -6 -15 3549.88 497.014   9
   6  -6 -15 4337.79 518.803  13
   6   6 -14 5674.50 603.038  11
   6  -6 -14 5597.78 563.918  10
  -6  -6  14 6525.67 639.785  10
   6   6 -14 5984.24 715.666  15
   6  -6 -14 6557.29 660.144   9
   6  -6 -14 6037.95 710.395  15
   6  -6 -14 6914.59 630.454  13
   6  -6 -13 1579.79 373.385  13
   6   6 -13 789.962 274.310  11
   6  -6 -13 885.860 282.650  10
  -6  -6  13 1175.93 309.390  10
   6   6 -13 781.537 329.215  15
   6  -6 -13 798.203 283.980  15
   6  -6 -13 1195.83 363.290   9
   6   6 -12 7231.63 710.466  11
   6  -6 -12 6997.93 666.402  10
  -6  -6  12 8109.77 723.276  10
   6   6 -12 6384.66 724.339  15
   6  -6 -12 8157.71 779.161   9
   6  -6 -12 6309.21 721.723  15
   6  -6 -12 7668.55 658.638  13
   6   6 -11 2766.97 445.763  11
   6  -6 -11 3064.65 448.966  10
   6   6 -11 3577.53 472.905  16
  -6  -6  11 3618.63 493.582  10
   6   6 -11 2671.46 495.435  15
   6  -6 -11 2406.28 440.215  15
   6  -6 -11 3229.56 532.869   9
   6  -6 -11 4364.93 551.602  13
   6   6 -10 3988.18 575.086  11
   6  -6 -10 3393.97 466.616  10
  -6  -6  10 4011.98 532.234  10
   6   6 -10 4308.93 506.588  16
   6   6 -10 4295.99 628.905  15
   6  -6 -10 3240.45 512.817  15
   6  -6 -10 4551.75 604.356   9
   6  -6 -10 5429.81 566.005  13
   6   6  -9 2495.50 457.332  11
   6  -6  -9 2118.29 395.241  10
   6   6  -9 3518.01 482.582  16
  -6  -6   9 3062.31 460.314  10
   6   6  -9 2774.70 580.418  15
   6  -6  -9 1355.92 314.495  15
   6  -6  -9 3132.63 537.489   9
   6  -6  -9 4241.14 506.778  13
   6   6  -8 7044.98 770.616  11
   6  -6  -8 5715.48 589.526  10
  -6  -6   8 6585.93 663.938  10
   6   6  -8 7355.23 657.960  16
   6   6  -8 6092.38 766.430  15
   6  -6  -8 8192.49 804.267   9
   6  -6  -8 5829.94 694.535  15
   6  -6  -8 7164.21 622.565  13
   6   6  -7 1852.73 443.701  11
   6   6  -7 3248.77 464.777  16
  -6  -6   7 1291.46 298.881  10
   6   6  -7 1619.97 403.443  15
   6  -6  -7 2090.20 482.223   9
   6  -6  -7 3387.19 442.707  13
   6  -6  -6 937.537 303.513  13
   6   6  -6 117.676 213.531  11
  -6  -6   6 110.038 165.591  10
   6   6  -6 899.899 279.964  16
   6   6  -6-146.357 215.794  15
   6  -6  -6 581.900 295.128   9
   6  -6  -5 1653.92 302.299  13
   6   6  -5 1336.36 369.426  11
  -6  -6   5 1558.11 344.015  10
   6   6  -5 2261.56 428.282  16
   6  -6  -5 1515.88 420.839   9
   6   6  -4 4920.44 615.067   7
   6   6  -4 3320.07 553.187  11
  -6  -6   4 4217.60 534.516  10
   6   6  -4 5488.73 669.538  16
   6  -6  -4 4146.37 604.126   9
   6  -6  -4 6213.91 601.051  13
   6   6  -3 7921.99 734.065   7
   6   6  -3 6757.68 761.021  11
  -6  -6   3 7162.51 659.329  10
   6   6  -3 7156.91 674.931  16
   6  -6  -3 6991.44 753.425   9
   6  -6  -3 9100.73 696.508  13
   6  -6  -2 1104.38 275.353   8
   6   6  -2 497.790 248.476  11
   6   6  -2 1217.43 369.540   7
  -6  -6   2 625.518 205.441  10
   6  -6  -2 1191.49 375.730   9
   6  -6  -1 1755.84 332.426   8
   6   6  -1 2060.61 460.553  11
   6   6  -1 2746.81 448.376   7
   6   6  -1 3164.70 482.376  16
   6  -6  -1 2502.06 470.871   9
   6  -6  -1 3716.24 452.084  13
   6  -6   0 1989.07 391.757   8
   6   6   0 1615.48 413.471  11
   6   6   0 2584.74 416.461   7
   6   6   0 2709.23 473.272  16
   6  -6   0 2212.57 431.240   9
   6  -6   1 1875.94 369.036   8
   6   6   1 1549.60 400.915  11
   6   6   1 2064.33 397.433   7
   6   6   1 2461.68 458.923  16
   6  -6   1 1502.20 392.552   9
   6  -6   1 2981.73 444.357  13
   6  -6   2 2015.73 391.967   8
   6   6   2 2211.98 454.925  11
   6   6   2 2410.11 452.753   7
   6   6   2 2446.35 451.085  16
   6  -6   2 1985.49 402.325   9
   6  -6   2 3419.90 446.139  13
   6  -6   3 2209.69 391.562   8
   6   6   3 2288.03 450.002  11
   6   6   3 2501.15 399.855   7
   6   6   3 2798.00 461.384  16
   6  -6   3 2513.58 438.476   9
   6  -6   3 3045.47 417.786  13
   6  -6   4 130.015 195.635   8
   6   6   4-55.5910 216.707  11
   6   6   4 438.057 266.588   7
   6   6   4 613.765 321.669  16
   6  -6   4 355.313 242.702   9
   6  -6   5 2089.08 381.299   8
   6  -6   5 2034.91 342.625  13
   6   6   5 1812.96 427.988  11
   6   6   5 2120.55 369.928   7
   6   6   5 2735.79 446.290  16
   6  -6   5 1949.29 394.509   9
   6  -6   6-130.997 185.179   8
   6   6   6 456.960 283.902  11
   6   6   6 702.853 283.314   7
   6   6   6 889.531 332.192  16
   6  -6   6-83.6210 187.341   9
   6   6   7 10886.9 776.833   7
   6   6   7 10123.7 870.569  11
   6   6   7 11598.2 850.129  16
   6  -6   7 9851.30 776.317   9
   6  -6   7 9766.00 785.656   8
   6  -6   7 9876.54 698.428  13
   6  -6   8 150.196 215.046   8
   6   6   8-18.3937 190.955  11
   6   6   8 328.818 210.053   7
   6   6   8-57.0268 220.928  16
   6  -6   8 365.049 217.374   9
   6  -6   9 426.107 289.805   8
   6  -6   9 65.5407 133.990  13
   6   6   9-128.227 161.220  11
   6   6   9 152.174 184.373   7
   6   6   9 263.728 236.451  16
   6  -6   9 51.6833 187.324   9
   6  -6  10 490.090 252.333   8
   6  -6  10-77.8258 133.505  13
   6   6  10 210.357 204.134  11
   6   6  10-14.0793 146.731   7
   6   6  10 315.962 209.845  16
   6  -6  11 31.1730 186.071   8
   6  -6  11-124.909 122.196  13
   6   6  11-364.912 222.890  11
   6   6  11 179.212 138.690   7
   6   6  11 333.683 176.273  16
   6  -6  12 1435.94 323.054   8
   6  -6  12 1385.38 254.110  13
   6  -6  12 1313.67 257.504  12
   6   6  12 1521.51 303.226  11
   6   6  12 1569.26 307.849   7
   6   6  12 1470.09 319.591  16
   6  -6  13 1518.25 330.260   8
   6  -6  13 1203.68 227.766  13
   6  -6  13 1652.61 263.673  12
   6   6  13 1630.67 339.115  11
   6   6  13 1213.75 234.568   7
   6   6  13 1026.56 292.690  16
   6  -6  14 1329.77 334.093   8
   6  -6  14 672.221 179.689  13
   6  -6  14 1042.59 227.435  12
   6   6  14 1195.11 264.797  11
   6   6  14 1625.59 292.367   7
   6   6  14 753.215 258.602  16
   6  -6  15 718.212 238.005   8
   6  -6  15 551.113 168.192  13
   6  -6  15 717.276 166.864  12
   6   6  15 724.875 190.167   7
   6   6  15 710.476 251.669  16
   6  -6  16 6512.21 471.594  12
   6   6  16 7430.17 538.883   7
   6   6  16 7592.58 657.650  16
   6  -6  16 7957.86 623.178   8
   6  -6  17 115.918 145.768  12
   6   6  17-15.9941 141.361   7
   6   6  17-184.288 178.121  16
   6  -6  18 1075.83 260.974   8
   6  -6  18 877.305 189.371  12
   6   6  18 736.641 190.501   7
   6  -6  19 2034.83 247.794  12
   6   6  19 2719.57 301.861   7
   6   6  19 1959.31 316.549  16
   6  -6  19 2855.26 364.507   8
   6  -6  20-91.2574 103.641  12
   6   6  20 10.2362 133.154  16
   6  -6  20-110.157 128.449   8
   6  -6  21 1615.15 249.658   8
   6  -6  22 576.024 170.707   8
   6   7 -18 261.941 129.027   7
  -6  -7  18 56.3397 120.724  10
   6   7 -17 11821.3 624.203   7
  -6  -7  17 12388.0 630.978  10
   6   7 -16 2933.57 318.373   7
  -6  -7  16 2877.20 323.034  10
   6  -7 -16 2393.62 297.612   9
   6   7 -15 3633.48 380.014   7
  -6  -7  15 3478.80 360.975  10
   6  -7 -15 3032.58 348.824   9
   6   7 -14 229.016 140.690  11
   6   7 -14-16.1927 148.144   7
  -6  -7  14 35.2623 168.408  10
   6  -7 -14-105.031 130.948  15
   6  -7 -14 214.125 162.374   9
   6   7 -13 124.210 107.626  11
  -6  -7  13 295.262 148.476  10
   6  -7 -13 450.242 195.569   9
   6   7 -12 4801.67 444.162   7
   6   7 -12 3736.64 412.673  11
  -6  -7  12 4485.67 420.836  10
   6  -7 -12 4638.99 475.440   9
   6  -7 -12 4701.30 445.470  13
   6   7 -11-82.4595 152.863  11
   6   7 -11 241.756 184.801   7
  -6  -7  11 44.6988 122.718  10
   6  -7 -11-11.9583 151.774   9
   6  -7 -10 2091.76 302.924  13
   6   7 -10 1284.97 287.762  11
   6   7 -10 1235.76 221.662   7
  -6  -7  10 1258.62 261.697  10
   6  -7 -10 1729.77 326.780   9
   6   7  -9 3006.75 398.001  11
   6   7  -9 2856.31 351.012   7
  -6  -7   9 2746.99 357.512  10
   6  -7  -9 2952.48 428.040   9
   6   7  -8 5497.78 487.672   7
   6   7  -8 5410.28 543.898  11
  -6  -7   8 5562.43 477.867  10
   6  -7  -8 5249.54 520.735   9
   6   7  -7 9356.90 652.364   7
   6   7  -7 8400.76 683.571  11
  -6  -7   7 8093.28 585.930  10
   6  -7  -7 9347.87 698.010   9
   6   7  -6 15656.6 825.974   7
   6   7  -6 14035.7 877.910  11
  -6  -7   6 13625.2 744.243  10
   6  -7  -6 15700.7 902.978   9
   6   7  -5 14232.2 798.582   7
   6   7  -5 12118.2 820.396  11
  -6  -7   5 12015.4 677.254  10
   6   7  -5 15343.7 786.270  16
   6  -7  -5 14893.6 884.199   9
   6   7  -4 2734.88 429.636   7
   6  -7  -4 2066.95 383.309   9
   6   7  -3 11967.8 712.565   7
   6   7  -3 11639.0 803.498  11
   6   7  -3 11058.9 669.226  16
   6  -7  -3 12171.8 802.644   9
   6  -7  -3 12714.4 695.068  13
   6   7  -2 2644.13 382.348   7
   6   7  -2 1701.47 362.644  11
   6  -7  -2 2527.77 399.702   9
   6   7  -1 5551.41 481.997   7
   6   7  -1 4309.99 497.793  11
   6   7  -1 4757.09 467.182  16
   6  -7  -1 4748.58 503.580   9
   6   7   0 303.847 228.120  11
   6   7   0 619.296 227.928   7
   6  -7   0 1038.68 275.275   9
   6   7   1 1830.64 362.392  11
   6   7   1 2154.90 310.069   7
   6   7   1 1809.54 291.423  16
   6  -7   1 1521.14 308.026   9
   6  -7   1 2329.34 304.062  13
   6  -7   2 1592.72 261.064  13
   6   7   2 297.782 181.377  11
   6   7   2 449.144 187.223   7
   6   7   2 1249.02 278.177  16
   6  -7   2 473.676 211.932   9
   6  -7   2 33.6369 112.386   8
   6  -7   3 1476.49 249.373  13
   6   7   3 1197.44 278.851  11
   6   7   3 884.329 195.536   7
   6   7   3 1831.68 291.643  16
   6  -7   3 926.778 249.649   9
   6  -7   3 531.415 151.606   8
   6  -7   4 1409.13 232.682  13
   6   7   4 878.107 267.933  11
   6   7   4 1326.02 230.445   7
   6   7   4 1420.61 267.903  16
   6  -7   4 877.382 209.243   9
   6  -7   4 1056.82 237.129   8
   6  -7   5 772.799 178.842  13
   6   7   5 451.781 190.263  11
   6   7   5 510.499 173.531   7
   6   7   5 678.609 238.713  16
   6  -7   5 418.799 160.923   9
   6  -7   5 300.526 148.169   8
   6  -7   6 1593.82 253.618  13
   6   7   6 1198.90 265.060  11
   6   7   6 1680.93 263.317   7
   6   7   6 1940.37 303.122  16
   6  -7   6 1292.77 245.253   9
   6  -7   6 860.324 193.214   8
   6   7   7 3229.79 329.239   7
   6   7   7 3095.29 361.641  11
   6   7   7 3159.93 368.334  16
   6  -7   7 2721.80 326.061   9
   6  -7   7 2650.40 298.406  13
   6  -7   7 2572.19 297.679   8
   6  -7   8 1212.16 234.965  13
   6   7   8 322.157 182.417  11
   6   7   8 191.619 142.809   7
   6   7   8 909.686 266.610  16
   6  -7   8 327.743 138.110   8
   6   7   9 13820.7 720.503  11
   6   7   9 15394.1 767.212  16
   6  -7   9 13724.4 691.779   8
   6   7  10 5851.43 396.909   7
   6   7  10 4827.78 411.854  11
   6  -7  10 5100.57 426.215   8
   6  -7  11 1430.18 240.988   8
   6  -7  12 2181.48 280.271   8
   6  -7  13 11139.4 578.315   8
   7   0 -38 145.453 163.588  15
   7   0 -38-268.906 177.233  14
   7   0 -37 219.157 154.893  15
   7   0 -37 433.142 195.844  14
   7   0 -36-196.901 146.758  15
   7   0 -36 115.075 204.083  14
   7   0 -35 1801.60 351.787  15
   7   0 -35 2265.59 397.409  14
   7   0 -34-95.5603 208.796  15
   7   0 -34-185.921 216.531  14
   7   0 -33 11673.8 952.885  15
   7   0 -33 11357.8 892.195  14
   7   0 -32 122.607 208.886  15
   7   0 -32-152.002 181.045  14
   7   0 -31 802.238 346.091  15
   7   0 -30 99.2522 205.656  15
   7   0 -29 43.0566 283.362  15
   7   0 -28 50.7930 233.070  15
   7   0 -27 2292.31 507.154  15
   7   0 -26 153.299 356.394   9
   7   0 -26-0.25504 263.687  15
   7   0 -25 14570.5 985.648   9
   7   0 -25 15989.7 1293.09  15
   7   0 -24-185.758 199.038   9
   7   0 -24 0.26209 306.896  15
   7   0 -23 18452.0 1138.27   9
   7   0 -23 20626.9 1483.64  15
   7   0 -22 28.1868 264.432   9
   7   0 -22 302.097 364.636  15
   7   0 -21 68687.0 2263.19   9
   7   0 -21 78407.3 2869.47  15
   7   0 -20-200.968 259.580   9
   7   0 -20 60.7541 241.813  15
   7   0 -19 5324.90 636.550   9
   7   0 -19 5176.26 728.630  15
   7   0 -18-365.509 315.178   9
   7   0 -18-161.521 248.228  15
   7   0 -17 10132.5 849.166   9
   7   0 -17 9802.43 1020.86  15
   7   0 -17 9311.95 1691.51   5
   7   0 -16 31.2017 195.874   9
   7   0 -16-209.409 268.845  15
   7   0 -16-55.3061 398.821   5
   7   0 -15 11320.7 927.051   9
   7   0 -15 10646.5 1051.35  15
   7   0 -15 11488.3 1743.70   5
   7   0 -14 118.217 272.042   9
   7   0 -14 302.237 303.102  15
   7   0 -13 35739.4 1644.26   9
   7   0 -13 32705.8 1761.71  15
   7   0 -13 34600.4 3029.50   5
   7   0 -13 32740.8 1430.72   8
   7   0 -12-161.598 282.472  11
   7   0 -12-103.124 232.202   9
   7   0 -12-6.36787 239.227  15
   7   0 -12 61.6692 590.226   5
   7   0 -12-86.1669 174.573   8
   7   0 -11 16307.4 1116.72  11
   7   0 -11 16097.7 1092.56   9
   7   0 -11 15890.4 1211.76  15
   7   0 -11 14706.5 2026.72   5
   7   0 -11 14605.3 971.291   8
   7   0 -10-364.863 285.349  11
   7   0 -10 275.626 219.218   9
   7   0 -10 38.9463 235.120  15
   7   0 -10-731.598 630.163   5
   7   0 -10-78.7693 194.492   8
   7   0  -9 4609.47 631.825  11
   7   0  -9 5225.71 618.056   9
   7   0  -9 5327.07 681.437  15
   7   0  -9 5351.70 578.069   8
   7   0  -9 4550.33 1050.28   5
   7   0  -8 52.0386 185.582  11
   7   0  -8-46.7988 204.049   9
   7   0  -8 205.823 201.975  15
   7   0  -8-186.887 466.885   5
   7   0  -8 208.200 209.875   8
   7   0  -7 180.581 217.009  11
   7   0  -7 413.525 248.086   9
   7   0  -7 40.9476 218.142  15
   7   0  -7 413.437 367.504   5
   7   0  -7 553.860 187.437   8
   7   0  -6-96.2673 207.701  11
   7   0  -6 197.076 219.939   9
   7   0  -6 106.367 202.702  15
   7   0  -6 313.029 498.213   5
   7   0  -6 194.900 240.273   8
   7   0  -5 96.6358 206.113  11
   7   0  -5 76.0885 222.415   9
   7   0  -5 165.018 209.817  15
   7   0  -5 603.856 449.434   5
   7   0  -5 25.5779 153.821   8
   7   0  -4 192.656 246.565  11
   7   0  -4-13.2107 280.725   6
   7   0  -4-71.0999 163.760   9
   7   0  -4-255.383 607.850   5
   7   0  -4-4.85733 257.876   8
   7   0  -3 1275.57 336.658  11
   7   0  -3 643.954 370.909   6
   7   0  -3 1241.00 333.279   9
   7   0  -3 1687.06 715.529   5
   7   0  -3 951.079 258.638   8
   7   0  -2 562.055 383.086  12
   7   0  -2 265.526 232.160  11
   7   0  -2 1556.78 835.428   6
   7   0  -2 581.048 357.756   9
   7   0  -2 728.292 808.775   5
   7   0  -2-63.8441 229.322   8
   7   0  -1 10587.2 786.472  12
   7   0  -1 10800.2 924.186  11
   7   0  -1 11525.1 1451.78   6
   7   0  -1 10539.5 858.820   9
   7   0  -1 12043.6 891.058   8
   7   0   0 1220.29 429.492  12
   7   0   0 665.927 384.208  11
   7   0   0 662.830 408.091   9
   7   0   0 554.138 392.394   8
   7   0   1 18671.4 1045.79  12
   7   0   1 19761.9 1281.45  11
   7   0   1 21737.9 2020.75   6
   7   0   1 19725.6 1166.80   9
   7   0   1 20544.5 1190.59   8
   7   0   2 82.1170 308.243  11
   7   0   2 92.1124 264.261   9
   7   0   2 540.817 358.830   8
   7   0   3 15869.2 954.585  12
   7   0   3 17082.0 1215.61  11
   7   0   3 18191.3 1934.38   6
   7   0   3 16658.4 1037.49   9
   7   0   3 18712.7 1138.89   8
   7   0   4 758.792 498.306  12
   7   0   4 520.307 389.987  11
   7   0   4 230.356 391.539   9
   7   0   4 661.644 390.270   8
   7   0   5 42130.1 1562.45  12
   7   0   5 39896.0 1513.83   7
   7   0   5 42918.3 1939.74  11
   7   0   5 45982.1 3032.44   6
   7   0   5 41170.9 1630.91   9
   7   0   5 44068.1 1753.90   8
   7   0   6 234.008 350.123  12
   7   0   6 127.731 198.050  11
   7   0   6 32.3555 158.419   7
   7   0   6 912.478 831.927   6
   7   0   6 201.236 242.817   8
   7   0   7 7338.58 656.853  12
   7   0   7 7260.14 671.899   7
   7   0   7 7759.96 832.013  11
   7   0   7 7834.76 1282.55   6
   7   0   7 7726.52 741.404   8
   7   0   8 100.450 158.054  12
   7   0   8 314.914 279.440  11
   7   0   8-314.696 222.438   7
   7   0   8 162.826 297.612   6
   7   0   8 149.152 244.372   8
   7   0   9 558.378 237.208  12
   7   0   9 591.779 314.258  11
   7   0   9 95.8032 193.504   7
   7   0   9 1031.52 555.040   6
   7   0   9 423.092 171.110   8
   7   0  10 286.589 207.821  12
   7   0  10 90.6967 268.190  11
   7   0  10 196.632 200.125   7
   7   0  10-64.8834 393.632   6
   7   0  10-143.704 199.887   8
   7   0  11 24705.7 1211.33  12
   7   0  11 23563.7 1290.06   7
   7   0  11 25561.5 1493.51  11
   7   0  11 26268.7 2442.82   6
   7   0  11 24345.7 1333.40   8
   7   0  12 70.5999 186.803  12
   7   0  12-250.051 221.785  11
   7   0  12-71.9620 241.034   7
   7   0  12-119.505 497.855   6
   7   0  12 104.744 193.788   8
   7   0  13 3184.02 474.867  12
   7   0  13 2899.61 542.336  11
   7   0  13 2824.99 475.946   7
   7   0  13 3134.83 471.778   8
   7   0  14 232.514 205.412  12
   7   0  14-199.747 213.315  11
   7   0  14-80.3870 171.410   7
   7   0  14 35.3540 168.024   8
   7   0  15 1854.45 366.167  12
   7   0  15 1832.67 430.917  11
   7   0  15 1527.46 388.353   7
   7   0  15 1636.36 359.656   8
   7   0  16 91.2115 143.670  12
   7   0  16 88.3868 206.114  11
   7   0  16 106.228 247.388   7
   7   0  16 4.23588 147.772   8
   7   0  17 261.366 242.023  12
   7   0  17 68.7011 251.087  11
   7   0  17 53.3233 186.075   7
   7   0  17 257.605 196.755   8
   7   0  18-171.341 169.126  11
   7   0  18-220.744 287.114   7
   7   0  18 317.207 170.518   8
   7   0  19 1366.55 378.526  11
   7   0  19 1087.14 344.271   7
   7   0  20-115.140 204.077   7
   7   0  21 15876.2 1101.63   7
   7   0  22 184.330 202.124   7
   7   0  23 3599.17 527.194   7
   7   0  24-164.332 210.043   7
   7   0  25 78.7684 195.620   7
   7   0  26 78.8319 187.857   7
   7   0  27 669.077 258.282   7
   7   0  28-150.775 178.225   7
   7   0  29 14705.6 910.853   7
   7   0  30-120.409 146.612   7
   7   0  31 5453.74 524.562   7
   7   0  32 524.462 209.879   7
   7   0  33 39341.7 1210.85   7
   7   0  34 282.301 157.906   7
   7   0  35 1975.35 257.113   7
   7  -1 -38 1160.04 224.283  15
   7   1 -38 854.152 248.970  14
   7   1 -37 2159.00 332.116  15
   7  -1 -37 2544.99 370.807  15
   7   1 -37 2239.88 367.146  14
   7   1 -36 2958.12 389.792  15
   7  -1 -36 3309.99 443.124  15
   7   1 -36 2831.80 433.340  14
   7   1 -35 2182.22 380.980  15
   7  -1 -35 2132.96 388.151  15
   7   1 -35 2674.65 445.730  14
   7   1 -34 263.568 157.965  15
   7  -1 -34 222.230 218.928  15
   7   1 -34 99.0538 187.957  14
   7   1 -33 6716.36 708.389  15
   7  -1 -33 7525.98 775.116  15
   7   1 -33 6829.32 731.197  14
   7   1 -32 4116.39 578.036  15
   7  -1 -32 4197.52 635.908  15
   7   1 -32 4678.38 629.223  14
   7   1 -31 6033.45 703.190  15
   7  -1 -31 6404.90 769.329  15
   7   1 -31 6053.93 703.997  14
   7   1 -30 4359.86 647.678  15
   7  -1 -30 3673.40 630.088  15
   7   1 -30 3490.72 545.605  14
   7   1 -29 1722.81 414.123  15
   7  -1 -29 2280.95 536.495  15
   7   1 -28 193.640 266.509  15
   7  -1 -28-273.884 286.967  15
   7   1 -27 16997.8 1309.07  15
   7  -1 -27 17999.5 1370.34  15
   7   1 -26 1956.53 495.712  15
   7  -1 -26 1735.02 479.078  15
   7  -1 -25 10210.5 819.376   9
   7   1 -25 12571.7 1153.51  15
   7  -1 -25 13270.8 1190.36  15
   7   1 -25 13335.4 1197.39   9
   7   1 -24 3041.04 951.046   9
   7  -1 -24 3221.90 473.875   9
   7   1 -24 3480.35 673.575  15
   7  -1 -24 3516.55 625.127  15
   7   1 -23 20722.5 1345.88   9
   7  -1 -23 20351.3 1200.01   9
   7   1 -23 23815.3 1577.83  15
   7  -1 -23 23788.5 1626.87  15
   7   1 -22 903.473 593.874   9
   7  -1 -22 1281.54 347.924   9
   7   1 -22 1264.62 471.498  15
   7  -1 -22 1200.82 467.971  15
   7   1 -21-532.926 588.774   9
   7  -1 -21-167.460 176.181   9
   7   1 -21-115.805 302.939  15
   7  -1 -21 161.669 237.063  15
   7   1 -20 8418.56 833.635   9
   7  -1 -20 7909.94 789.949   9
   7   1 -20 9428.77 990.250  15
   7  -1 -20 8967.23 998.152  15
   7   1 -19 229.553 318.841   9
   7   1 -19 665.472 383.938  15
   7  -1 -19 253.108 211.696   9
   7  -1 -19 98.3910 287.490  15
   7   1 -18 15052.9 1037.59   9
   7  -1 -18 13706.1 1077.45   9
   7   1 -18 15451.7 1281.94  15
   7  -1 -18 16547.2 1328.07  15
   7   1 -17 102.391 249.606   9
   7   1 -17 456.601 330.255  15
   7  -1 -17 62.5121 237.808   9
   7  -1 -17 561.716 404.881  15
   7  -1 -17 185.099 458.497   5
   7   1 -16 12582.0 941.571   9
   7  -1 -16 13304.0 996.860   9
   7   1 -16 11070.0 1071.96  15
   7  -1 -16 11406.2 1119.56  15
   7   1 -16 9349.43 1636.81   5
   7  -1 -16 9314.09 1652.29   5
   7   1 -15 13939.8 1044.80   9
   7  -1 -15 13253.4 1045.28   9
   7   1 -15 12453.5 1134.09  15
   7  -1 -15 13286.3 1155.69  15
   7   1 -15 11658.1 1828.79   5
   7  -1 -15 11434.1 1802.27   5
   7   1 -14 35975.3 1637.06   9
   7  -1 -14 36088.7 1666.59   9
   7   1 -14 31767.3 1784.58  15
   7  -1 -14 31882.2 1795.10  15
   7   1 -14 33581.7 3045.79   5
   7  -1 -14 31542.4 2972.81   5
   7   1 -13 78.7901 157.644  11
   7   1 -13 491.431 290.129   9
   7   1 -13 552.704 335.781  15
   7  -1 -13-358.840 299.050   9
   7  -1 -13 366.682 322.059  15
   7   1 -13 203.437 479.006   5
   7  -1 -13-138.227 378.974   5
   7  -1 -13 39.5785 135.843   8
   7  -1 -12 12906.7 1022.76  11
   7   1 -12 13210.9 987.978  11
   7   1 -12 14148.6 1033.43   9
   7  -1 -12 13404.1 1039.20   9
   7   1 -12 12718.1 1145.62  15
   7  -1 -12 11784.3 1063.08  15
   7   1 -12 13249.9 1898.60   5
   7  -1 -12 12545.2 1803.88   5
   7  -1 -12 12567.1 861.643   8
   7  -1 -11 1335.19 339.978  11
   7   1 -11 1636.90 388.869  11
   7   1 -11 2040.76 439.761   9
   7   1 -11 1692.08 438.500  15
   7  -1 -11 1597.23 358.501   9
   7  -1 -11 1280.39 380.712  15
   7   1 -11 1832.84 773.955   5
   7  -1 -11 1926.99 784.255   5
   7  -1 -11 1733.49 343.465   8
   7  -1 -10 717.664 329.690  11
   7   1 -10 766.437 296.379  11
   7   1 -10 304.548 208.040   9
   7   1 -10 624.750 281.546  15
   7  -1 -10 691.442 276.181  15
   7  -1 -10 954.077 347.931   9
   7   1 -10 547.782 413.803   5
   7  -1 -10 360.941 540.565   5
   7  -1 -10 602.744 207.305   8
   7  -1  -9 1156.08 345.770  11
   7   1  -9 1522.93 369.821  11
   7   1  -9 852.495 217.616   9
   7   1  -9 984.270 345.095  15
   7  -1  -9 1057.17 332.158  15
   7  -1  -9 1020.95 276.108   9
   7   1  -9 1484.75 725.330   5
   7  -1  -9 1351.28 655.914   5
   7  -1  -9 1069.61 293.405   8
   7  -1  -8 1815.11 389.745  11
   7   1  -8 1527.04 388.950  11
   7   1  -8 1294.14 328.931   9
   7   1  -8 1460.89 349.443  15
   7  -1  -8 1173.52 353.660  15
   7  -1  -8 2077.70 452.925   9
   7   1  -8 1177.83 608.639   5
   7  -1  -8 1509.44 694.723   5
   7   1  -8 1881.74 358.664   8
   7  -1  -8 1493.26 324.229   8
   7  -1  -7 4174.80 605.602  11
   7   1  -7 4015.87 568.949  11
   7   1  -7 4716.91 598.851   9
   7   1  -7 3894.39 601.130  15
   7  -1  -7 3005.18 519.888  15
   7  -1  -7 4367.56 584.821   9
   7   1  -7 4350.65 551.964   8
   7   1  -7 5045.54 1209.20   5
   7  -1  -7 4128.77 1063.14   5
   7  -1  -7 3962.63 493.743   8
   7  -1  -6 2348.93 473.269  11
   7   1  -6 2447.47 440.888  11
   7   1  -6 2747.17 458.720   9
   7   1  -6 2268.56 479.440  15
   7  -1  -6 2239.41 471.882  15
   7  -1  -6 2271.70 448.897   9
   7   1  -6 2444.68 900.125   5
   7  -1  -6 2380.29 901.660   5
   7   1  -6 2310.11 428.129   8
   7  -1  -6 2073.59 397.919   8
   7  -1  -5 3170.34 485.846  12
   7  -1  -5 3985.81 622.445  11
   7   1  -5 3554.08 537.403  11
   7  -1  -5 3723.92 951.383   6
   7   1  -5 3305.30 495.347   9
   7   1  -5 2906.87 494.883  15
   7  -1  -5 3051.79 478.105   9
   7   1  -5 4080.50 1117.46   5
   7  -1  -5 3339.55 917.703   5
   7   1  -5 3324.02 496.260   8
   7  -1  -5 3364.43 482.470   8
   7  -1  -4 146.318 182.191  12
   7  -1  -4 47.6729 205.327  11
   7   1  -4 283.337 250.825  11
   7  -1  -4 191.767 375.386   6
   7   1  -4 202.139 177.832   9
   7   1  -4 61.2327 227.936  15
   7  -1  -4 696.710 327.907   9
   7   1  -4 384.933 500.877   5
   7  -1  -4 709.264 567.774   5
   7   1  -4 272.638 190.968   8
   7  -1  -4 150.089 226.274   8
   7  -1  -3 1985.85 354.412  12
   7  -1  -3 2387.58 453.869  11
   7   1  -3 2756.53 473.879  11
   7  -1  -3 2064.01 606.635   6
   7   1  -3 3140.96 492.017   9
   7   1  -3 2111.98 415.928  15
   7  -1  -3 2537.30 489.874   9
   7  -1  -3 3348.02 1004.41   5
   7   1  -3 2393.99 381.555   8
   7  -1  -3 2915.49 456.373   8
   7  -1  -2 216.136 243.673  12
   7  -1  -2-219.994 284.662  11
   7   1  -2 279.262 222.896  11
   7  -1  -2 139.035 531.280   6
   7   1  -2 187.115 287.594   9
   7  -1  -2-97.4416 223.365   9
   7  -1  -2 364.338 483.951   5
   7   1  -2 175.280 159.637   8
   7  -1  -2 137.998 173.477   8
   7  -1  -1 2647.24 448.348  12
   7  -1  -1 2696.23 532.555  11
   7   1  -1 2313.71 470.085  11
   7  -1  -1 2707.70 902.770   6
   7   1  -1 2172.94 423.123   9
   7  -1  -1 1986.92 432.924   9
   7  -1  -1 2816.60 846.863   5
   7   1  -1 2491.20 437.650   8
   7  -1  -1 2462.09 445.982   8
   7  -1   0 6437.86 675.451  12
   7   1   0 6420.16 593.726   7
   7  -1   0 6321.01 774.729  11
   7   1   0 7066.46 790.955  11
   7  -1   0 6274.36 1277.18   6
   7   1   0 6491.26 677.640   9
   7  -1   0 6293.03 711.382   9
   7   1   0 7159.97 717.999   8
   7  -1   0 7063.89 729.278   8
   7  -1   1 6181.69 663.332  12
   7   1   1 6123.05 592.714   7
   7  -1   1 6141.81 766.435  11
   7   1   1 6115.80 707.851  11
   7  -1   1 6655.73 1332.10   6
   7   1   1 5601.72 603.518   9
   7  -1   1 5607.47 637.118   9
   7   1   1 6789.34 688.312   8
   7  -1   1 6761.23 685.168   8
   7  -1   2 1092.46 346.756  12
   7  -1   2 768.301 373.198  11
   7   1   2 970.162 406.123  11
   7   1   2 857.502 253.669   7
   7  -1   2 1237.54 868.240   6
   7   1   2 728.523 244.147   9
   7  -1   2 792.951 341.455   9
   7   1   2 940.851 305.363   8
   7  -1   2 820.358 327.365   8
   7  -1   3 3261.86 475.636  12
   7   1   3 3213.63 443.224   7
   7  -1   3 3104.93 573.490  11
   7   1   3 3237.15 513.749  11
   7  -1   3 4136.26 1032.62   6
   7   1   3 3319.27 485.685   9
   7  -1   3 2916.96 469.739   9
   7  -1   3 4097.94 555.225   8
   7   1   3 3727.98 499.797   8
   7  -1   4 2900.37 613.068  12
   7  -1   4 2108.57 457.825  11
   7   1   4 2247.04 525.703  11
   7   1   4 2609.94 466.995   7
   7  -1   4 3636.07 1169.91   6
   7   1   4 2688.16 506.088   9
   7  -1   4 2198.06 468.519   9
   7   1   4 2774.38 526.269   8
   7  -1   4 2973.71 554.141   8
   7  -1   5 28172.3 1354.39  12
   7   1   5 27015.4 1275.14   7
   7  -1   5 27713.2 1603.66  11
   7   1   5 28033.9 1569.45  11
   7  -1   5 30470.5 2664.65   6
   7   1   5 27759.9 1320.44   9
   7  -1   5 26432.7 1349.37   9
   7   1   5 28014.2 1399.30   8
   7  -1   5 29696.5 1474.56   8
   7  -1   6 3237.20 534.770  12
   7  -1   6 2946.82 553.783  11
   7   1   6 2545.87 485.607  11
   7   1   6 2692.41 426.676   7
   7  -1   6 3143.12 1034.82   6
   7  -1   6 2611.89 361.058   9
   7   1   6 2690.95 436.573   8
   7  -1   6 2814.27 479.226   8
   7  -1   7 6440.62 671.322  12
   7   1   7 6251.56 665.643   7
   7  -1   7 5972.20 773.976  11
   7   1   7 5960.72 729.920  11
   7  -1   7 6947.92 1327.86   6
   7   1   7 5809.45 620.729   8
   7  -1   7 5316.55 652.965   8
   7  -1   8 7166.78 725.312  12
   7   1   8 6383.99 655.821   7
   7  -1   8 6004.42 796.767  11
   7   1   8 6202.96 746.480  11
   7  -1   8 7280.56 1372.59   6
   7   1   8 6443.06 658.082   8
   7  -1   8 6641.83 718.426   8
   7  -1   9 10989.4 860.092  12
   7  -1   9 10535.4 796.554   7
   7   1   9 10988.3 843.036   7
   7  -1   9 10543.3 1002.80  11
   7   1   9 10660.8 971.092  11
   7  -1   9 10192.1 1639.37   6
   7   1   9 10439.9 842.951   8
   7  -1   9 9962.25 887.008   8
   7  -1  10 15191.7 1008.83  12
   7  -1  10 14025.1 942.260   7
   7   1  10 14760.4 1003.93   7
   7  -1  10 14201.6 1167.23  11
   7   1  10 15568.3 1153.24  11
   7  -1  10 15905.7 1998.11   6
   7   1  10 14321.7 987.838   8
   7  -1  10 15347.1 1075.11   8
   7  -1  11 14038.4 1000.09  12
   7  -1  11 12609.2 909.828   7
   7   1  11 14633.1 1014.66   7
   7  -1  11 13003.3 1102.99  11
   7   1  11 13689.3 1090.75  11
   7  -1  11 13952.4 1911.76   6
   7   1  11 13428.2 968.686   8
   7  -1  11 13148.3 996.694   8
   7  -1  12 55238.1 1940.66  12
   7  -1  12 51625.9 1862.55   7
   7   1  12 54323.3 1970.06   7
   7  -1  12 53150.7 2235.85  11
   7   1  12 54840.3 2166.33  11
   7   1  12 54734.4 1940.09   8
   7  -1  12 54599.2 2012.91   8
   7  -1  13 808.544 387.387  12
   7  -1  13 338.118 233.344  11
   7   1  13 220.373 238.749  11
   7  -1  13 114.045 163.693   7
   7   1  13 381.329 235.130   7
   7   1  13 577.067 260.337   8
   7  -1  13 424.989 269.082   8
   7  -1  14 32060.5 1472.89  12
   7  -1  14 29199.9 1419.79   7
   7   1  14 28358.3 1447.97   7
   7  -1  14 31763.9 1706.74  11
   7   1  14 31277.2 1610.98  11
   7   1  14 31256.5 1432.51   8
   7  -1  14 30002.7 1479.39   8
   7  -1  15 1831.22 380.840  12
   7  -1  15 1388.03 391.244  11
   7   1  15 1616.55 371.952  11
   7  -1  15 1311.56 312.258   7
   7   1  15 1821.27 375.241   7
   7   1  15 1611.18 367.617   8
   7  -1  15 1533.72 362.911   8
   7  -1  16 13344.9 953.160  12
   7  -1  16 12053.0 935.618   7
   7   1  16 12580.3 963.896   7
   7  -1  16 12272.6 1066.93  11
   7   1  16 12189.5 1016.91  11
   7   1  16 13095.5 885.578   8
   7  -1  16 12567.0 942.436   8
   7  -1  17 372.549 224.923  12
   7  -1  17-86.5944 200.648  11
   7   1  17 94.9758 177.268  11
   7  -1  17 282.578 181.053   7
   7   1  17 35.0978 207.149   7
   7  -1  17-87.3261 265.436   8
   7  -1  18 16339.0 1024.05  12
   7  -1  18 15520.1 1072.07   7
   7   1  18 13950.4 1027.35   7
   7  -1  18 16146.7 1178.77  11
   7   1  18 16120.0 1120.12  11
   7  -1  18 17078.5 1083.41   8
   7  -1  19 72.5384 205.326  12
   7  -1  19-50.6905 168.958  11
   7  -1  19-115.020 193.168   7
   7   1  19 40.7995 210.129   7
   7  -1  19 162.153 154.139   8
   7  -1  20 2878.75 462.561  12
   7  -1  20 2438.28 437.767   7
   7   1  20 1835.91 414.272   7
   7  -1  20 2301.10 417.302   8
   7  -1  21 791.394 265.201  12
   7  -1  21 620.685 253.027   7
   7   1  21 370.385 287.892   7
   7  -1  21 144.948 176.620   8
   7  -1  22 1009.59 269.481  12
   7  -1  22 1103.95 278.385   7
   7   1  22 1094.80 307.606   7
   7  -1  23 11542.8 819.357  12
   7  -1  23 13230.2 977.902   7
   7   1  23 14000.1 999.065   7
   7  -1  24 1540.66 329.934  12
   7  -1  24 1897.66 400.672   7
   7   1  24 1907.58 461.067   7
   7  -1  25 1129.55 278.375  12
   7  -1  25 563.711 247.580   7
   7   1  25 1237.25 303.623   7
   7  -1  26 595.803 210.205  12
   7  -1  26-41.9281 186.439   7
   7   1  26 320.426 239.479   7
   7  -1  27 4229.65 458.215  12
   7  -1  27 4684.98 521.541   7
   7   1  27 4822.00 573.437   7
   7  -1  28 668.399 207.278  12
   7  -1  28 1080.76 290.135   7
   7   1  28 740.634 279.936   7
   7  -1  29 326.264 216.790   7
   7   1  29 19.6773 171.201   7
   7  -1  30 512.942 217.650   7
   7   1  30 349.234 164.578   7
   7  -1  31 786.859 264.097   7
   7   1  31 590.074 218.367   7
   7  -1  32 1290.91 254.627   7
   7   1  32 1172.72 261.085   7
   7  -1  33 1133.17 233.897   7
   7   1  33 735.175 188.747   7
   7  -1  34 667.468 175.664   7
   7   1  34 580.973 168.289   7
   7  -2 -38 2837.18 332.228  15
   7  -2 -37 2796.70 356.325  15
   7   2 -37 3036.56 450.500  14
   7   2 -36 2660.00 344.848  15
   7  -2 -36 2741.34 404.169  15
   7   2 -36 2425.04 430.242  14
   7   2 -35 63.9218 144.366  15
   7  -2 -35 35.2697 201.497  15
   7   2 -35 230.747 229.014  14
   7   2 -34 26996.8 1226.18  15
   7  -2 -34 28403.2 1360.06  15
   7   2 -34 25665.8 1394.44  14
   7   2 -33 42.9236 170.286  15
   7  -2 -33 239.972 253.238  15
   7   2 -33-130.045 229.778  14
   7   2 -32 8423.92 762.130  15
   7  -2 -32 8486.31 839.802  15
   7   2 -32 7741.74 808.221  14
   7   2 -31 193.863 179.645  15
   7  -2 -31 297.691 271.775  15
   7   2 -31-75.2322 328.047  14
   7   2 -30 5426.12 687.983  15
   7  -2 -30 5847.13 731.242  15
   7   2 -30 5089.79 687.662  14
   7   2 -29 2954.54 502.764  15
   7  -2 -29 2754.92 549.034  15
   7   2 -29 2390.57 485.107  14
   7   2 -28 9746.24 926.577  15
   7  -2 -28 10101.6 1012.21  15
   7   2 -27 258.583 270.681  15
   7  -2 -27-234.674 295.135  15
   7   2 -26 696.487 345.390  15
   7  -2 -26 878.679 447.723  15
   7   2 -25-100.433 262.733  15
   7  -2 -25 284.434 206.176   9
   7  -2 -25 293.933 268.806  15
   7   2 -24 202.923 242.074  15
   7  -2 -24-40.0876 258.009   9
   7  -2 -24 130.193 255.637  15
   7   2 -23 1168.78 393.095  15
   7  -2 -23 1256.57 294.939   9
   7  -2 -23 1504.57 484.067  15
   7  -2 -22 8034.41 781.489   9
   7   2 -22 8875.87 952.685  15
   7  -2 -22 8487.17 974.239  15
   7   2 -21 96.9145 292.351  15
   7  -2 -21 301.175 216.579   9
   7  -2 -21-104.755 257.611  15
   7   2 -20 87.5570 247.806  15
   7  -2 -20 307.118 213.413   9
   7  -2 -20 85.8134 271.832  15
   7  -2 -19 5024.38 678.120   9
   7   2 -19 5803.34 795.476  15
   7  -2 -19 5638.37 830.928  15
   7   2 -18 2799.07 1086.83   9
   7   2 -18 2195.59 531.957  15
   7  -2 -18 2287.08 427.479   9
   7  -2 -18 2542.31 579.125  15
   7   2 -17 572.057 1049.92   9
   7   2 -17 110.168 231.003  15
   7  -2 -17 388.713 265.638   9
   7  -2 -17 321.463 235.854  15
   7  -2 -16 2157.87 438.496   9
   7  -2 -16 2301.57 558.654  15
   7   2 -15 1274.26 435.831  15
   7  -2 -15 808.347 333.856  15
   7  -2 -15 1200.11 327.150   9
   7   2 -14 5505.90 645.569  11
   7  -2 -14 5210.65 693.315   9
   7   2 -14 2789.35 997.338   9
   7   2 -14 4632.17 671.264  15
   7  -2 -14 4674.69 722.998  15
   7  -2 -14 4230.78 1065.68   5
   7   2 -13-0.59097 220.987  11
   7   2 -13 354.414 343.330  15
   7  -2 -13 271.371 335.592  15
   7  -2 -13 233.606 252.700   9
   7   2 -13 17.3547 473.793   5
   7  -2 -13 829.453 748.894   5
   7  -2 -12 16227.1 1157.42  11
   7   2 -12 17082.3 1163.58  11
   7  -2 -12 18677.7 1211.64   9
   7   2 -12 17768.4 1315.53  15
   7  -2 -12 15048.9 1214.31  15
   7   2 -12 18069.7 2214.66   5
   7  -2 -12 15142.8 1948.51   5
   7  -2 -11 21406.3 1355.33  11
   7   2 -11 22313.6 1334.35  11
   7   2 -11 26830.5 1592.12   9
   7  -2 -11 22938.8 1346.38   9
   7   2 -11 21328.5 1435.66  15
   7  -2 -11 19914.4 1389.10  15
   7   2 -11 24620.9 2697.41   5
   7  -2 -11 19363.9 2181.86   5
   7  -2 -10 381.289 248.350  11
   7   2 -10 582.697 289.929  11
   7   2 -10 776.113 328.728  15
   7  -2 -10 283.401 226.272  15
   7  -2 -10 594.734 353.784   9
   7   2 -10 1048.14 785.397   5
   7  -2 -10-202.548 440.458   5
   7  -2 -10 198.546 185.918   8
   7  -2  -9 410.114 293.648  11
   7   2  -9 714.888 329.978  11
   7   2  -9-685.807 771.853   9
   7   2  -9 932.857 379.700  15
   7  -2  -9 456.406 317.454  15
   7  -2  -9 809.099 344.394   9
   7   2  -9 246.712 465.992   5
   7  -2  -9-312.053 518.752   5
   7  -2  -9 724.184 202.632   8
   7  -2  -8 5181.34 694.918  11
   7   2  -8 4986.91 656.585  11
   7  -2  -8 6323.79 727.839   9
   7   2  -8 5376.71 707.060  15
   7  -2  -8 4858.41 668.410  15
   7   2  -8 5119.38 878.841   9
   7  -2  -8 5100.57 584.727   8
   7  -2  -8 4909.29 1109.74   5
   7   2  -7 3380.98 470.074   7
   7  -2  -7 1835.02 471.890  11
   7   2  -7 3800.18 594.316  11
   7   2  -7 4070.92 861.224   9
   7   2  -7 2925.74 603.197  15
   7  -2  -7 2265.27 469.098  15
   7  -2  -7 3234.87 587.746   9
   7  -2  -7 2297.20 763.728   5
   7  -2  -7 2743.12 457.962   8
   7  -2  -6 11343.8 894.415  12
   7  -2  -6 11065.9 1030.23  11
   7   2  -6 11532.9 829.451   7
   7   2  -6 11935.8 1039.41  11
   7  -2  -6 12478.1 1029.02   9
   7   2  -6 11366.8 1003.02  15
   7   2  -6 11630.8 1144.28   9
   7  -2  -6 11243.1 887.791   8
   7  -2  -5 8218.17 889.128  12
   7  -2  -5 6254.91 829.685  11
   7   2  -5 11989.2 917.987   7
   7   2  -5 9225.97 956.138  11
   7  -2  -5 10951.4 2134.66   6
   7  -2  -5 9373.83 960.847   9
   7   2  -5 8065.84 937.848  15
   7   2  -5 9732.14 1076.87   9
   7  -2  -5 8173.13 783.925   8
   7  -2  -4 48648.3 1801.98  12
   7  -2  -4 49384.3 2130.55  11
   7   2  -4 49389.7 1705.82   7
   7   2  -4 47946.4 2036.23  11
   7  -2  -4 49847.9 3466.05   6
   7   2  -4 49411.6 1952.84   9
   7  -2  -4 49619.8 1978.55   9
   7   2  -4 50142.6 2067.58  15
   7  -2  -4 48996.2 1808.39   8
   7  -2  -3 18643.8 1356.28  12
   7  -2  -3 6512.19 894.489  11
   7   2  -3 18326.9 1172.99   7
   7   2  -3 11138.7 1093.77  11
   7   2  -3 12144.8 1478.29   9
   7  -2  -3 10965.5 1098.31   9
   7   2  -3 7648.25 982.558  15
   7  -2  -3 7987.06 917.287   8
   7  -2  -2 129453. 2904.62  12
   7  -2  -2 123860. 3392.67  11
   7   2  -2 126478. 2743.43   7
   7   2  -2 121004. 3262.07  11
   7  -2  -2 132076. 5585.27   6
   7   2  -2 125095. 2995.57   9
   7  -2  -2 121462. 3060.00   9
   7   2  -2 127613. 3188.09  15
   7  -2  -2 126008. 2943.77   8
   7  -2  -1 4913.32 915.834  11
   7   2  -1 5521.44 962.507  11
   7  -2  -1 8654.60 1118.69   9
   7   2  -1 4521.69 920.941  15
   7   2  -1 6116.35 1315.07   9
   7  -2  -1 6797.60 921.102   8
   7  -2   0 120513. 2822.40  12
   7  -2   0 111549. 3249.15  11
   7   2   0 106874. 2582.14   7
   7   2   0 113600. 3149.01  11
   7  -2   0 121066. 5386.12   6
   7   2   0 112491. 2856.04   9
   7  -2   0 105358. 2886.98   9
   7  -2   0 120149. 2903.80   8
   7  -2   1 19389.3 1350.42  12
   7  -2   1 9864.96 1032.17  11
   7   2   1 16449.7 1114.33   7
   7   2   1 11103.3 1124.29  11
   7  -2   1 11844.4 1083.19   9
   7   2   1 12455.8 1319.37   9
   7  -2   1 13410.7 1099.34   8
   7  -2   2 74688.7 2237.05  12
   7  -2   2 68306.2 2588.75  11
   7   2   2 68580.1 2067.62   7
   7   2   2 70868.5 2503.49  11
   7  -2   2 78193.6 4362.56   6
   7   2   2 68468.8 2231.32   9
   7  -2   2 64116.5 2229.84   9
   7  -2   2 71790.3 2293.83   8
   7  -2   3 13338.0 1034.67  12
   7   2   3 10338.2 857.363   7
   7  -2   3 10145.3 1026.36  11
   7   2   3 9725.72 975.248  11
   7  -2   3 9652.20 920.169   9
   7   2   3 9281.52 1119.49   9
   7  -2   3 11076.9 949.945   8
   7  -2   4 21747.5 1248.43  12
   7   2   4 18328.2 1082.45   7
   7  -2   4 18645.0 1397.37  11
   7   2   4 19981.1 1333.86  11
   7  -2   4 23130.4 2472.72   6
   7  -2   4 15945.8 1111.62   9
   7  -2   4 20083.8 1226.96   8
   7  -2   5 17824.8 1160.64  12
   7   2   5 16959.4 1053.66   7
   7  -2   5 17162.1 1331.82  11
   7   2   5 17166.0 1271.04  11
   7  -2   5 18677.9 2218.61   6
   7  -2   5 14767.9 1072.91   9
   7  -2   5 17778.2 1173.56   8
   7  -2   6 17981.3 1132.82  12
   7   2   6 17073.2 1064.12   7
   7  -2   6 16316.2 1303.15  11
   7   2   6 16600.0 1249.39  11
   7  -2   6 17703.8 2199.69   6
   7  -2   6 16106.1 1059.61   9
   7  -2   6 16644.2 1127.76   8
   7  -2   7 1900.05 428.976  12
   7  -2   7 1886.92 431.789  11
   7   2   7 2032.52 457.452  11
  -7   2  -7 1543.81 633.765  18
   7   2   7 1675.72 391.872   7
   7  -2   7 2325.80 830.131   6
   7  -2   7 1794.88 392.800   8
   7  -2   8 9127.88 806.710  12
   7   2   8 9201.21 800.481   7
   7  -2   8 8032.13 910.719  11
   7   2   8 8065.15 876.031  11
  -7   2  -8 6410.68 1693.04  18
   7  -2   8 8527.74 806.177   8
   7  -2   9 744.776 378.304  12
   7  -2   9 922.840 389.932  11
   7   2   9 797.273 270.918  11
   7   2   9 1016.56 343.161   7
   7  -2   9 1421.28 416.869   8
   7  -2  10 30832.2 1486.98  12
   7   2  10 29170.2 1422.31   7
   7  -2  10 28341.7 1695.10  11
   7   2  10 28775.5 1585.81  11
   7  -2  10 27515.0 1479.79   8
   7  -2  11 1994.39 409.172  12
   7  -2  11 1451.64 437.237  11
   7   2  11 1645.90 360.584  11
   7   2  11 1769.51 354.163   7
   7  -2  11 1533.63 393.002   8
   7  -2  12 10039.8 846.686  12
   7   2  12 8134.91 778.250   7
   7  -2  12 9309.08 980.306  11
   7   2  12 9421.31 913.114  11
   7  -2  12 9080.09 860.641   8
   7  -2  13 7033.32 747.803  12
   7  -2  13 6603.90 627.886   7
   7   2  13 6570.84 738.268   7
   7  -2  13 6187.03 789.008  11
   7   2  13 6442.38 747.408  11
   7  -2  13 6764.12 731.700   8
   7  -2  14 352.891 266.580  12
   7  -2  14 33.8947 216.466  11
   7  -2  14-28.6209 150.714   7
   7   2  14-70.7793 172.292  11
   7   2  14 284.271 223.751   7
   7  -2  14-304.742 301.551   8
   7  -2  15 14485.2 1028.35  12
   7  -2  15 14094.0 968.946   7
   7   2  15 15171.9 1058.28   7
   7  -2  15 14273.8 1159.51  11
   7   2  15 13601.8 1061.14  11
   7  -2  15 14198.4 1034.74   8
   7  -2  16 4263.06 551.640  12
   7  -2  16 3985.36 656.303  11
   7  -2  16 3340.90 489.405   7
   7   2  16 3793.84 548.978  11
   7   2  16 3808.93 554.040   7
   7  -2  16 3738.11 520.823   8
   7  -2  17 2460.96 446.863  12
   7  -2  17 2013.81 453.431  11
   7  -2  17 1807.73 323.862   7
   7   2  17 2412.25 451.784  11
   7   2  17 2805.80 507.424   7
   7  -2  17 2411.46 424.448   8
   7  -2  18 11627.1 902.021  12
   7  -2  18 11087.0 846.743   7
   7   2  18 11542.8 946.003   7
   7  -2  18 10915.8 966.255  11
   7   2  18 10898.5 882.218  11
   7  -2  18 11771.3 921.204   8
   7  -2  19 2360.44 436.189  12
   7  -2  19 1679.88 413.823  11
   7  -2  19 2677.80 453.312   7
   7   2  19 2844.55 470.385   7
   7  -2  19 2773.81 457.891   8
   7  -2  20 1237.51 324.242  12
   7  -2  20 1152.34 300.962   7
   7   2  20 1403.59 370.823   7
   7  -2  20 1084.95 303.409   8
   7  -2  21 1842.04 411.922  12
   7  -2  21 1335.23 353.596   7
   7   2  21 2225.62 432.951   7
   7  -2  21 1393.39 291.487   8
   7  -2  22 7487.72 702.204  12
   7  -2  22 8143.10 744.279   7
   7   2  22 8020.47 755.340   7
   7  -2  22 7535.66 681.396   8
   7  -2  23 345.687 208.845  12
   7  -2  23 631.706 236.218   7
   7   2  23 660.662 296.925   7
   7  -2  23 588.296 226.508   8
   7  -2  24 461.394 235.129  12
   7  -2  24 284.720 155.223   7
   7   2  24 902.441 303.045   7
   7  -2  25 2782.23 411.382  12
   7  -2  25 2850.78 422.420   7
   7   2  25 3382.69 495.631   7
   7  -2  26 5779.13 559.352  12
   7  -2  26 6544.94 612.931   7
   7   2  26 6339.39 650.295   7
   7  -2  27 4281.66 461.697  12
   7  -2  27 4595.64 510.074   7
   7   2  27 4809.32 536.322   7
   7  -2  28 20182.0 947.460  12
   7  -2  28 20175.5 999.522   7
   7   2  28 20806.3 1046.20   7
   7  -2  29 6091.79 489.393  12
   7  -2  29 6593.66 537.609   7
   7   2  29 7440.67 603.317   7
   7  -2  30 21762.4 879.765  12
   7  -2  30 24514.6 1015.77   7
   7   2  30 24337.6 1027.67   7
   7  -2  31 435.626 161.195  12
   7  -2  31 493.419 203.637   7
   7   2  31 356.585 173.670   7
   7  -2  32 20205.8 836.455   7
   7   2  32 21034.8 849.858   7
   7  -2  33 204.090 106.285   7
   7   2  33 154.922 123.338   7
   7  -3 -36 2227.08 318.101  15
   7  -3 -35 1753.29 311.340  15
   7   3 -34 5123.90 471.933  15
   7  -3 -34 5367.61 553.403  15
   7   3 -34 5091.36 633.775  14
   7   3 -33-87.2748 164.780  15
   7  -3 -33 371.552 198.015  15
   7   3 -33 334.886 299.071  14
   7   3 -32 8410.72 677.360  15
   7  -3 -32 9062.93 793.346  15
   7   3 -32 6468.78 744.515  14
   7   3 -31 9926.62 795.091  15
   7  -3 -31 10709.8 909.957  15
   7   3 -31 8979.84 918.340  14
   7   3 -30 5967.54 623.820  15
   7  -3 -30 7061.50 780.313  15
   7   3 -30 4829.51 735.499  14
   7   3 -29 12877.3 976.107  15
   7  -3 -29 13870.8 1106.54  15
   7   3 -29 11585.9 1087.07  14
   7   3 -28 8066.12 794.630  15
   7  -3 -28 9038.39 920.120  15
   7   3 -28 6922.05 867.682  14
   7   3 -27 4690.93 619.436  15
   7  -3 -27 5158.32 679.556  15
   7   3 -26 7298.45 790.984  15
   7  -3 -26 7528.29 935.931  15
   7  -3 -25 22597.2 1126.58   9
   7   3 -25 21874.7 1402.37  15
   7  -3 -25 23114.1 1524.59  15
   7   3 -24 2662.74 471.824  15
   7  -3 -24 2842.37 418.838   9
   7  -3 -24 2956.00 566.768  15
   7   3 -23-65.7981 285.153  15
   7  -3 -23 233.866 236.949   9
   7  -3 -23-88.3358 359.719  15
   7  -3 -22 10343.1 864.402   9
   7   3 -22 12334.4 1103.65  15
   7  -3 -22 13440.1 1203.23  15
   7  -3 -21 191.023 219.439   9
   7  -3 -21 208.952 264.592  15
   7  -3 -20 5640.41 670.011   9
   7   3 -20 6805.91 832.055  15
   7  -3 -20 6482.44 853.085  15
   7  -3 -19 5959.88 725.940   9
   7   3 -19 6445.09 860.961  15
   7  -3 -19 5505.80 777.433  15
   7  -3 -18 20438.8 1281.49   9
   7   3 -18 22126.5 1473.27  15
   7  -3 -18 24279.2 1609.52  15
   7   3 -17 1798.25 513.988  15
   7  -3 -17 1222.50 423.203  15
   7  -3 -17 1508.76 414.997   9
   7  -3 -16 49825.1 1988.02   9
   7   3 -16 46161.2 2167.36  15
   7  -3 -16 48574.9 2268.29  15
   7   3 -15 3129.02 513.695  11
   7   3 -15 2851.90 580.884  15
   7  -3 -15 3300.96 606.032  15
   7  -3 -15 3566.81 576.306   9
   7   3 -14 1224.39 336.973  11
   7   3 -14 1029.45 388.368  15
   7  -3 -14 811.750 283.314  15
   7  -3 -14 1499.38 359.661   9
   7   3 -13 806.847 290.047  11
   7   3 -13 866.703 357.678  15
   7  -3 -13 894.648 323.367  15
   7  -3 -13 1445.11 403.279   9
   7   3 -12 1694.90 404.590  11
   7   3 -12 2675.52 606.502  15
   7  -3 -12 2384.80 508.410  15
   7  -3 -12 2048.89 560.280   9
   7   3 -11 31420.5 1620.26  11
   7  -3 -11 33833.2 1721.48   9
   7   3 -11 30826.7 1753.35  15
   7  -3 -11 27739.3 1673.02  15
   7  -3 -10 197.380 233.703  11
   7   3 -10 2237.64 507.857  11
   7   3 -10 1642.47 618.757  15
   7  -3 -10 971.518 422.683  15
   7  -3 -10 2135.14 615.951   9
   7  -3  -9 39358.7 1970.01  11
   7   3  -9 43051.2 1931.33  11
   7  -3  -9 46490.6 1972.10   9
   7   3  -9 41056.4 1981.29  15
   7  -3  -9 36113.0 1858.03  15
   7  -3  -9 39813.1 1576.06   8
   7  -3  -8 7596.65 944.679  11
   7   3  -8 7903.71 855.641  11
   7  -3  -8 9393.60 971.557   9
   7   3  -8 8573.43 948.751  15
   7  -3  -8 7381.85 860.115  15
   7  -3  -8 6861.99 678.477   8
   7  -3  -7 5918.09 795.177  11
   7   3  -7 7195.47 693.963   7
   7   3  -7 7644.97 828.962  11
   7  -3  -7 7773.42 837.179   9
   7   3  -7 7302.07 838.250  15
   7  -3  -7 6657.52 677.740   8
   7  -3  -6 917.628 486.082  12
   7  -3  -6 519.620 358.904  11
   7   3  -6 855.091 399.579  11
   7   3  -6 1461.89 399.855   7
   7   3  -6 911.376 511.236  15
   7  -3  -6 1010.09 477.338   9
   7  -3  -6 337.077 297.729   8
   7  -3  -5 17858.5 1134.47  12
   7  -3  -5 19138.4 1396.46  11
   7   3  -5 19129.5 1131.02   7
   7   3  -5 18097.6 1267.43  11
   7  -3  -5 19973.2 1290.84   9
   7   3  -5 18925.2 1316.68  15
   7  -3  -5 17649.8 1090.41   8
   7  -3  -4 847.298 462.642  12
   7  -3  -4 458.161 403.199  11
   7   3  -4 421.337 296.264  11
   7   3  -4 674.698 328.724   7
   7   3  -4 92.8706 254.405  15
   7  -3  -4 1199.34 437.680   9
   7  -3  -4 182.163 278.393   8
   7  -3  -3 7606.41 751.276  12
   7  -3  -3 6944.77 885.427  11
   7   3  -3 8385.46 797.101   7
   7   3  -3 8167.76 876.809  11
   7  -3  -3 7635.30 833.384   9
   7   3  -3 7741.54 901.399  15
   7  -3  -3 6827.48 723.082   8
   7  -3  -2 13567.3 998.464  12
   7  -3  -2 13060.8 1188.99  11
   7   3  -2 16549.9 1045.11   7
   7   3  -2 13099.2 1110.04  11
   7  -3  -2 14024.2 1063.82   9
   7   3  -2 12281.3 1039.26  15
   7  -3  -2 14242.1 1024.70   8
   7  -3  -1 1808.77 517.680  12
   7  -3  -1 1198.26 456.011  11
   7   3  -1 1083.48 391.330  11
   7   3  -1 1742.47 425.349   7
   7   3  -1 1644.88 408.463  15
   7  -3  -1 1580.10 414.248   9
   7  -3  -1 1542.38 439.038   8
   7  -3   0 3939.69 553.264  12
   7  -3   0 3352.44 654.192  11
   7   3   0 4052.99 644.486  11
   7   3   0 3880.51 526.262   7
   7   3   0 3885.89 593.740  15
   7  -3   0 3881.77 622.356   9
   7  -3   0 3604.56 533.429   8
   7  -3   1 1484.11 544.482  12
   7   3   1 2558.49 521.027   7
   7  -3   1 851.228 380.870  11
   7   3   1 1766.96 508.411  11
   7   3   1 1290.32 387.477  15
   7  -3   1 898.223 345.986   9
   7  -3   1 685.888 354.014   8
   7  -3   2 15904.7 1077.12  12
   7  -3   2 14683.5 1304.13  11
   7   3   2 16506.4 1082.64   7
   7   3   2 15232.4 1195.55  11
   7  -3   2 14796.0 1096.99   9
   7  -3   2 16077.6 1116.12   8
   7  -3   3 7710.15 805.234  12
   7  -3   3 6096.02 851.889  11
   7   3   3 6755.81 720.240   7
   7   3   3 6541.14 814.963  11
   7  -3   3 6410.18 739.813   9
   7  -3   3 7071.61 782.353   8
   7  -3   4 8354.15 818.980  12
   7  -3   4 9006.17 1002.39  11
   7   3   4 9033.35 803.949   7
   7   3   4 8634.43 904.937  11
   7  -3   4 8282.93 823.708   9
   7  -3   4 9067.24 854.298   8
   7  -3   5 2086.45 454.223  12
   7  -3   5 1555.83 461.288  11
   7   3   5 1802.52 483.878  11
   7   3   5 2150.07 406.134   7
   7  -3   5 1823.70 378.423   9
   7  -3   5 1968.68 464.431   8
   7  -3   6 269.153 226.923  12
   7  -3   6 510.365 354.646  11
   7   3   6 457.829 309.625  11
   7   3   6 557.744 330.246   7
   7  -3   6 488.938 172.972   9
   7  -3   6 540.945 295.702   8
   7  -3   7-35.3151 214.731  12
   7  -3   7 21.0582 265.307  11
   7   3   7-84.0281 211.921  11
   7   3   7-196.998 184.817   7
   7  -3   7 132.861 187.302   9
   7  -3   7 118.076 199.178   8
   7  -3   8 3229.31 510.125  12
   7  -3   8 3009.13 610.550  11
   7   3   8 3326.51 608.221  11
   7   3   8 3081.76 483.707   7
   7  -3   8 3035.61 535.834   8
   7  -3   9 4014.82 548.187  12
   7  -3   9 3809.63 650.470  11
   7   3   9 4225.70 644.557  11
   7   3   9 4095.16 555.167   7
   7  -3   9 4171.92 608.055   8
   7  -3  10 361.923 264.540  12
   7  -3  10 368.050 299.042  11
   7   3  10 196.503 250.700  11
   7   3  10 466.071 267.533   7
   7  -3  10 399.950 245.386   8
   7  -3  11 755.772 299.166  12
   7  -3  11-116.041 338.308  11
   7   3  11 242.727 195.864  11
   7   3  11 475.618 269.416   7
   7  -3  11 142.893 226.596   8
   7  -3  12 7703.37 780.244  12
   7   3  12 7147.23 759.639   7
   7  -3  12 5979.80 835.883  11
   7   3  12 7268.04 799.014  11
   7  -3  12 6786.03 734.772   8
   7  -3  13 5277.86 638.549  12
   7   3  13 4037.71 572.001  11
   7   3  13 4257.46 552.830   7
   7  -3  13 3641.60 567.355   8
   7  -3  14 12393.2 930.076  12
   7   3  14 11174.9 879.135   7
   7   3  14 10699.3 914.778  11
   7  -3  14 10851.1 914.173   8
   7  -3  15 2977.50 478.392  12
   7   3  15 2743.31 467.501  11
   7   3  15 2207.36 423.777   7
   7  -3  15 2832.10 465.359   8
   7  -3  16 30057.6 1450.30  12
   7   3  16 27336.6 1405.77   7
   7   3  16 27978.2 1420.03  11
   7  -3  16 28222.3 1443.98   8
   7  -3  17 8790.43 788.475  12
   7   3  17 7539.04 755.410   7
   7   3  17 7472.57 715.946  11
   7  -3  17 8346.19 774.391   8
   7  -3  18 7392.75 746.231  12
   7  -3  18 5265.72 555.508   7
   7   3  18 6539.53 677.816   7
   7  -3  18 6738.42 700.607   8
   7  -3  19 19204.9 1130.19  12
   7  -3  19 17275.6 995.491   7
   7   3  19 18821.1 1147.09   7
   7  -3  19 20856.3 1162.54   8
   7  -3  20 7763.14 719.723  12
   7  -3  20 6662.08 605.930   7
   7   3  20 7361.76 734.654   7
   7  -3  20 7327.14 670.692   8
   7  -3  21 2920.90 463.629  12
   7  -3  21 2322.93 368.435   7
   7   3  21 2440.76 437.458   7
   7  -3  21 2735.90 426.900   8
   7  -3  22 16783.6 997.043  12
   7  -3  22 15362.0 922.324   7
   7   3  22 17127.9 1027.88   7
   7  -3  22 17508.5 984.456   8
   7  -3  23 1730.90 351.868  12
   7  -3  23 1739.73 318.175   7
   7   3  23 1994.86 370.717   7
   7  -3  23 2100.97 368.334   8
   7  -3  24 1266.83 293.817  12
   7  -3  24 803.070 224.901   7
   7   3  24 804.189 242.205   7
   7  -3  24 990.780 234.473   8
   7  -3  25 1482.09 286.890  12
   7  -3  25 1766.66 317.106   7
   7   3  25 1976.70 352.590   7
   7  -3  26 204.390 170.720  12
   7  -3  26 286.804 173.097   7
   7   3  26 351.905 217.699   7
   7  -3  27 671.547 201.301  12
   7  -3  27 492.147 172.693   7
   7   3  27 1017.85 258.282   7
   7  -3  28 6854.46 520.996  12
   7   3  28 7425.26 543.022   7
   7  -3  29-155.529 153.176  12
   7   3  29 292.325 154.586   7
   7  -3  30 1825.07 248.645  12
   7   3  30 1488.46 231.894   7
   7  -3  31 930.806 180.844  12
  -7  -4  34 2851.89 287.468  10
   7  -4 -34 2977.26 343.353  15
  -7  -4  33 931.311 202.091  10
   7  -4 -33 1110.24 249.821  15
  -7  -4  32 84.3049 130.291  10
   7  -4 -32 266.742 188.313  15
  -7  -4  31 2629.01 333.551  10
   7   4 -31 2719.24 353.447  15
   7  -4 -31 2387.99 391.523  15
  -7  -4  30 5586.99 497.534  10
   7   4 -30 4340.89 454.828  15
   7  -4 -30 4726.61 544.150  15
   7   4 -29-2.17571 162.332  15
   7  -4 -29 23.8648 235.077  15
   7   4 -28 9929.89 773.757  15
   7  -4 -28 11825.4 927.976  15
   7   4 -27 8874.62 761.648  15
   7  -4 -27 9698.11 869.111  15
   7   4 -26 5822.34 648.798  15
   7  -4 -26 6192.75 722.348  15
   7   4 -25 32191.4 1546.71  15
   7  -4 -25 34887.6 1695.16  15
   7   4 -24-60.1375 199.645  15
   7  -4 -24-184.070 179.325   9
   7  -4 -24 115.176 241.322  15
   7  -4 -23 10060.1 773.300   9
   7   4 -23 11853.7 996.574  15
   7  -4 -23 12836.1 1065.16  15
   7   4 -22-54.6389 268.633  15
   7  -4 -22 404.659 220.153   9
   7  -4 -22 242.217 264.456  15
   7   4 -21 2151.97 440.238  15
   7  -4 -21 1894.31 391.358   9
   7  -4 -21 2388.60 509.338  15
   7  -4 -20 7192.81 713.999   9
   7   4 -20 6534.91 795.628  15
   7  -4 -20 7001.92 805.302  15
   7  -4 -19 8039.43 767.753   9
   7   4 -19 6935.32 829.837  15
   7  -4 -19 7860.97 907.607  15
   7  -4 -18 15824.6 1104.83   9
   7   4 -18 15071.0 1156.90  15
   7  -4 -18 15459.1 1226.36  15
   7  -4 -17 9961.62 891.235   9
   7   4 -17 8686.66 906.920  15
   7  -4 -17 9410.44 947.113  15
   7   4 -16 11169.9 881.815  11
   7  -4 -16 12073.0 990.558   9
   7   4 -16 11063.6 1042.85  15
   7  -4 -16 11191.9 1062.54  15
   7   4 -15 4783.15 606.667  11
   7  -4 -15 5129.05 698.851   9
   7   4 -15 4121.77 658.551  15
   7  -4 -15 3894.04 636.376  15
   7   4 -14 2870.26 462.367  11
   7   4 -14 2592.45 602.509  15
   7  -4 -14 2802.74 556.323  15
   7  -4 -14 2893.02 551.260   9
   7   4 -13 25105.9 1420.20  11
   7  -4 -13 26195.3 1503.97   9
   7   4 -13 25272.0 1591.67  15
   7  -4 -13 25103.5 1556.97  15
   7   4 -12 4285.23 608.599  11
   7  -4 -12 5241.82 768.724   9
   7   4 -12 4751.23 763.921  15
   7  -4 -12 3733.16 608.459  15
   7   4 -11 22054.7 1339.05  11
  -7  -4  11 22289.6 1250.37  10
   7  -4 -11 22927.7 1425.97   9
   7   4 -11 21642.2 1459.68  15
   7  -4 -11 19237.1 1361.85  15
   7   4 -10 2007.56 400.511  11
  -7  -4  10 3098.14 554.160  10
   7   4 -10 2212.48 558.297  15
   7  -4 -10 1396.66 420.079  15
   7  -4 -10 2506.48 606.079   9
   7   4  -9 17035.3 1213.07  11
  -7  -4   9 16540.1 1071.22  10
   7  -4  -9 17688.7 1236.54   9
   7   4  -9 15239.4 1231.68  15
   7  -4  -9 14404.8 1145.64  15
   7   4  -8 399.473 283.329  11
  -7  -4   8 266.748 227.422  10
   7   4  -8 294.029 314.734  15
   7  -4  -8-318.141 261.326  15
   7  -4  -8 773.566 428.614   9
   7   4  -7 7962.69 860.461  11
   7   4  -7 7661.58 868.459  15
   7  -4  -7 7532.95 794.243   9
   7  -4  -7 6499.12 659.844   8
   7   4  -6 1754.77 426.848  11
   7   4  -6 2219.32 468.230   7
   7   4  -6 2245.97 556.063  15
   7  -4  -6 2208.30 526.630   9
   7  -4  -6 1451.58 376.544   8
   7   4  -5 8518.82 820.824   7
   7   4  -5 7762.44 864.221  11
   7   4  -5 8192.59 946.447  15
   7  -4  -5 8111.72 843.624   9
   7  -4  -5 6402.20 683.135   8
   7  -4  -4 14141.7 976.985  12
   7   4  -4 14475.6 1006.57   7
   7   4  -4 13259.5 1090.04  11
   7   4  -4 14435.9 1156.48  15
   7  -4  -4 14568.5 1122.92   9
   7  -4  -4 13221.2 953.676   8
   7  -4  -3 3321.74 643.459  12
   7   4  -3 3951.63 612.051   7
   7   4  -3 3141.74 565.312  11
   7   4  -3 3259.06 606.970  15
   7  -4  -3 3393.98 610.692   9
   7  -4  -3 2838.24 499.492   8
   7  -4  -2 11243.1 878.648  12
   7   4  -2 13982.5 984.134   7
   7   4  -2 12086.7 1060.68  11
   7   4  -2 10745.3 974.007  15
   7  -4  -2 11599.7 998.504   9
   7  -4  -2 10749.4 897.519   8
   7  -4  -1 3864.69 557.377  12
   7   4  -1 4588.07 601.515   7
   7   4  -1 3143.15 550.568  11
   7   4  -1 2905.67 526.441  15
   7  -4  -1 3729.12 600.093   9
   7  -4  -1 3971.25 569.029   8
   7  -4   0 1284.59 508.930  12
   7   4   0 1459.56 493.047  11
   7   4   0 1815.08 500.826   7
   7   4   0 732.936 340.793  15
   7  -4   0 698.636 325.889   9
   7  -4   0 1171.69 395.402   8
   7  -4   1 10203.8 815.958  12
   7   4   1 11842.1 909.043   7
   7   4   1 10771.6 1025.64  11
   7   4   1 9100.22 889.923  15
   7  -4   1 10466.1 935.453   9
   7  -4   1 10598.0 913.528   8
   7  -4   2 315.336 324.949  12
   7   4   2 303.184 287.063  11
   7   4   2 467.228 317.286   7
   7   4   2 179.687 169.301  15
   7  -4   2 337.532 290.320   9
   7  -4   2 399.328 289.081   8
   7  -4   3 2918.84 475.467  12
   7   4   3 2982.00 530.675  11
   7   4   3 2863.00 472.086   7
   7   4   3 2801.87 488.348  15
   7  -4   3 2800.41 518.770   9
   7  -4   3 2499.27 473.866   8
   7  -4   4 197.159 262.783  12
   7   4   4-121.059 217.990  11
   7   4   4 118.019 194.590   7
   7   4   4-158.653 216.566  15
   7  -4   4 155.918 228.198   9
   7  -4   4 410.685 277.335   8
   7  -4   5 1290.07 376.054   8
   7  -4   5 1485.95 338.724  12
   7   4   5 1822.24 410.413  11
   7   4   5 1214.47 354.669   7
   7  -4   5 1482.48 359.310   9
   7  -4   6 223.360 258.548   8
   7  -4   6 403.974 317.034  12
   7   4   6 44.0186 235.061  11
   7   4   6 170.140 237.709   7
   7  -4   6-8.95149 188.684   9
   7  -4   7 2164.38 442.284   8
   7  -4   7 2050.17 421.696  12
   7   4   7 2296.75 501.592  11
   7   4   7 2140.78 416.931   7
   7  -4   7 1959.34 417.819   9
   7  -4   8 6220.38 653.580  12
   7   4   8 5950.31 661.524   7
   7   4   8 6025.88 746.678  11
   7  -4   8 5575.59 644.037   9
   7  -4   8 5726.65 666.026   8
   7  -4   9 92.7916 255.144   8
   7  -4   9 242.173 215.514  12
   7   4   9 750.877 322.921  11
   7   4   9 810.061 298.057   7
   7  -4  10 257.503 252.934   8
   7  -4  10 152.002 221.487  12
   7   4  10-14.8603 224.156  11
   7   4  10 266.151 229.554   7
   7  -4  11 1809.46 400.414  12
   7   4  11 1456.89 369.501  11
   7   4  11 1531.46 371.606   7
   7  -4  11 1643.47 395.096   8
   7  -4  12 1167.82 337.879  12
   7   4  12 1023.77 318.521  11
   7   4  12 942.574 328.664   7
   7  -4  12 1262.04 359.591   8
   7  -4  13 297.546 280.214  12
   7   4  13-277.104 208.001  11
   7   4  13 181.734 180.100   7
   7  -4  13-48.6657 197.023   8
   7  -4  14 561.347 242.600  12
   7   4  14 179.970 198.568  11
   7   4  14-92.7475 239.634   7
   7  -4  14 214.865 213.023   8
   7  -4  15 278.528 218.147  12
   7   4  15-164.003 196.243  11
   7   4  15-181.240 167.617   7
   7  -4  15 187.405 208.797   8
   7  -4  16 233.495 181.446  12
   7   4  16 183.155 147.028  11
   7   4  16 501.626 258.563   7
   7  -4  16 739.976 275.242   8
   7  -4  17 707.866 287.972  12
   7   4  17 625.876 241.842   7
   7  -4  17 872.600 303.317   8
   7  -4  18 3661.93 487.542  12
   7   4  18 3696.76 504.778   7
   7  -4  18 3744.50 507.096   8
   7  -4  19-27.7842 180.122  12
   7   4  19 644.269 265.487   7
   7  -4  19 537.110 233.160   8
   7  -4  20 708.210 267.241  12
   7   4  20 317.335 193.355   7
   7  -4  20 776.926 250.493   8
   7  -4  21 647.634 239.643  12
   7   4  21 265.508 226.595   7
   7  -4  21 352.901 183.873   8
   7  -4  22 3003.25 420.773  12
   7   4  22 2911.98 402.477   7
   7  -4  22 3376.31 401.353   8
   7  -4  23-88.4074 163.228  12
   7   4  23 190.277 219.610   7
   7  -4  23 23.5487 119.141   8
   7  -4  24 977.482 230.489  12
   7   4  24 1103.62 246.465   7
   7  -4  24 806.886 194.242   8
   7  -4  25 27.0376 139.459  12
   7   4  25-146.617 165.852   7
   7  -4  25 80.7598 141.419   8
   7  -4  26 4158.72 396.151  12
   7   4  26 3637.61 363.777   7
   7  -4  27 3301.23 337.852  12
   7   4  27 2791.30 285.600   7
   7  -4  28 1705.40 242.973  12
  -7  -5  30 3475.54 311.626  10
   7  -5 -30 3311.90 371.217  15
  -7  -5  29 4416.70 372.105  10
   7  -5 -29 4559.83 457.890  15
  -7  -5  28 2098.63 287.286  10
   7   5 -28 1788.02 265.474  15
   7  -5 -28 2308.74 364.423  15
  -7  -5  27 11020.1 648.908  10
   7   5 -27 10327.6 646.116  15
   7  -5 -27 12068.0 810.417  15
  -7  -5  26-9.94619 150.144  10
   7   5 -26 60.0452 143.985  15
   7  -5 -26 51.7501 162.021  15
  -7  -5  25 6493.26 530.603  10
   7   5 -25 6226.55 573.292  15
   7  -5 -25 6442.01 643.137  15
  -7  -5  24 4380.81 476.228  10
   7   5 -24 4225.18 495.262  15
   7  -5 -24 4080.52 537.841  15
  -7  -5  23 1449.06 298.406  10
   7   5 -23 1182.39 295.474  15
   7  -5 -23 799.926 221.122   9
   7  -5 -23 1099.46 312.890  15
  -7  -5  22 602.896 255.684  10
   7   5 -22 220.537 185.416  15
   7  -5 -22 447.906 209.004   9
   7  -5 -22 410.006 259.060  15
  -7  -5  21 15819.0 924.710  10
   7  -5 -21 14805.3 875.192   9
   7   5 -21 15458.0 1022.37  15
   7  -5 -21 16024.2 1105.42  15
  -7  -5  20 2293.65 385.599  10
   7   5 -20 2455.17 431.852  15
   7  -5 -20 1890.06 339.868   9
   7  -5 -20 2638.20 456.858  15
  -7  -5  19 649.652 242.143  10
   7   5 -19 411.074 314.711  15
   7  -5 -19 631.643 281.726  15
   7  -5 -19 576.587 227.409   9
  -7  -5  18 15501.0 952.456  10
   7  -5 -18 15450.0 989.665   9
   7   5 -18 15010.2 1077.90  15
   7  -5 -18 15765.8 1104.68  15
  -7  -5  17 291.263 257.371  10
   7   5 -17-713.942 306.577  15
   7  -5 -17-21.1221 235.689  15
   7  -5 -17-370.743 225.238   9
   7   5 -16 12652.5 860.540  11
  -7  -5  16 12704.9 877.048  10
   7  -5 -16 13719.5 970.278   9
   7   5 -16 13059.3 1021.74  15
   7  -5 -16 13703.1 1054.32  15
   7   5 -15 3300.50 457.545  11
  -7  -5  15 3681.60 501.922  10
   7   5 -15 3446.83 582.855  15
   7  -5 -15 3091.71 521.070  15
   7  -5 -15 3633.28 534.854   9
   7   5 -14 10827.8 866.200  11
  -7  -5  14 11718.8 852.291  10
   7  -5 -14 11093.1 918.669   9
   7   5 -14 11688.0 997.118  15
   7  -5 -14 10680.0 967.163  15
   7   5 -13 1677.56 361.172  11
  -7  -5  13 1158.37 283.894  10
   7   5 -13 951.649 364.405  15
   7  -5 -13 771.023 313.822  15
   7  -5 -13 1082.10 330.705   9
   7   5 -12 436.195 249.080  11
  -7  -5  12 800.467 309.917  10
   7   5 -12 234.792 288.151  15
   7  -5 -12 439.786 247.459  15
   7  -5 -12 263.511 260.854   9
   7   5 -11 11278.3 940.139  11
  -7  -5  11 12627.9 894.238  10
   7   5 -11 11261.0 1007.15  15
   7  -5 -11 12690.4 998.160   9
   7  -5 -11 9494.45 873.080  15
   7   5 -10 9965.36 893.675  11
  -7  -5  10 10226.4 812.924  10
   7   5 -10 9698.53 956.506  15
   7  -5 -10 9314.04 914.312   9
   7  -5 -10 7499.58 810.796  15
   7   5  -9 14722.8 1097.16  11
  -7  -5   9 14650.7 952.445  10
   7   5  -9 13997.8 1111.74  15
   7  -5  -9 16352.4 1171.22   9
   7   5  -8 2632.50 509.588  11
   7   5  -8 3043.42 506.592   7
  -7  -5   8 2394.11 406.631  10
   7   5  -8 2476.51 536.776  15
   7  -5  -8 4023.65 626.747   9
   7   5  -7 2914.23 524.017  11
   7   5  -7 3786.41 515.375   7
  -7  -5   7 3534.28 479.119  10
   7   5  -7 3232.20 577.058  15
   7  -5  -7 3159.69 537.889   9
   7   5  -6 1702.93 424.082  11
   7   5  -6 1300.85 406.212   7
   7   5  -6 777.617 337.967  15
   7  -5  -6 853.430 355.191   9
   7   5  -5 3223.01 539.424  11
   7   5  -5 3723.12 534.201   7
   7   5  -5 2582.33 510.418  15
   7  -5  -5 3078.46 538.677   9
   7  -5  -5 2634.86 403.387   8
   7   5  -4 5005.31 618.609   7
   7   5  -4 4684.49 654.500  11
   7   5  -4 4798.30 665.145  15
   7  -5  -4 4616.55 641.470   9
   7  -5  -4 3698.18 457.988   8
   7   5  -3 4855.65 620.155   7
   7   5  -3 3676.99 631.900  11
   7   5  -3 4026.08 610.902  15
   7  -5  -3 3607.66 570.571   9
   7  -5  -3 3167.23 450.394   8
   7   5  -2 11634.6 896.618   7
   7   5  -2 11110.6 974.642  11
   7   5  -2 9954.46 905.841  15
   7  -5  -2 10884.7 940.115   9
   7  -5  -2 10161.0 791.035   8
   7   5  -1 973.177 389.122  11
   7   5  -1 1853.79 417.739   7
   7   5  -1 1125.27 331.838  15
   7  -5  -1 2372.61 496.162   9
   7  -5  -1 1888.76 372.606   8
   7  -5   0 699.446 231.053  12
   7   5   0 731.295 309.334  11
   7   5   0 1146.18 340.579   7
   7   5   0 810.947 255.951  15
   7  -5   0 713.271 290.037   9
   7  -5   0 879.282 271.041   8
   7  -5   1 798.877 248.447  12
   7   5   1 1112.27 333.981  11
   7   5   1 679.421 297.502   7
   7   5   1 1004.59 338.064  15
   7  -5   1 886.981 311.117   9
   7  -5   1 944.817 276.964   8
   7  -5   2 141.545 209.290  12
   7   5   2 121.250 229.585  11
   7   5   2 767.191 308.620   7
   7  -5   2 405.789 279.015   9
   7  -5   2 282.225 203.940   8
   7  -5   3 2232.29 373.232  12
   7   5   3 2161.10 399.348  11
   7   5   3 3179.63 460.190   7
   7  -5   3 2884.46 504.870   9
   7  -5   3 3108.25 475.838   8
   7  -5   4 29.8568 166.436  12
   7   5   4-2.89425 214.518  11
   7   5   4 574.279 277.127   7
   7  -5   4 150.468 196.072   9
   7  -5   4 443.314 236.086   8
   7  -5   5 3218.31 440.386  12
   7   5   5 4405.83 555.507   7
   7   5   5 3358.06 563.057  11
   7  -5   5 3263.28 493.007   9
   7  -5   5 3979.09 568.026   8
   7  -5   6 5495.58 614.757  12
   7   5   6 7478.93 736.346   7
   7   5   6 6227.27 750.766  11
   7  -5   6 5298.85 611.705   9
   7  -5   6 5813.31 651.967   8
   7  -5   7 15421.6 919.877  12
   7   5   7 17539.8 1062.65   7
   7   5   7 15216.4 1088.73  11
   7  -5   7 14558.1 948.553   9
   7  -5   7 15789.8 1031.08   8
   7  -5   8 1056.53 330.103  12
   7   5   8 577.786 276.393  11
   7   5   8 825.189 304.618   7
   7  -5   8 802.665 259.365   9
   7  -5   8 1251.05 344.285   8
   7  -5   9 8985.61 710.522  12
   7   5   9 8931.54 734.444   7
   7   5   9 8700.46 789.621  11
   7  -5   9 8091.52 740.344   8
   7  -5  10 7029.80 613.338  12
   7   5  10 8097.20 711.482   7
   7   5  10 7133.21 709.829  11
   7  -5  10 6755.82 651.202   8
   7  -5  11 4791.84 513.958  12
   7   5  11 5969.81 610.494   7
   7   5  11 5216.06 592.684  11
   7  -5  11 5311.40 602.307   8
   7  -5  12 6838.91 607.103  12
   7   5  12 7529.07 662.236   7
   7   5  12 7085.72 668.688  11
   7  -5  12 6607.28 660.048   8
   7  -5  13 6933.44 600.811  12
   7   5  13 6849.65 611.514   7
   7   5  13 7902.35 686.869  11
   7  -5  13 6873.89 655.757   8
   7  -5  14 20525.5 994.091  12
   7   5  14 23359.3 1111.91   7
   7   5  14 22101.3 1094.87  11
   7  -5  14 22401.6 1131.70   8
   7  -5  15 7763.57 602.305  12
   7   5  15 8850.98 680.233   7
   7   5  15 7588.67 616.902  11
   7  -5  15 8402.64 687.302   8
   7  -5  16 18373.3 914.445  12
   7   5  16 19808.4 976.729   7
   7  -5  16 20248.1 1037.91   8
   7  -5  17 126.124 135.701  12
   7   5  17 155.796 168.672   7
   7  -5  17 18.1613 163.517   8
   7  -5  18 4587.82 443.152  12
   7   5  18 4405.06 456.316   7
   7  -5  18 4704.61 477.831   8
   7  -5  19 213.767 166.092  12
   7   5  19 89.9393 128.582   7
   7  -5  19 158.027 180.756   8
   7  -5  20 1260.67 232.018  12
   7   5  20 1329.99 245.567   7
   7  -5  20 1373.25 261.969   8
   7  -5  21 1793.67 285.152  12
   7   5  21 2019.78 281.273   7
   7  -5  21 1820.04 275.668   8
   7  -5  22 613.335 171.321  12
   7   5  22 797.916 179.924   7
   7  -5  22 461.981 151.834   8
   7  -5  23 1122.45 192.971  12
  -7  -6  23 59.5149 102.681  10
  -7  -6  22 255.801 138.133  10
   7  -6 -22 260.206 168.309  15
  -7  -6  21-54.2213 116.608  10
   7  -6 -21-156.925 159.379  15
   7   6 -20-157.863 112.645   7
  -7  -6  20-204.239 159.409  10
   7  -6 -20 176.515 122.296   9
   7  -6 -20 14.4630 135.629  15
   7   6 -19 203.831 136.553   7
  -7  -6  19-43.5271 150.763  10
   7  -6 -19 157.394 128.420   9
   7  -6 -19 175.630 145.329  15
   7   6 -18 1948.76 281.373   7
  -7  -6  18 2134.62 298.282  10
   7  -6 -18 1735.59 316.387  15
   7  -6 -18 1672.60 266.540   9
   7   6 -17 861.987 206.055   7
  -7  -6  17 914.926 240.661  10
   7   6 -17 713.157 216.420  15
   7  -6 -17 679.878 224.227  15
   7  -6 -17 946.302 236.846   9
   7   6 -16 4005.93 423.584   7
  -7  -6  16 3836.09 387.120  10
   7   6 -16 3408.72 448.888  15
   7  -6 -16 2429.89 367.829  15
   7  -6 -16 3549.23 416.319   9
   7   6 -15 2496.75 349.013  11
   7   6 -15 2213.14 304.074   7
  -7  -6  15 2330.45 316.660  10
   7   6 -15 2229.94 370.958  15
   7  -6 -15 1904.21 330.621  15
   7  -6 -15 2658.20 391.290   9
   7   6 -14 243.237 152.485  11
   7   6 -14 391.844 199.199   7
  -7  -6  14 328.394 150.815  10
   7   6 -14 231.993 210.831  15
   7  -6 -14 637.580 231.306  15
   7  -6 -14-54.9508 163.440   9
   7   6 -13 743.097 215.815  11
   7   6 -13 844.475 225.541   7
  -7  -6  13 958.021 261.612  10
   7   6 -13 952.326 267.888  15
   7  -6 -13 344.728 166.413  15
   7  -6 -13 1113.76 276.799   9
   7   6 -12 1556.47 309.283  11
   7   6 -12 1452.37 307.796   7
  -7  -6  12 1273.48 256.453  10
   7   6 -12 1311.76 321.162  15
   7  -6 -12 983.382 261.947   9
   7   6 -11 3248.92 405.473   7
   7   6 -11 3263.62 424.166  11
  -7  -6  11 3251.46 380.301  10
   7   6 -11 2600.31 417.452  15
   7  -6 -11 3155.59 456.998   9
   7   6 -10 171.080 141.970  11
   7   6 -10 661.922 231.920   7
  -7  -6  10 147.578 136.213  10
   7  -6 -10 291.040 275.821   9
   7   6  -9 7989.87 623.708   7
   7   6  -9 7835.31 686.486  11
  -7  -6   9 8482.39 618.059  10
   7  -6  -9 8312.18 723.976   9
   7   6  -8 908.998 323.423  11
   7   6  -8 1806.96 372.151   7
  -7  -6   8 902.558 248.771  10
   7  -6  -8 1063.83 384.371   9
   7   6  -7 14640.1 865.275   7
   7   6  -7 14125.1 941.408  11
   7  -6  -7 15472.3 984.615   9
   7   6  -6 10251.3 745.313   7
   7   6  -6 7932.57 730.783  11
   7  -6  -6 9106.92 792.053   9
   7   6  -5 21206.2 1036.02   7
   7   6  -5 18535.2 1078.56  11
   7  -6  -5 19424.9 1090.36   9
   7   6  -4 5000.86 592.612   7
   7  -6  -4 4038.81 536.497   9
   7   6  -3 2444.77 472.759  11
   7  -6  -3 1387.79 360.942   9
   7   6  -2 15397.2 895.280   7
   7   6  -2 15196.2 999.467  11
   7  -6  -2 14026.6 927.474   9
   7   6  -1 1341.84 376.211  11
   7   6  -1 1987.00 430.074   7
   7  -6  -1 1782.79 414.686   9
   7  -6  -1 654.858 166.775   8
   7   6   0 6722.95 613.194   7
   7   6   0 6347.95 638.243  11
   7  -6   0 4941.96 559.684   9
   7  -6   0 5105.09 489.004   8
   7   6   1 10383.8 827.158  11
   7  -6   1 10018.5 764.266   9
   7  -6   1 10664.0 695.700   8
   7   6   2 12327.9 816.306   7
   7   6   2 11881.5 879.138  11
   7  -6   2 11287.5 795.359   9
   7  -6   2 10499.9 704.889   8
   7   6   3 8528.07 663.079   7
   7   6   3 6980.20 689.202  11
   7  -6   3 6522.43 608.569   9
   7  -6   3 6857.48 570.995   8
   7   6   4 8550.35 705.563   7
   7   6   4 8072.22 756.924  11
   7  -6   4 5735.22 552.102   9
   7  -6   4 6699.17 583.197   8
   7   6   5 24514.2 1213.90  11
   7  -6   5 23403.3 1065.58   9
   7  -6   5 23898.8 1066.34   8
   7   6   6 880.708 301.928  11
   7   6   6 1217.70 350.907   7
   7  -6   6 383.484 184.944   9
   7  -6   6 896.370 268.216   8
   7   6   7 21131.6 953.820   7
   7   6   7 19316.4 1042.91  11
   7  -6   7 18031.6 858.618   9
   7  -6   7 18675.4 958.521   8
   7   6   8 721.957 255.003  11
   7   6   8 1385.02 268.052   7
   7  -6   8 1108.29 260.574   8
   7   6   9 3378.07 385.923   7
   7   6   9 2896.35 385.340  11
   7  -6   9 2643.08 376.280   8
   7   6  10-46.4018 152.979  11
   7   6  10 115.265 117.460   7
   7  -6  10 126.334 152.581   8
   7   6  11 303.122 155.085  11
   7   6  11 529.654 164.753   7
   7  -6  11 835.653 225.681   8
   7   6  12 329.317 161.341  11
   7   6  12 367.814 150.618   7
   7  -6  12 378.131 200.721   8
   7   6  13 2833.75 326.248   7
   7  -6  13 2601.63 359.889   8
   7   6  14 1735.99 250.580   7
   7  -6  14 1873.69 289.731   8
   7   6  15-84.0738 110.682   7
   7  -6  15-275.629 152.250   8
   7  -6  16 785.943 170.687   8
   7  -6  17 1962.34 260.505   8
   7   7  -9 2210.49 261.764   7
   7  -7  -9 2582.54 309.161   9
   7   7  -8 647.784 176.449   7
   7  -7  -8 628.751 184.664   9
   7   7  -7 3880.18 327.515   7
   7   7  -7 3232.15 328.114  11
   7  -7  -7 3456.46 368.394   9
   7   7  -6 763.163 182.970  11
   7   7  -6 1459.49 234.215   7
   7  -7  -6 1301.93 250.208   9
   7   7  -5 2243.02 299.557  11
   7  -7  -5 2830.97 352.622   9
   7   7  -4 9823.21 596.374  11
   7  -7  -4 10280.6 594.676   9
   7   7  -3 4207.33 380.401   7
   7  -7  -3 3602.36 371.475   9
   7   7  -2 5995.92 420.913   7
   7   7  -2 4714.39 438.576  11
   7  -7  -2 4960.12 411.937   9
   7   7  -1 6178.91 422.853   7
   7   7  -1 5383.63 456.381  11
   7  -7  -1 6001.92 443.232   9
   7   7   0 315.941 184.729  11
   7   7   0 587.579 178.666   7
   7   7   1 3835.21 331.805   7
   7   7   1 3325.91 367.193  11
   7   7   2 414.821 165.163  11
   7   7   2 492.115 144.412   7
   8   0 -36 3352.58 375.858  15
   8   0 -35 213.939 200.790  15
   8   0 -34 22074.7 1097.51  15
   8   0 -33 320.408 225.446  15
   8   0 -32 379.717 241.176  15
   8   0 -31 58.1596 213.476  15
   8   0 -30 379.358 269.118  15
   8   0 -29-130.622 233.989  15
   8   0 -28 10742.3 991.070  15
   8   0 -27-1178.07 688.349   9
   8   0 -27-76.9656 241.526  15
   8   0 -26 5236.25 765.982   9
   8   0 -26 4383.63 674.328  15
   8   0 -25 919.196 549.420   9
   8   0 -25 122.019 303.910  15
   8   0 -24 1208.68 382.507   9
   8   0 -24 2015.72 521.908  15
   8   0 -23-120.097 298.199   9
   8   0 -23-177.076 241.531  15
   8   0 -22 7318.19 718.025   9
   8   0 -22 8053.19 879.768  15
   8   0 -21 42.7294 238.807   9
   8   0 -21 39.9893 282.998  15
   8   0 -20 14834.9 1035.78   9
   8   0 -20 14859.1 1273.37  15
   8   0 -19-270.588 209.665   9
   8   0 -19-104.005 252.998  15
   8   0 -18 13437.2 1021.72   9
   8   0 -18 13541.9 1194.15  15
   8   0 -17-30.2629 267.619   9
   8   0 -17 156.883 243.425  15
   8   0 -16 6801.99 724.176   9
   8   0 -16 6074.45 806.576  15
   8   0 -15 171.040 237.609   9
   8   0 -15-199.758 244.954  15
   8   0 -14 6998.18 781.601   9
   8   0 -14 5587.92 800.344  15
   8   0 -13-78.3576 191.328  11
   8   0 -13-77.5818 253.092   9
   8   0 -13 203.628 282.117  15
   8   0 -12 12895.8 1030.29  11
   8   0 -12 13836.7 1037.67   9
   8   0 -12 12394.1 1102.54  15
   8   0 -11 178.324 217.078  11
   8   0 -11 763.539 449.687   9
   8   0 -11 242.458 340.800  15
   8   0 -11 453.224 308.134   8
   8   0 -10 21459.7 1361.43  11
   8   0 -10 23124.2 1352.43   9
   8   0 -10 20000.3 1375.07  15
   8   0 -10 21569.7 1217.27   8
   8   0  -9 1269.81 410.207  11
   8   0  -9 548.149 479.071  15
   8   0  -9 1390.98 432.703   8
   8   0  -8 36930.8 1796.86  11
   8   0  -8 36387.9 1682.11   9
   8   0  -8 33887.2 1719.94  15
   8   0  -8 36887.9 1604.32   8
   8   0  -7 5597.12 958.695  11
   8   0  -7 3140.73 810.654  15
   8   0  -7 5266.07 820.728   8
   8   0  -6 120161. 3285.36  11
   8   0  -6 114296. 3016.22   9
   8   0  -6 122875. 3194.11  15
   8   0  -6 120316. 2951.02   8
   8   0  -5 6392.40 981.532  11
   8   0  -5 6453.55 950.121   8
   8   0  -4 94552.7 2955.99  11
   8   0  -4 91787.2 2641.81   9
   8   0  -4 98068.1 2680.38   8
   8   0  -3 1388.33 516.646  11
   8   0  -3 2483.82 594.969   9
   8   0  -3 1852.08 560.209   8
   8   0  -2 15180.7 1208.38  11
   8   0  -2 15978.3 1094.55   9
   8   0  -2 17493.2 1135.95   8
   8   0  -1 60.0659 253.334  11
   8   0  -1 492.733 311.245   9
   8   0  -1 753.625 331.941   8
   8   0   0 308.163 361.730  11
   8   0   0 517.925 287.640   9
   8   0   0 331.573 277.695   8
   8   0   1 134.330 262.553  11
   8   0   1 496.352 274.200   9
   8   0   1 477.736 293.820   8
   8   0   2 6607.21 660.236  12
   8   0   2 6723.50 800.712  11
   8   0   2 7256.85 723.344   9
   8   0   2 8072.27 798.141   8
   8   0   3 1474.93 610.988  12
   8   0   3 644.018 438.812  11
   8   0   3 851.049 396.146   9
   8   0   3 1132.36 478.512   8
   8   0   4 24331.5 1247.16  12
   8   0   4 24841.6 1537.69  11
   8   0   4 25045.2 1304.06   9
   8   0   4 27577.5 1440.57   8
   8   0   5 70.0371 221.092  12
   8   0   5 57.9749 329.224  11
   8   0   5-183.581 204.176   9
   8   0   5-54.1180 199.134   8
   8   0   6-253.454 198.117  12
   8   0   6-89.8748 224.563  11
   8   0   6 194.772 219.710   8
   8   0   7 70.4082 269.754  12
   8   0   7 116.256 370.157  11
   8   0   7-190.782 196.390   7
   8   0   7 315.928 230.144   8
   8   0   8 17618.9 1023.36  12
   8   0   8 14164.8 951.153   7
   8   0   8 17296.4 1283.39  11
   8   0   8 16021.6 1087.64   8
   8   0   9 9.18146 155.307  12
   8   0   9 33.4466 264.540  11
   8   0   9-105.555 189.398   7
   8   0   9 125.437 250.136   8
   8   0  10 11693.5 831.917  12
   8   0  10 10149.2 822.172   7
   8   0  10 12651.3 1112.15  11
   8   0  10 11495.5 915.370   8
   8   0  11-57.3357 200.949  12
   8   0  11 251.910 310.663  11
   8   0  11 32.9967 218.572   7
   8   0  11-67.8755 184.614   8
   8   0  12 20929.9 1112.83  12
   8   0  12 20180.0 1175.79   7
   8   0  12 21054.8 1422.63  11
   8   0  12 21272.0 1219.94   8
   8   0  13 132.035 195.663  12
   8   0  13-39.3249 259.523  11
   8   0  13-22.6660 172.684   7
   8   0  13 51.6274 168.661   8
   8   0  14 29427.6 1256.28  12
   8   0  14 27134.8 1366.30   7
   8   0  14 29991.9 1638.34  11
   8   0  14 27505.1 1357.22   8
   8   0  15 28.6423 201.850  11
   8   0  15-182.030 224.945   7
   8   0  15 42.0386 175.509   8
   8   0  16 4712.10 585.104   7
   8   0  16 5123.14 651.465  11
   8   0  16 5718.23 612.625   8
   8   0  17 102.272 288.785  11
   8   0  17 45.8314 179.048   7
   8   0  17-226.800 164.952   8
   8   0  18 3075.01 495.433  11
   8   0  18 3198.76 457.238   7
   8   0  18 3444.02 450.019   8
   8   0  19 21.5234 204.614  11
   8   0  19-129.787 183.840   7
   8   0  19 108.668 188.412   8
   8   0  20 111.636 197.656   7
   8   0  21-524.067 225.165   7
   8   0  22 46432.6 1674.40   7
   8   0  23 83.3665 169.607   7
   8   0  24 33103.2 1328.93   7
   8   0  25-152.871 155.958   7
   8   0  26 5095.36 490.960   7
   8   0  27 14.4424 136.518   7
   8   0  28 15477.8 786.040   7
   8   0  29-42.4350 118.548   7
   8   0  30 25395.3 895.151   7
   8   1 -36 21.0633 122.083  15
   8  -1 -36 129.671 149.082  15
   8   1 -35 1170.12 252.191  15
   8  -1 -35 1568.72 287.596  15
   8   1 -34 2595.85 373.443  15
   8  -1 -34 3122.84 431.458  15
   8   1 -33 4100.21 496.450  15
   8  -1 -33 5106.53 532.281  15
   8   1 -32 65.1947 162.370  15
   8  -1 -32 79.0992 200.171  15
   8   1 -31 23186.5 1248.80  15
   8  -1 -31 24570.4 1307.93  15
   8   1 -30 8279.31 774.841  15
   8  -1 -30 8808.36 851.176  15
   8   1 -29 7567.00 770.886  15
   8  -1 -29 8059.22 810.100  15
   8   1 -28 1311.25 375.251  15
   8  -1 -28 1315.84 347.561  15
   8  -1 -27 1998.79 447.813   9
   8   1 -27 1817.81 409.563  15
   8  -1 -27 2102.49 486.045  15
   8  -1 -26 15663.9 924.836   9
   8   1 -26 17894.4 1255.30  15
   8  -1 -26 18681.3 1305.94  15
   8  -1 -25 1249.51 317.471   9
   8   1 -25 1137.40 375.115  15
   8  -1 -25 1072.02 384.886  15
   8  -1 -24 678.278 280.373   9
   8   1 -24 559.776 322.177  15
   8  -1 -24 718.826 403.680  15
   8   1 -23 3308.62 928.509   9
   8  -1 -23 2357.62 416.838   9
   8   1 -23 2370.83 530.180  15
   8  -1 -23 2351.31 535.333  15
   8  -1 -22 6614.60 684.873   9
   8   1 -22 7754.33 864.700  15
   8  -1 -22 7319.97 912.935  15
   8   1 -22 8175.34 1204.02   9
   8   1 -21 2482.75 943.490   9
   8  -1 -21 2187.61 421.182   9
   8   1 -21 3183.71 601.695  15
   8  -1 -21 2364.48 532.853  15
   8   1 -20 21302.3 1479.93   9
   8  -1 -20 17630.1 1167.10   9
   8   1 -20 19430.7 1402.20  15
   8  -1 -20 18065.0 1397.26  15
   8  -1 -19 231.413 197.541   9
   8   1 -19 96.9088 244.183  15
   8  -1 -19 435.406 295.008  15
   8  -1 -18 7128.82 758.624   9
   8   1 -18 7296.38 891.889  15
   8  -1 -18 6688.51 857.706  15
   8   1 -18 7856.75 909.670   9
   8   1 -17 2260.96 632.952   9
   8   1 -17 1964.04 547.656  15
   8  -1 -17 2416.64 446.392   9
   8  -1 -17 2026.48 529.922  15
   8   1 -16 3028.47 637.928   9
   8   1 -16 1891.63 427.595  15
   8  -1 -16 3024.66 536.684   9
   8  -1 -16 2521.22 577.210  15
   8   1 -15 24000.8 1367.33   9
   8  -1 -15 24278.5 1402.93   9
   8   1 -15 21200.6 1460.00  15
   8  -1 -15 21408.1 1467.85  15
   8   1 -14 4564.67 607.069  11
   8  -1 -14 4134.52 705.474   9
   8   1 -14 4081.84 683.782   9
   8   1 -14 4149.79 721.800  15
   8  -1 -14 4187.41 713.308  15
   8  -1 -14 3255.40 428.645   8
   8  -1 -13 43069.8 1915.79  11
   8   1 -13 44547.8 1871.44  11
   8   1 -13 48358.6 1964.43   9
   8  -1 -13 46807.3 1994.66   9
   8   1 -13 42425.0 2056.25  15
   8  -1 -13 40645.7 1995.70  15
   8  -1 -13 41161.1 1622.90   8
   8  -1 -12 1639.02 439.482  11
   8   1 -12 1936.47 437.545  11
   8   1 -12 2098.94 470.450   9
   8   1 -12 2493.48 547.352  15
   8  -1 -12 2704.09 558.483   9
   8  -1 -12 2227.69 556.970  15
   8  -1 -12 2229.24 402.575   8
   8  -1 -11 1450.92 412.476  11
   8   1 -11 1854.32 412.807  11
   8   1 -11 2457.80 532.691   9
   8   1 -11 1911.66 486.498  15
   8  -1 -11 1966.92 460.024   9
   8  -1 -11 1610.83 445.742  15
   8  -1 -11 1637.45 334.183   8
   8  -1 -10 2286.53 521.190  11
   8   1 -10 1736.34 444.359  11
   8   1 -10 2196.40 475.790   9
   8   1 -10 1916.23 381.771  15
   8  -1 -10 1874.68 367.010   9
   8  -1 -10 2267.06 482.539  15
   8  -1 -10 2383.04 438.626   8
   8  -1  -9-10.9100 247.523  11
   8   1  -9 308.361 277.746  11
   8   1  -9 28.2914 258.761   9
   8   1  -9-145.261 328.671  15
   8  -1  -9 175.524 281.471   9
   8  -1  -9-140.621 252.125  15
   8  -1  -9 61.2158 222.298   8
   8  -1  -8-220.945 312.428  11
   8   1  -8 383.362 243.110  11
   8   1  -8-193.673 254.691   9
   8   1  -8-94.7659 290.468  15
   8  -1  -8-100.743 269.931   9
   8  -1  -8-18.1282 181.269  15
   8  -1  -8 94.7405 196.962   8
   8  -1  -7-47.4108 203.152  11
   8   1  -7 30.0617 198.843  11
   8   1  -7-20.1802 293.233   9
   8   1  -7-18.5038 261.062  15
   8  -1  -7-71.9899 210.623   9
   8  -1  -7-159.878 249.074   8
   8  -1  -6 284.261 283.030  11
   8   1  -6 822.964 354.791  11
   8   1  -6 718.376 235.068   9
   8   1  -6 592.137 243.965  15
   8  -1  -6 1086.55 411.395   9
   8  -1  -6 196.060 172.917   8
   8  -1  -5 2913.14 547.151  11
   8   1  -5 2885.77 537.493  11
   8   1  -5 2931.06 509.116   9
   8   1  -5 2388.62 474.740  15
   8  -1  -5 2991.05 517.411   9
   8   1  -5 3819.98 545.144   8
   8  -1  -5 3347.03 502.177   8
   8  -1  -4 214.795 219.663  11
   8   1  -4 479.127 287.675  11
   8   1  -4 459.127 264.538   9
   8  -1  -4 274.655 272.324   9
   8   1  -4 856.598 336.946   8
   8  -1  -4 619.037 303.709   8
   8  -1  -3 981.779 421.929  11
   8   1  -3 1476.23 493.500  11
   8   1  -3 1810.32 507.109   9
   8  -1  -3 1844.20 517.010   9
   8   1  -3 1316.28 500.211   8
   8  -1  -3 1533.76 504.270   8
   8  -1  -2 18954.1 1392.49  11
   8   1  -2 20537.8 1395.01  11
   8   1  -2 20945.3 1288.91   9
   8  -1  -2 19913.8 1287.67   9
   8   1  -2 23409.3 1373.11   8
   8  -1  -2 21644.8 1305.18   8
   8  -1  -1 27675.0 1457.66  12
   8  -1  -1 24608.2 1576.32  11
   8   1  -1 25847.5 1550.23  11
   8   1  -1 27016.5 1406.20   9
   8  -1  -1 24997.0 1395.92   9
   8   1  -1 29048.9 1462.78   8
   8  -1  -1 27379.1 1440.65   8
   8  -1   0 3547.34 634.215  12
   8  -1   0 2622.51 611.443  11
   8   1   0 2680.65 577.038  11
   8   1   0 2929.25 548.054   9
   8  -1   0 2424.06 443.384   9
   8  -1   0 3869.84 605.731   8
   8   1   0 3224.40 520.803   8
   8  -1   1 2023.69 441.511  12
   8  -1   1 863.617 349.297  11
   8   1   1 1160.08 372.510  11
   8   1   1 1226.10 408.247   9
   8  -1   1 1515.93 366.492   9
   8   1   1 1395.67 369.018   8
   8  -1   1 1015.38 298.096   8
   8  -1   2 1565.81 422.622  12
   8  -1   2 1037.18 365.676  11
   8   1   2 1340.15 408.167  11
   8   1   2 1328.03 344.494   7
   8   1   2 1714.49 525.695   9
   8  -1   2 1438.69 364.210   9
   8   1   2 1213.69 360.167   8
   8  -1   2 1016.82 345.767   8
   8  -1   3 3127.44 523.673  12
   8  -1   3 2188.11 561.994  11
   8   1   3 2934.34 582.376  11
   8   1   3 3326.27 483.405   7
   8   1   3 3221.04 659.260   9
   8  -1   3 2833.38 449.804   9
   8   1   3 3092.37 524.621   8
   8  -1   3 3431.88 564.130   8
   8  -1   4 1668.33 390.535  12
   8  -1   4 1711.36 477.396  11
   8   1   4 1551.94 432.455  11
   8   1   4 1225.84 320.857   7
   8   1   4 1085.15 551.454   9
   8  -1   4 1190.65 332.111   9
   8   1   4 1932.49 417.920   8
   8  -1   4 1917.64 419.253   8
   8  -1   5 397.915 278.346  12
   8  -1   5 69.2363 239.858  11
   8   1   5 216.524 236.785  11
   8   1   5 321.452 244.947   7
   8   1   5 181.545 624.788   9
   8  -1   5 70.5926 188.852   9
   8   1   5 391.997 290.074   8
   8  -1   5-103.633 209.145   8
   8  -1   6 5666.31 619.346  12
   8   1   6 7059.05 690.671   7
   8  -1   6 6539.97 832.658  11
   8   1   6 6047.41 748.013  11
   8   1   6 6585.44 687.607   8
   8  -1   6 6821.78 724.734   8
   8  -1   7 281.353 258.220  12
   8  -1   7-69.7844 340.545  11
   8   1   7-10.1734 225.696  11
   8   1   7 21.3738 168.021   7
   8   1   7-101.225 186.413   8
   8  -1   7 597.989 312.020   8
   8  -1   8 5583.88 679.982  12
   8  -1   8 5022.68 748.659  11
   8   1   8 5013.71 695.121  11
   8   1   8 4034.83 525.164   7
   8   1   8 4459.68 591.816   8
   8  -1   8 4815.28 618.331   8
   8  -1   9 17486.9 1124.24  12
   8   1   9 16060.3 1064.88   7
   8  -1   9 17670.7 1333.66  11
   8   1   9 16722.0 1254.23  11
   8   1   9 16032.1 1097.36   8
   8  -1   9 16702.0 1160.59   8
   8  -1  10 59840.9 2004.82  12
   8   1  10 56627.3 1979.93   7
   8  -1  10 62904.2 2480.78  11
   8   1  10 61537.6 2368.01  11
   8   1  10 59513.3 2051.90   8
   8  -1  10 58631.0 2099.67   8
   8  -1  11 2438.32 478.611  12
   8  -1  11 2138.34 458.761  11
   8   1  11 2760.11 556.026  11
   8   1  11 2276.04 415.737   7
   8   1  11 2329.03 428.124   8
   8  -1  11 2519.24 480.214   8
   8  -1  12 636.997 285.755  12
   8  -1  12 235.441 226.664  11
   8   1  12 541.450 260.065  11
   8  -1  12 115.048 179.933   7
   8   1  12 294.637 222.179   7
   8   1  12 527.879 242.534   8
   8  -1  12 412.515 253.649   8
   8  -1  13 7081.93 688.755  12
   8  -1  13 6222.99 632.028   7
   8   1  13 6861.88 721.812   7
   8  -1  13 6540.26 794.242  11
   8   1  13 6478.22 730.438  11
   8   1  13 6956.30 701.292   8
   8  -1  13 7104.15 724.273   8
   8  -1  14 50095.9 1788.34  12
   8  -1  14 46875.1 1721.96   7
   8   1  14 49906.2 1885.48   7
   8  -1  14 51893.3 2160.54  11
   8   1  14 51654.8 2082.70  11
   8   1  14 49660.3 1768.80   8
   8  -1  14 49266.1 1858.79   8
   8  -1  15 47549.8 1715.46  12
   8  -1  15 45767.0 1706.83   7
   8   1  15 46750.6 1824.21   7
   8  -1  15 47871.0 2046.55  11
   8   1  15 47733.7 1969.13  11
   8   1  15 49169.5 1735.87   8
   8  -1  15 48669.5 1814.79   8
   8  -1  16 2911.30 439.097  12
   8  -1  16 3057.44 507.710  11
   8   1  16 3819.07 571.780  11
   8  -1  16 3271.81 504.738   7
   8   1  16 3255.69 492.461   7
   8  -1  16 2830.12 434.341   8
   8  -1  17 411.267 227.174  12
   8  -1  17-38.5461 193.600  11
   8   1  17 539.591 250.731  11
   8  -1  17 526.354 281.093   7
   8   1  17 382.480 201.516   7
   8  -1  17 503.577 245.454   8
   8  -1  18 2558.73 393.407  12
   8  -1  18 2879.67 490.864  11
   8   1  18 2987.68 484.581  11
   8  -1  18 2712.05 446.024   7
   8   1  18 2854.92 465.422   7
   8  -1  18 2908.48 457.756   8
   8  -1  19 3.66072 161.362  12
   8  -1  19 350.370 241.758  11
   8  -1  19-145.270 234.961   7
   8   1  19 405.301 251.468   7
   8  -1  19 51.8225 163.625   8
   8  -1  20 1810.01 322.299  12
   8  -1  20 2226.76 372.920   7
   8   1  20 2158.56 388.917   7
   8  -1  20 1812.07 295.328   8
   8  -1  21 3213.70 403.803  12
   8  -1  21 3389.73 457.875   7
   8   1  21 3686.94 506.389   7
   8  -1  21 3604.72 413.558   8
   8  -1  22 410.300 177.319  12
   8  -1  22 706.024 248.568   7
   8   1  22 488.470 252.390   7
   8  -1  23 1771.11 280.857  12
   8  -1  23 2132.50 349.951   7
   8   1  23 1795.22 365.471   7
   8  -1  24 208.017 147.592  12
   8  -1  24 408.297 236.965   7
   8   1  24 173.664 213.813   7
   8  -1  25 509.649 202.376   7
   8   1  25 620.422 226.436   7
   8  -1  26 1291.24 257.510   7
   8   1  26 1321.89 315.053   7
   8  -1  27 143.111 132.438   7
   8   1  27 193.974 149.415   7
   8  -1  28 549.786 182.996   7
   8   1  28 523.182 178.270   7
   8  -1  29 2915.36 317.634   7
   8   1  29 3549.74 374.837   7
   8  -1  30 1667.92 221.750   7
   8   1  30 1510.52 252.501   7
   8  -2 -35 118.223 121.427  15
   8   2 -34 1180.68 243.928  15
   8  -2 -34 1287.69 264.874  15
   8   2 -33 3913.27 447.545  15
   8  -2 -33 3661.81 447.292  15
   8   2 -32 808.834 271.557  15
   8  -2 -32 999.269 320.547  15
   8   2 -31 7854.89 671.186  15
   8  -2 -31 9074.07 770.649  15
   8   2 -30 89.1449 172.813  15
   8  -2 -30 327.634 226.530  15
   8   2 -29 30824.6 1432.39  15
   8  -2 -29 31453.0 1524.01  15
   8   2 -28 931.353 317.860  15
   8  -2 -28 719.290 372.598  15
   8   2 -27 27500.1 1434.66  15
   8  -2 -27 29488.4 1557.52  15
   8  -2 -26 836.012 249.176   9
   8   2 -26 353.879 213.308  15
   8  -2 -26 295.428 231.102  15
   8  -2 -25 5012.96 546.490   9
   8  -2 -25 6006.72 766.938  15
   8   2 -25 5567.98 677.979  15
   8  -2 -24 6003.70 591.995   9
   8   2 -24 6724.11 779.588  15
   8  -2 -24 6735.96 819.927  15
   8   2 -23 1652.32 420.687  15
   8  -2 -23 1484.03 362.310   9
   8  -2 -23 1497.10 388.061  15
   8  -2 -22 29766.3 1423.72   9
   8   2 -22 32946.6 1752.78  15
   8  -2 -22 33642.2 1800.86  15
   8  -2 -21 12802.9 939.981   9
   8   2 -21 12977.2 1109.94  15
   8  -2 -21 12736.5 1117.70  15
   8  -2 -20 7300.94 763.207   9
   8   2 -20 6717.21 808.134  15
   8  -2 -20 6797.91 830.394  15
   8   2 -19 1758.25 474.724  15
   8  -2 -19 840.181 297.576   9
   8  -2 -19 1245.75 422.621  15
   8   2 -18 978.697 453.333  15
   8  -2 -18 479.524 329.540   9
   8  -2 -18 1069.58 349.911  15
   8  -2 -17 49772.4 1975.43   9
   8   2 -17 46104.3 2107.99  15
   8  -2 -17 48898.8 2185.82  15
   8  -2 -16 26699.1 1481.05   9
   8   2 -16 23500.3 1521.85  15
   8  -2 -16 24772.8 1561.47  15
   8   2 -15 48682.8 1881.53  11
   8  -2 -15 50763.9 2031.78   9
   8   2 -15 46831.7 2148.87  15
   8  -2 -15 46853.4 2150.80  15
   8   2 -14-312.076 228.341  11
   8   2 -14-152.330 1181.86   9
   8   2 -14 363.022 330.413  15
   8  -2 -14 438.128 332.055   9
   8  -2 -14-445.229 269.479  15
   8   2 -13 6249.25 710.883  11
   8  -2 -13 6310.21 764.724   9
   8   2 -13 6124.72 763.314  15
   8  -2 -13 5557.69 724.311  15
   8   2 -13 8308.10 1341.76   9
   8  -2 -12 977.553 297.109  11
   8   2 -12 1335.12 381.798  11
   8   2 -12 1587.03 500.713  15
   8  -2 -12 527.112 275.387  15
   8  -2 -12 902.795 375.374   9
   8  -2 -11 7582.98 874.579  11
   8   2 -11 8598.02 830.996  11
   8  -2 -11 9518.69 929.646   9
   8   2 -11 8228.04 891.061  15
   8  -2 -11 8038.41 854.758  15
   8   2 -11 10971.5 1525.05   9
   8  -2 -11 8680.26 728.985   8
   8  -2 -10 710.542 333.927  11
   8   2 -10 530.006 257.198  11
   8   2 -10 1486.04 439.416  15
   8  -2 -10 1294.79 382.355  15
   8  -2 -10 1256.89 378.048   9
   8  -2 -10 1142.86 321.553   8
   8  -2  -9 4002.98 586.846  11
   8   2  -9 4171.90 605.013  11
   8   2  -9 4067.23 1345.84   9
   8   2  -9 3871.10 605.327  15
   8  -2  -9 3372.48 576.461  15
   8  -2  -9 4347.46 608.315   9
   8  -2  -9 4277.79 557.800   8
   8  -2  -8 391.800 257.372  11
   8   2  -8 12.7441 197.706  11
   8   2  -8 18.2742 203.227  15
   8  -2  -8 373.183 334.881   9
   8  -2  -8 162.575 172.033   8
   8  -2  -7-65.4233 300.351  11
   8   2  -7 930.300 369.393  11
   8   2  -7 346.159 239.481  15
   8  -2  -7 831.670 330.216   9
   8  -2  -7 147.484 184.813   8
   8  -2  -6 5496.75 780.380  11
   8   2  -6 5449.46 743.280  11
   8  -2  -6 6053.29 745.172   9
   8   2  -6 5504.46 701.187  15
   8  -2  -6 6172.38 658.203   8
   8  -2  -5 4338.05 713.910  11
   8   2  -5 4671.80 689.179  11
   8   2  -5 4054.88 602.511  15
   8  -2  -5 4440.90 637.898   9
   8  -2  -5 4455.21 573.759   8
   8  -2  -4 162.999 213.535  11
   8   2  -4 626.766 344.481  11
   8   2  -4 189.242 159.266   7
   8   2  -4 626.805 1117.70   9
   8   2  -4 338.754 261.168  15
   8  -2  -4 176.812 294.377   9
   8  -2  -4 35.0469 216.321   8
   8  -2  -3 546.289 404.216  12
   8  -2  -3 590.892 312.086  11
   8   2  -3 322.353 291.614  11
   8   2  -3 853.769 324.317   7
   8   2  -3 484.108 326.657  15
   8  -2  -3 293.659 260.697   9
   8  -2  -3 720.863 362.830   8
   8  -2  -2 6711.78 724.328  12
   8   2  -2 6439.13 636.348   7
   8  -2  -2 6292.54 842.680  11
   8   2  -2 6669.85 812.946  11
   8  -2  -2 5573.02 698.666   9
   8  -2  -2 6430.93 718.348   8
   8  -2  -1 8287.47 848.095  12
   8   2  -1 6966.22 673.606   7
   8  -2  -1 6324.48 863.403  11
   8   2  -1 6604.65 802.869  11
   8  -2  -1 5965.56 726.114   9
   8  -2  -1 7045.45 762.701   8
   8  -2   0 7335.60 805.382  12
   8   2   0 4924.13 593.625   7
   8   2   0 5152.44 764.468  11
   8  -2   0 4261.79 722.332  11
   8  -2   0 4708.32 666.346   9
   8  -2   0 4757.62 651.292   8
   8  -2   1 9769.59 871.685  12
   8   2   1 9856.62 790.878   7
   8  -2   1 8343.30 965.454  11
   8   2   1 9022.06 946.083  11
   8  -2   1 8955.20 844.757   9
   8  -2   1 9895.41 877.189   8
   8  -2   2 3256.42 563.192  12
   8  -2   2 1805.35 527.385  11
   8   2   2 2035.91 473.764  11
   8   2   2 2766.95 436.761   7
   8  -2   2 2163.55 466.582   9
   8  -2   2 2717.55 476.573   8
   8  -2   3 562.348 441.905  11
   8   2   3 822.158 534.649  11
   8   2   3 762.205 370.374   7
   8  -2   3 677.540 318.727   9
   8  -2   3 899.191 434.750   8
   8  -2   4 26156.8 1363.01  12
   8   2   4 21565.0 1199.08   7
   8  -2   4 23289.8 1560.67  11
   8   2   4 22766.5 1492.86  11
   8  -2   4 20195.0 1213.11   9
   8  -2   4 22240.8 1330.63   8
   8   2   5 15772.8 1039.59   7
   8  -2   5 15162.5 1314.27  11
   8   2   5 16610.3 1269.41  11
   8  -2   5 13989.4 986.437   9
   8  -2   5 16095.6 1141.56   8
   8  -2   6 23797.5 1282.83  12
   8   2   6 21256.4 1196.03   7
   8  -2   6 21942.4 1510.50  11
   8   2   6 22159.4 1445.61  11
   8  -2   6 20514.2 1165.84   9
   8  -2   6 21904.3 1305.81   8
   8  -2   7 5750.03 672.737  12
   8   2   7 4496.62 559.106   7
   8  -2   7 4517.75 702.198  11
   8   2   7 4574.69 682.464  11
   8  -2   7 4638.87 651.536   8
   8  -2   8 563.133 330.602  12
   8  -2   8 679.302 436.343  11
   8   2   8-306.790 320.143  11
   8   2   8 750.303 280.619   7
   8  -2   8 659.968 319.230   8
   8  -2   9 4271.20 571.520  12
   8   2   9 4933.73 599.915   7
   8  -2   9 4629.45 717.369  11
   8   2   9 4276.11 645.991  11
   8  -2   9 4691.63 649.966   8
   8  -2  10 10288.5 842.692  12
   8   2  10 10248.1 853.233   7
   8  -2  10 10501.9 1018.85  11
   8   2  10 10663.7 966.287  11
   8  -2  10 9996.19 889.829   8
   8  -2  11 343.583 226.494  12
   8  -2  11 428.085 308.564  11
   8   2  11 373.499 284.942  11
   8   2  11 520.582 250.631   7
   8  -2  11 762.075 299.850   8
   8  -2  12 69.8241 179.508  12
   8  -2  12 254.731 232.289  11
   8   2  12 477.044 250.672  11
   8   2  12 653.616 261.873   7
   8  -2  12 680.802 334.018   8
   8  -2  13 191.865 228.779  12
   8  -2  13 427.767 279.264  11
   8   2  13-11.6291 238.443  11
   8   2  13 194.636 198.872   7
   8  -2  13-300.279 252.803   8
   8  -2  14 4744.59 586.811  12
   8  -2  14 4456.93 651.997  11
   8   2  14 4332.07 586.072  11
   8   2  14 4254.29 548.342   7
   8  -2  14 4805.19 593.852   8
   8  -2  15 1885.81 370.744  12
   8  -2  15 1559.59 409.211  11
   8   2  15 1249.50 321.177  11
   8   2  15 1730.26 415.889   7
   8  -2  15 1822.70 385.209   8
   8  -2  16 4828.47 549.638  12
   8   2  16 4621.29 568.358   7
   8  -2  16 4654.83 647.905  11
   8   2  16 4619.79 602.216  11
   8  -2  16 4584.32 548.782   8
   8  -2  17 2398.72 408.722  12
   8  -2  17 2193.16 458.042  11
   8   2  17 3164.94 512.197  11
   8   2  17 2443.85 420.160   7
   8  -2  17 2576.56 414.924   8
   8  -2  18-40.0773 181.444  12
   8  -2  18 251.665 170.176   7
   8   2  18 35.7116 154.677  11
   8   2  18 146.697 180.313   7
   8  -2  18 64.0382 155.029   8
   8  -2  19 526.966 245.920  12
   8  -2  19 766.907 227.669   7
   8   2  19 839.483 320.747   7
   8  -2  19 1116.77 283.870   8
   8  -2  20 681.201 235.217  12
   8  -2  20 69.1174 143.530   7
   8   2  20 466.672 283.711   7
   8  -2  20 194.928 135.527   8
   8  -2  21 466.402 157.440  12
   8  -2  21 387.284 151.006   7
   8   2  21 478.518 208.854   7
   8  -2  21 20.3674 136.778   8
   8  -2  22 1132.56 271.563  12
   8  -2  22 1565.89 294.307   7
   8   2  22 1733.13 382.109   7
   8  -2  22 1474.28 275.760   8
   8  -2  23 3775.65 403.337  12
   8  -2  23 3833.26 418.148   7
   8   2  23 3933.98 464.041   7
   8  -2  24 6759.93 531.570  12
   8  -2  24 6296.72 504.682   7
   8   2  24 6381.46 600.958   7
   8  -2  25 7226.80 509.734  12
   8  -2  25 7127.70 515.843   7
   8  -2  26 1310.05 231.006  12
   8  -2  26 1272.29 228.524   7
   8   2  26 1370.21 274.870   7
   8  -2  27 3272.84 306.856  12
   8  -2  27 2716.24 299.867   7
   8   2  27 3236.50 360.415   7
   8   2  28 365.557 155.413   7
   8   2  29 8522.05 517.020   7
   8  -3 -33 14263.4 771.794  15
   8   3 -32 906.113 219.789  15
   8  -3 -32 1033.49 251.253  15
   8   3 -31 10065.1 670.043  15
   8  -3 -31 11414.1 777.076  15
   8   3 -30 545.450 223.869  15
   8  -3 -30 493.482 218.978  15
   8   3 -29 8204.41 661.080  15
   8  -3 -29 8351.28 717.102  15
   8   3 -28 47.6539 185.314  15
   8  -3 -28 348.706 276.268  15
   8   3 -27 1979.20 400.309  15
   8  -3 -27 1875.89 406.256  15
   8   3 -26 310.242 251.300  15
   8  -3 -26 59.4593 196.897  15
   8  -3 -25 6034.01 527.772   9
   8   3 -25 6154.78 652.033  15
   8  -3 -25 6261.36 726.159  15
   8   3 -24 3181.17 491.601  15
   8  -3 -24 2894.75 398.468   9
   8  -3 -24 3216.00 514.225  15
   8   3 -23 2794.50 539.697  15
   8  -3 -23 2979.56 430.824   9
   8  -3 -23 2547.84 473.284  15
   8   3 -22 1242.87 385.918  15
   8  -3 -22 1130.65 289.415   9
   8  -3 -22 1264.06 369.942  15
   8   3 -21 133.015 218.203  15
   8  -3 -21 193.091 188.185   9
   8  -3 -21 283.313 263.363  15
   8  -3 -20 30124.0 1416.36   9
   8   3 -20 30736.6 1653.36  15
   8  -3 -20 31057.9 1664.62  15
   8  -3 -19 7136.85 728.259   9
   8   3 -19 6661.83 789.107  15
   8  -3 -19 7084.03 812.192  15
   8  -3 -18 12989.6 963.495   9
   8   3 -18 12199.8 1039.40  15
   8  -3 -18 12664.6 1082.50  15
   8   3 -17 605.810 405.247  15
   8  -3 -17 1111.23 344.824   9
   8  -3 -17 377.586 223.755  15
   8  -3 -16 30285.8 1543.80   9
   8   3 -16 27337.6 1598.37  15
   8  -3 -16 26390.9 1575.39  15
   8   3 -15 882.027 243.049  11
   8   3 -15 1110.75 338.143  15
   8  -3 -15 1088.93 367.891   9
   8  -3 -15 1009.88 412.545  15
   8   3 -14-326.532 214.818  11
   8   3 -14 270.452 304.008  15
   8  -3 -14-221.099 254.281  15
   8  -3 -14 332.002 266.538   9
   8   3 -13-217.442 232.126  11
   8   3 -13 17.8461 214.132  15
   8  -3 -13 122.844 233.571  15
   8  -3 -13-195.911 245.587   9
   8   3 -12 1502.82 407.618  11
   8   3 -12 1728.64 603.461  15
   8  -3 -12 289.595 230.841  15
   8  -3 -12 1641.04 568.213   9
   8   3 -11 33342.8 1650.16  11
   8  -3 -11 35385.3 1742.39   9
   8   3 -11 32030.3 1753.69  15
   8   3 -10 11279.7 824.810   7
   8   3 -10 11626.8 1002.31  11
   8  -3 -10 13521.6 1153.36   9
   8   3 -10 12255.4 1129.37  15
   8  -3 -10 9093.17 887.942  15
   8   3  -9 28770.8 1302.17   7
   8   3  -9 26446.9 1527.18  11
   8  -3  -9 30321.9 1631.18   9
   8   3  -9 27559.2 1609.09  15
   8  -3  -9 24174.0 1225.61   8
   8  -3  -8 35512.6 1833.95  11
   8   3  -8 35367.0 1458.84   7
   8   3  -8 36778.3 1764.00  11
   8  -3  -8 40899.6 1848.66   9
   8   3  -8 34258.4 1752.20  15
   8  -3  -8 34938.7 1478.28   8
   8  -3  -7 1648.11 490.157  11
   8   3  -7 1721.18 462.006  11
   8   3  -7 1589.59 408.595   7
   8   3  -7 1464.07 442.297  15
   8  -3  -7 2731.83 642.977   9
   8  -3  -7 1449.86 372.691   8
   8  -3  -6 2341.33 531.830  11
   8   3  -6 2224.49 447.810  11
   8   3  -6 3055.54 441.824   7
   8   3  -6 2968.30 535.784  15
   8  -3  -6 2782.16 529.177   9
   8  -3  -6 2736.69 466.242   8
   8  -3  -5 175.386 331.872  11
   8   3  -5 1092.67 439.511  11
   8   3  -5 1144.51 374.623   7
   8   3  -5 950.905 412.113  15
   8  -3  -5 692.843 360.291   9
   8  -3  -5 175.832 183.144   8
   8  -3  -4 8531.58 972.070  11
   8   3  -4 10506.8 819.660   7
   8   3  -4 9345.72 924.339  11
   8  -3  -4 10458.2 973.348   9
   8   3  -4 9561.53 908.462  15
   8  -3  -4 9227.75 805.161   8
   8   3  -3 5532.05 613.868   7
   8  -3  -3 4765.23 712.479  11
   8   3  -3 5333.51 709.996  11
   8  -3  -3 5616.71 726.827   9
   8   3  -3 4974.09 630.063  15
   8  -3  -3 5443.52 666.306   8
   8  -3  -2 746.375 403.989  11
   8   3  -2 1944.69 566.368  11
   8   3  -2 1844.40 454.101   7
   8   3  -2 681.493 343.294  15
   8  -3  -2 1366.42 509.462   9
   8  -3  -2 899.531 405.318   8
   8  -3  -1 13362.8 979.455  12
   8  -3  -1 11876.4 1138.33  11
   8   3  -1 14225.9 958.044   7
   8   3  -1 13540.6 1131.71  11
   8  -3  -1 12870.4 1027.83   9
   8   3  -1 12114.9 973.307  15
   8  -3  -1 13229.9 1000.95   8
   8  -3   0 7363.27 915.959  12
   8   3   0 6043.29 752.928   7
   8   3   0 4191.23 780.138  11
   8  -3   0 2269.55 652.683  11
   8  -3   0 3382.14 685.827   9
   8  -3   0 3258.78 638.924   8
   8  -3   1 41561.9 1702.05  12
   8  -3   1 39998.8 2031.42  11
   8   3   1 43061.5 1668.71   7
   8   3   1 42534.6 1962.22  11
   8  -3   1 39284.6 1744.11   9
   8  -3   1 42479.4 1778.98   8
   8   3   2 4639.61 988.418  11
   8  -3   2 3598.04 808.375  11
   8  -3   2 2722.53 657.191   9
   8  -3   2 4717.54 753.106   8
   8  -3   3 65887.8 2122.72  12
   8  -3   3 63740.4 2538.78  11
   8   3   3 62675.7 2029.28   7
   8   3   3 64080.7 2413.69  11
   8  -3   3 58443.4 2066.35   9
   8  -3   3 62933.7 2171.17   8
   8  -3   4 958.380 520.220  11
   8   3   4 479.697 315.368  11
   8   3   4 484.660 344.583   7
   8  -3   4 479.653 374.392   9
   8  -3   4 1914.42 528.499   8
   8   3   5 7652.16 729.837   7
   8  -3   5 6501.02 880.867  11
   8   3   5 7179.64 901.734  11
   8  -3   5 5728.98 662.939   9
   8  -3   5 6628.36 748.051   8
   8  -3   6 23599.7 1287.00  12
   8   3   6 21250.8 1204.81   7
   8  -3   6 22873.2 1514.70  11
   8   3   6 21623.9 1418.18  11
   8  -3   6 19694.2 1159.07   9
   8  -3   6 21166.3 1277.57   8
   8  -3   7 1001.24 476.275  11
   8   3   7 730.299 409.837  11
   8   3   7 1284.02 454.544   7
   8  -3   7 767.512 369.448   8
   8  -3   8 29825.6 1405.02  12
   8   3   8 27340.0 1351.40   7
   8  -3   8 27427.5 1664.61  11
   8   3   8 26731.6 1518.81  11
   8  -3   8 25922.5 1396.33   8
   8  -3   9 6852.58 747.146  12
   8   3   9 6243.37 669.174   7
   8   3   9 6302.91 755.119  11
   8  -3   9 5001.37 674.640  11
   8  -3   9 5512.36 656.403   8
   8  -3  10 3996.54 534.604  12
   8   3  10 4481.02 626.486  11
   8   3  10 3615.71 525.254   7
   8  -3  10 3640.51 557.730   8
   8  -3  11 2079.09 464.100  12
   8   3  11 2017.55 449.192  11
   8   3  11 1400.47 343.575   7
   8  -3  11 1659.59 412.739   8
   8  -3  12 22571.4 1214.57  12
   8   3  12 21167.0 1177.68   7
   8   3  12 20668.1 1275.46  11
   8  -3  12 20213.3 1179.60   8
   8  -3  13 3141.00 502.357  12
   8   3  13 2482.28 420.422  11
   8   3  13 2602.46 460.675   7
   8  -3  13 2311.11 412.111   8
   8  -3  14 8325.49 722.174  12
   8   3  14 8009.69 729.986   7
   8   3  14 7928.25 751.209  11
   8  -3  14 7608.13 708.416   8
   8  -3  15 4151.80 518.278  12
   8   3  15 3885.04 506.667  11
   8   3  15 3552.19 495.808   7
   8  -3  15 3370.51 453.847   8
   8  -3  16 6197.58 610.995  12
   8   3  16 6239.86 631.655   7
   8   3  16 5515.25 587.067  11
   8  -3  16 5757.81 593.379   8
   8  -3  17 4390.08 507.101  12
   8   3  17 5183.59 581.807   7
   8   3  17 4655.22 514.097  11
   8  -3  17 5373.14 573.456   8
   8  -3  18 361.855 242.128  12
   8   3  18 323.587 254.815   7
   8  -3  18 178.115 216.170   8
   8  -3  19 935.408 280.101  12
   8   3  19 1043.89 263.300   7
   8  -3  19 718.387 216.302   8
   8  -3  20 74.5825 161.990  12
   8   3  20 126.544 163.848   7
   8  -3  20 77.7065 170.253   8
   8  -3  21 688.066 167.933  12
   8   3  21 475.462 190.795   7
   8  -3  21 731.961 220.698   8
   8  -3  22 834.916 243.746  12
   8   3  22 710.044 237.472   7
   8  -3  22 553.690 187.226   8
   8  -3  23 21.9387 123.025  12
   8   3  23-179.755 164.705   7
   8  -3  23-3.86312 112.454   8
   8  -3  24 989.567 214.174  12
   8   3  24 1184.47 266.193   7
   8  -3  25 580.986 156.744  12
   8   3  25 591.630 186.783   7
   8  -3  26-39.9984 118.959  12
   8   3  26 163.021 131.736   7
  -8  -4  30 770.940 158.853  10
   8  -4 -30 593.910 194.803  15
  -8  -4  29 168.507 122.869  10
   8   4 -29 253.160 151.193  15
   8  -4 -29 15.1196 140.291  15
  -8  -4  28-34.4836 132.636  10
   8  -4 -28-223.101 182.841  15
  -8  -4  27 7827.43 553.692  10
   8   4 -27 7280.36 584.503  15
   8  -4 -27 7402.42 642.599  15
  -8  -4  26 1229.47 238.541  10
   8   4 -26 1250.06 265.036  15
   8  -4 -26 1584.89 354.391  15
  -8  -4  25 1812.87 319.006  10
   8   4 -25 1245.93 317.126  15
   8  -4 -25 1026.37 286.433  15
  -8  -4  24 3885.27 424.113  10
   8  -4 -24 3327.47 371.045   9
   8   4 -24 3497.56 479.540  15
   8  -4 -24 3502.22 492.368  15
  -8  -4  23 467.122 228.052  10
   8   4 -23 132.862 181.249  15
   8  -4 -23 239.592 138.415   9
   8  -4 -23 384.895 242.742  15
  -8  -4  22 439.216 198.235  10
   8   4 -22 747.757 267.915  15
   8  -4 -22 524.120 232.419   9
   8  -4 -22 781.170 299.966  15
  -8  -4  21 857.277 233.646  10
   8   4 -21 310.065 191.931  15
   8  -4 -21 424.010 183.226   9
   8  -4 -21 510.412 263.370  15
  -8  -4  20 152.978 169.015  10
   8   4 -20 369.737 266.177  15
   8  -4 -20 4.38436 195.456   9
   8  -4 -20 55.2738 197.810  15
  -8  -4  19-67.3516 164.909  10
   8   4 -19 186.376 250.475  15
   8  -4 -19 368.322 221.885   9
   8  -4 -19 81.8369 222.410  15
  -8  -4  18 428.989 219.151  10
   8   4 -18 464.964 282.909  15
   8  -4 -18 863.318 311.962   9
   8  -4 -18 309.597 225.692  15
  -8  -4  17 1510.93 336.336  10
   8   4 -17 1109.39 293.133  15
   8  -4 -17 1343.86 319.410   9
   8  -4 -17 1219.46 286.466  15
  -8  -4  16 1557.65 331.079  10
   8   4 -16 705.465 265.142  15
   8  -4 -16 1404.51 391.507  15
   8  -4 -16 1445.61 371.176   9
   8   4 -15 1006.69 288.395  11
   8   4 -15 1381.06 274.621   7
  -8  -4  15 1433.79 296.076  10
   8   4 -15 659.771 279.359  15
   8  -4 -15 923.614 352.018  15
   8  -4 -15 1334.17 392.971   9
   8   4 -14 2230.39 400.526  11
   8   4 -14 2231.87 355.642   7
  -8  -4  14 2009.75 337.003  10
   8   4 -14 2160.94 456.237  15
   8  -4 -14 1901.39 399.680  15
   8  -4 -14 1943.80 433.078   9
   8   4 -13 8141.19 653.615   7
   8   4 -13 7785.94 720.108  11
  -8  -4  13 8793.01 706.164  10
   8  -4 -13 8655.63 816.940   9
   8   4 -13 8458.82 834.186  15
   8  -4 -13 6379.89 697.516  15
   8   4 -12 2844.14 448.334  11
   8   4 -12 2960.55 419.988   7
  -8  -4  12 3192.66 433.847  10
   8   4 -12 3007.61 489.868  15
   8  -4 -12 2293.41 432.373  15
   8  -4 -12 2844.49 487.202   9
   8   4 -11 1082.36 366.520  11
   8   4 -11 938.042 300.769   7
   8   4 -11 1115.51 380.777  15
   8  -4 -11 586.320 390.278   9
   8   4 -10 14496.2 896.011   7
   8   4 -10 14872.9 1071.92  11
   8  -4 -10 15842.9 1117.29   9
   8   4 -10 15310.2 1140.89  15
   8   4  -9 1183.59 420.458  11
   8   4  -9 2146.20 444.981   7
   8   4  -9 1814.47 521.505  15
   8  -4  -9 1622.57 554.538   9
   8   4  -8 24711.2 1190.68   7
   8   4  -8 26172.4 1427.71  11
   8  -4  -8 28076.8 1487.44   9
   8   4  -8 24484.6 1429.30  15
   8   4  -7 626.788 398.773  11
   8   4  -7 1684.00 424.088   7
   8   4  -7 828.214 417.604  15
   8  -4  -7 1823.68 523.432   9
   8  -4  -7 113.350 202.303   8
   8   4  -6 10174.4 789.935   7
   8   4  -6 11732.5 972.451  11
   8  -4  -6 11648.4 965.652   9
   8   4  -6 10879.9 964.894  15
   8  -4  -6 10466.8 782.031   8
   8   4  -5 2943.93 531.111   7
   8   4  -5 2761.49 574.964  11
   8   4  -5 2583.67 611.452  15
   8  -4  -5 2729.36 553.812   9
   8  -4  -5 1095.52 330.913   8
   8   4  -4 16857.0 1010.17   7
   8   4  -4 17397.2 1213.90  11
   8  -4  -4 15741.1 1118.69   9
   8   4  -4 17236.4 1175.32  15
   8  -4  -4 14460.0 944.966   8
   8   4  -3 13212.3 1150.26  11
   8  -4  -3 13070.9 1087.75   9
   8   4  -3 11130.6 1002.19  15
   8  -4  -3 10153.5 851.788   8
   8   4  -2 57863.8 1873.67   7
   8   4  -2 54938.0 2145.57  11
   8  -4  -2 52985.9 2011.19   9
   8   4  -2 54373.6 2024.43  15
   8  -4  -2 50754.6 1802.40   8
   8   4  -1 24035.8 1240.34   7
   8   4  -1 19772.6 1320.04  11
   8  -4  -1 23995.9 1343.65   9
   8   4  -1 18558.7 1170.44  15
   8  -4  -1 22541.1 1217.85   8
   8  -4   0 6615.30 1006.52  12
   8   4   0 5353.66 725.447   7
   8   4   0 4539.51 760.224  11
   8  -4   0 4633.72 695.081   9
   8   4   0 3258.59 558.626  15
   8  -4   0 3660.39 574.425   8
   8  -4   1 32755.3 1433.05  12
   8   4   1 34310.0 1462.04   7
   8   4   1 33512.0 1674.53  11
   8  -4   1 30095.5 1470.20   9
   8   4   1 28070.4 1363.01  15
   8  -4   1 30360.6 1410.75   8
   8  -4   2 10235.5 867.888  12
   8   4   2 10514.6 851.098   7
   8   4   2 8091.10 859.259  11
   8  -4   2 9325.41 849.118   9
   8  -4   2 8621.30 797.922   8
   8  -4   3 5245.29 600.645  12
   8   4   3 4646.17 576.370   7
   8   4   3 5062.42 687.762  11
   8  -4   3 4273.99 565.291   9
   8  -4   3 4017.92 530.640   8
   8  -4   4 1149.08 334.432  12
   8   4   4 897.341 365.365  11
   8   4   4 873.822 311.328   7
   8  -4   4 700.382 239.607   9
   8  -4   4 1040.13 332.670   8
   8  -4   5-91.2702 174.466  12
   8   4   5-145.045 243.307  11
   8   4   5 243.730 217.278   7
   8  -4   5-1.71435 190.981   9
   8  -4   5-39.0533 221.534   8
   8  -4   6 980.674 296.430  12
   8   4   6 799.332 302.223  11
   8   4   6 837.433 268.351   7
   8  -4   6 828.133 285.468   9
   8  -4   6 871.140 248.262   8
   8  -4   7 2801.17 437.670  12
   8   4   7 1798.90 428.971  11
   8   4   7 2348.86 413.286   7
   8  -4   7 2356.59 440.109   8
   8  -4   8 875.971 269.377  12
   8   4   8 718.546 333.600  11
   8   4   8 619.637 276.734   7
   8  -4   8 667.122 294.255   8
   8  -4   9 2535.32 391.875  12
   8   4   9 2900.94 488.654  11
   8   4   9 3398.48 449.818   7
   8  -4   9 2532.73 432.303   8
   8  -4  10 1837.02 350.821  12
   8   4  10 2027.83 410.010  11
   8   4  10 1372.89 320.312   7
   8  -4  10 1344.12 339.596   8
   8  -4  11 235.478 181.785  12
   8   4  11 341.323 217.718  11
   8   4  11 721.972 260.544   7
   8  -4  11 801.185 284.169   8
   8  -4  12 2893.72 399.374  12
   8   4  12 2981.52 445.342  11
   8   4  12 3745.88 461.930   7
   8  -4  12 3480.27 495.829   8
   8  -4  13 311.767 172.900  12
   8   4  13-195.061 225.417  11
   8   4  13 500.793 210.594   7
   8  -4  13-10.2002 166.505   8
   8  -4  14 3930.98 460.914  12
   8   4  14 4856.12 554.397   7
   8   4  14 3653.90 463.352  11
   8  -4  14 4043.15 499.583   8
   8  -4  15 965.509 251.697  12
   8   4  15 975.431 264.422  11
   8   4  15 888.644 252.042   7
   8  -4  15 733.085 206.434   8
   8  -4  16 9336.61 672.789  12
   8   4  16 9633.68 700.300   7
   8   4  16 9042.48 623.693  11
   8  -4  16 9964.28 710.075   8
   8  -4  17 7684.49 588.528  12
   8   4  17 8355.48 656.635   7
   8  -4  17 8487.52 638.883   8
   8  -4  18 2566.88 347.013  12
   8   4  18 2883.12 388.263   7
   8  -4  18 2737.98 362.657   8
   8  -4  19 766.936 255.661  12
   8   4  19 706.751 199.312   7
   8  -4  19 361.531 167.489   8
   8  -4  20 7324.05 525.791  12
   8   4  20 8041.10 564.733   7
   8  -4  20 7159.13 513.540   8
   8  -4  21 1716.44 275.158  12
   8   4  21 1585.23 260.975   7
   8  -4  21 1300.88 207.408   8
   8  -4  22 3483.33 334.684  12
   8   4  22 3684.32 362.952   7
   8  -4  23 1150.46 199.792  12
   8   4  23 1620.36 242.145   7
  -8  -5  24 6972.17 444.676  10
   8   5 -24 6690.90 499.023  15
   8  -5 -24 5754.19 487.074  15
  -8  -5  23-32.7673 118.114  10
   8   5 -23 123.681 162.305  15
   8  -5 -23-120.592 137.065  15
  -8  -5  22 24.5371 131.486  10
   8   5 -22 298.214 190.869  15
   8  -5 -22 34.6040 131.511  15
  -8  -5  21 364.793 160.626  10
   8   5 -21 298.561 139.803  15
   8  -5 -21 321.923 132.805   9
   8  -5 -21 354.068 204.252  15
  -8  -5  20-80.2820 156.390  10
   8   5 -20 107.683 168.338  15
   8  -5 -20 202.431 132.268   9
   8  -5 -20 75.1271 153.120  15
  -8  -5  19 4374.12 418.120  10
   8  -5 -19 3685.78 404.064   9
   8   5 -19 4305.73 499.075  15
   8  -5 -19 3541.74 441.943  15
  -8  -5  18 176.958 129.304  10
   8   5 -18 73.7579 175.734  15
   8  -5 -18 347.743 177.160   9
   8  -5 -18 205.843 153.431  15
   8   5 -17 14972.3 717.605   7
  -8  -5  17 15073.0 773.635  10
   8  -5 -17 16262.2 889.814   9
   8   5 -17 14738.1 934.783  15
   8  -5 -17 12730.3 829.330  15
   8   5 -16 893.860 203.249   7
  -8  -5  16 1079.56 243.129  10
   8   5 -16 679.899 217.122  15
   8  -5 -16 546.361 186.028  15
   8  -5 -16 882.110 252.390   9
   8   5 -15 467.889 184.448  11
   8   5 -15 872.227 201.016   7
  -8  -5  15 815.526 231.216  10
   8   5 -15 234.307 179.161  15
   8  -5 -15 589.946 219.902  15
   8  -5 -15 850.172 249.307   9
   8   5 -14 586.252 230.142  11
   8   5 -14 348.221 150.055   7
  -8  -5  14 363.739 156.729  10
   8   5 -14 319.908 232.271  15
   8  -5 -14 598.171 244.671   9
   8   5 -13 2876.14 398.434  11
   8   5 -13 2923.28 356.922   7
  -8  -5  13 3806.33 424.751  10
   8   5 -13 2914.98 447.545  15
   8  -5 -13 3573.93 497.068   9
   8   5 -12 201.553 202.628  11
   8   5 -12 418.291 180.286   7
   8   5 -12 543.891 250.134  15
   8  -5 -12 174.412 251.693   9
   8   5 -11 8769.88 634.092   7
   8   5 -11 8993.28 734.424  11
   8  -5 -11 9351.88 778.161   9
   8   5 -11 8312.70 761.478  15
   8   5 -10 6334.08 559.162   7
   8   5 -10 5762.45 597.726  11
   8  -5 -10 7105.18 694.633   9
   8   5 -10 5172.83 586.529  15
   8   5  -9 4467.62 502.495   7
   8   5  -9 4137.20 553.125  11
   8  -5  -9 4736.58 630.929   9
   8   5  -9 4919.37 602.753  15
   8   5  -8 13721.2 823.499   7
   8   5  -8 12392.5 890.771  11
   8  -5  -8 14125.9 957.581   9
   8   5  -8 11726.8 887.856  15
   8   5  -7 1185.79 349.420  11
   8   5  -7 1983.70 404.508   7
   8   5  -7 931.664 347.169  15
   8  -5  -7 1784.73 457.398   9
   8   5  -6 7793.31 649.008   7
   8   5  -6 8033.48 753.612  11
   8  -5  -6 7048.82 698.094   9
   8   5  -6 6526.28 690.399  15
   8   5  -5 9162.27 712.120   7
   8   5  -5 9791.01 812.416  11
   8  -5  -5 9228.71 759.249   9
   8   5  -5 7848.57 740.151  15
   8   5  -4 2453.30 412.303  11
   8   5  -4 2897.53 426.800   7
   8   5  -4 1808.68 343.928  15
   8  -5  -4 2769.54 458.322   9
   8  -5  -4 2526.72 339.541   8
   8   5  -3 1764.25 409.114  11
   8   5  -3 2222.40 387.571   7
   8   5  -3 1115.52 323.447  15
   8  -5  -3 1399.35 387.424   9
   8   5  -2 10857.6 747.730   7
   8   5  -2 9834.09 809.915  11
   8  -5  -2 9454.79 782.243   9
   8  -5  -2 9490.33 673.540   8
   8   5  -1 848.723 300.454  11
   8   5  -1 890.457 347.739   7
   8  -5  -1 1059.95 327.636   9
   8  -5  -1 362.444 201.534   8
   8   5   0 3775.05 484.805   7
   8   5   0 3060.16 480.850  11
   8  -5   0 3166.38 476.556   9
   8  -5   0 2831.25 368.549   8
   8   5   1 1612.68 375.471  11
   8   5   1 1692.73 361.651   7
   8  -5   1 1169.06 275.159   9
   8  -5   1 1531.17 303.425   8
   8   5   2 215.143 245.854  11
   8   5   2 493.005 250.806   7
   8  -5   2 541.275 243.794   9
   8  -5   2 237.186 163.634   8
   8   5   3 5378.37 535.544   7
   8   5   3 4668.11 588.350  11
   8  -5   3 3713.80 464.560   9
   8  -5   3 3950.70 473.763   8
   8   5   4 6989.99 619.845   7
   8   5   4 6686.17 685.025  11
   8  -5   4 5899.42 554.701   9
   8  -5   4 5745.39 575.115   8
   8   5   5 531.487 229.622  11
   8   5   5 206.406 168.146   7
   8  -5   5 387.008 185.990   9
   8  -5   5 135.139 158.450   8
   8   5   6 2535.41 396.363  11
   8   5   6 2236.29 358.726   7
   8  -5   6 2059.51 320.720   9
   8  -5   6 2197.72 348.499   8
   8  -5   7 645.211 195.746  12
   8   5   7 758.125 261.567  11
   8   5   7 534.473 169.260   7
   8  -5   7 526.049 219.443   8
   8  -5   8 252.998 159.842  12
   8   5   8 237.142 185.976  11
   8   5   8 645.894 202.110   7
   8  -5   8 580.534 220.544   8
   8  -5   9 18.1101 127.335  12
   8   5   9 237.447 179.667  11
   8   5   9 357.769 193.171   7
   8  -5   9 20.0401 153.490   8
   8  -5  10 4343.36 429.093  12
   8   5  10 4739.31 461.558   7
   8   5  10 3762.59 447.337  11
   8  -5  10 3655.89 440.198   8
   8  -5  11 2650.35 346.290  12
   8   5  11 2541.75 355.954  11
   8   5  11 3156.14 379.028   7
   8  -5  11 2397.13 368.065   8
   8  -5  12 16800.3 792.856  12
   8   5  12 18582.3 879.137   7
   8   5  12 16370.2 830.669  11
   8  -5  12 17017.3 865.680   8
   8  -5  13 2985.88 336.584  12
   8   5  13 2638.11 328.138  11
   8   5  13 2682.05 346.266   7
   8  -5  13 2922.44 374.757   8
   8  -5  14 4943.95 416.562  12
   8   5  14 5539.46 461.373   7
   8  -5  14 5112.76 461.133   8
   8  -5  15 3869.41 361.802  12
   8   5  15 5237.74 435.224   7
   8  -5  15 4734.40 433.687   8
   8  -5  16 1666.09 233.323  12
   8   5  16 1441.06 243.288   7
   8  -5  16 1418.77 236.247   8
   8  -5  17 8530.24 495.636  12
   8   5  17 9548.96 538.603   7
   8  -5  17 8832.82 520.780   8
   8  -6 -14 1476.52 234.757   9
   8  -6 -13 8415.67 546.488   9
   8   6 -12 20.4259 93.9577   7
   8  -6 -12 724.682 222.339   9
   8   6 -11 233.449 125.378  11
   8   6 -11 291.881 139.551   7
   8  -6 -11 290.845 204.248   9
   8   6 -10 404.281 134.364  11
   8   6 -10 654.345 159.425   7
   8   6  -9 491.342 173.265  11
   8   6  -9 617.909 191.994   7
   8  -6  -9 522.972 196.478   9
   8   6  -8 137.235 133.319  11
   8   6  -8 179.409 145.284   7
   8  -6  -8 267.591 180.160   9
   8   6  -7 1160.15 250.279  11
   8   6  -7 1560.83 250.985   7
   8  -6  -7 1424.78 296.541   9
   8   6  -6 713.084 226.778  11
   8   6  -6 495.747 177.891   7
   8  -6  -6 353.455 174.101   9
   8   6  -5 977.739 251.724  11
   8   6  -5 815.608 199.685   7
   8  -6  -5 346.572 171.503   9
   8   6  -4 1524.42 326.458  11
   8   6  -4 1927.46 306.793   7
   8   6  -3 13048.5 679.314   7
   8   6  -3 11138.0 719.028  11
   8  -6  -3 10955.2 671.328   9
   8   6  -2 6254.76 492.308   7
   8   6  -2 4841.80 509.294  11
   8  -6  -2 5079.14 462.857   9
   8   6  -1 6502.77 501.728   7
   8   6  -1 6014.69 550.677  11
   8  -6  -1 4694.07 447.728   9
   8   6   0 8225.46 629.224  11
   8  -6   0 7645.32 536.507   9
   8   6   1 3032.38 339.642   7
   8   6   1 2931.44 357.522  11
   8  -6   1 2894.37 333.265   9
   8   6   2-150.489 149.201  11
   8   6   2 327.484 185.310   7
   8  -6   2 450.371 162.894   9
   8   6   3 2114.72 311.599  11
   8   6   3 2155.33 277.820   7
   8  -6   3 1761.97 228.758   8
   8   6   4 464.659 222.984  11
   8   6   4 639.040 166.757   7
   8   6   5 6260.32 448.607   7
   8   6   5 5302.89 462.364  11
   8   6   6 628.501 197.707  11
   8  -6   6 468.622 140.494   8
   8   6   7 527.600 150.035  11
   8   6   7 1252.28 230.290   7
   8   6   8 2964.74 306.032   7
   9   0 -33 3227.20 364.140  15
   9   0 -32 36.4077 146.298  15
   9   0 -31 5506.25 517.555  15
   9   0 -30-98.3073 168.279  15
   9   0 -29 395.043 211.734  15
   9   0 -28 139.008 229.048  15
   9   0 -27 2591.59 428.091  15
   9   0 -26-5.02114 257.478  15
   9   0 -25 51890.0 1939.17  15
   9   0 -24-992.965 733.009   9
   9   0 -24 114.865 246.813  15
   9   0 -23 2028.23 862.483   9
   9   0 -23 243.039 261.623  15
   9   0 -22 234.442 662.377   9
   9   0 -22-280.501 292.454  15
   9   0 -21 4889.90 665.470  15
   9   0 -21 3517.75 680.753   9
   9   0 -20-379.933 420.505   9
   9   0 -20 44.2771 229.293  15
   9   0 -19 34295.2 1505.70   9
   9   0 -19 31948.1 1671.30  15
   9   0 -18-117.242 322.574   9
   9   0 -18 462.914 251.177  15
   9   0 -17 1188.23 380.104   9
   9   0 -17 1208.91 378.389  15
   9   0 -16 210.960 266.547   9
   9   0 -16 3.74026 200.614  15
   9   0 -15 574.671 239.943   9
   9   0 -15 12.3182 219.485  15
   9   0 -14 139.966 231.517   9
   9   0 -14 139.771 217.526  15
   9   0 -13 339.147 188.850  11
   9   0 -13 500.722 314.072   9
   9   0 -13-131.565 223.511  15
   9   0 -12 189.645 226.005  11
   9   0 -12 260.510 290.172   9
   9   0 -12 102.200 283.758  15
   9   0 -11 9370.65 865.162  11
   9   0 -11 10496.3 871.776   9
   9   0 -11 8666.35 860.637  15
   9   0 -10 375.652 232.252  11
   9   0 -10 633.693 321.012  15
   9   0  -9 12908.9 1059.69  11
   9   0  -9 14356.6 1047.64   9
   9   0  -9 11663.0 963.312  15
   9   0  -8 1347.39 519.094  11
   9   0  -8 4548.25 772.231   9
   9   0  -7 30499.5 1651.84  11
   9   0  -7 31934.3 1552.12   9
   9   0  -7 32797.9 1505.28   8
   9   0  -6 4496.33 709.077   9
   9   0  -6 3623.27 648.030   8
   9   0  -5 24645.5 1519.20  11
   9   0  -5 25345.5 1359.96   9
   9   0  -5 25939.1 1354.71   8
   9   0  -4 2505.07 631.925  11
   9   0  -4 2917.16 608.971   9
   9   0  -4 3384.77 603.531   8
   9   0  -3 22316.7 1456.55  11
   9   0  -3 21024.3 1239.84   9
   9   0  -3 23721.2 1307.20   8
   9   0  -2 547.173 378.146  11
   9   0  -2 1061.35 371.508   9
   9   0  -2 714.686 369.331   8
   9   0  -1 4810.22 706.203  11
   9   0  -1 4792.16 602.585   9
   9   0  -1 5885.75 681.837   8
   9   0   0 83.3565 283.485  11
   9   0   0 238.299 211.611   9
   9   0   0 121.216 231.045   8
   9   0   1 2056.05 495.257  11
   9   0   1 1842.16 390.430   9
   9   0   1 1826.97 370.380   8
   9   0   2-12.5415 259.525  11
   9   0   2-132.880 211.064   9
   9   0   2 183.724 269.472   8
   9   0   3 2510.13 527.361  11
   9   0   3 1886.00 412.153   9
   9   0   3 2419.54 457.965   8
   9   0   4 241.070 291.849  11
   9   0   4-269.404 370.888   9
   9   0   4-223.782 221.166   8
   9   0   5 509.125 271.812  11
   9   0   5 85.3722 214.701   8
   9   0   6-163.534 257.240  11
   9   0   6 49.0956 183.065   8
   9   0   7 924.573 314.273  11
   9   0   7 528.376 259.295   8
   9   0   8-354.388 344.767  11
   9   0   8 20.3847 189.691   8
   9   0   9 3292.64 582.303  11
   9   0   9 4120.08 512.944   8
   9   0  10-31.7587 233.965  11
   9   0  10-67.9293 180.895   8
   9   0  11 791.115 369.691  11
   9   0  11 261.351 155.799   7
   9   0  11 193.652 225.657   8
   9   0  12-40.9742 270.610  11
   9   0  12-553.869 274.074   7
   9   0  12 175.928 182.875   8
   9   0  13 7831.53 644.780   7
   9   0  13 9038.92 867.735  11
   9   0  13 8063.15 689.857   8
   9   0  14 177.553 193.406  11
   9   0  14-5.19366 166.031   8
   9   0  15 10638.4 750.411   7
   9   0  15 11104.4 909.122  11
   9   0  15 10987.0 748.838   8
   9   0  16-112.693 219.630  11
   9   0  16-246.505 176.717   7
   9   0  16 98.9005 158.589   8
   9   0  17 1862.68 360.490  11
   9   0  17 1712.93 315.976   7
   9   0  18-106.809 169.788  11
   9   0  18-79.2251 143.598   7
   9   0  19 124.310 131.953   7
   9   0  20-61.5392 134.920   7
   9   0  21 14760.6 770.744   7
   9   0  22-124.309 146.039   7
   9   0  23 8432.13 544.018   7
   9   0  24-191.782 137.742   7
   9   1 -32 126.539 121.163  15
   9  -1 -32 184.868 138.738  15
   9   1 -31-21.5168 131.695  15
   9  -1 -31 298.055 198.134  15
   9   1 -30 6454.91 572.432  15
   9  -1 -30 6450.98 582.989  15
   9   1 -29 721.230 252.990  15
   9  -1 -29 508.299 208.640  15
   9   1 -28 0.14615 164.097  15
   9  -1 -28-142.716 203.458  15
   9  -1 -27 2261.83 570.385   9
   9   1 -27 2084.98 379.442  15
   9  -1 -27 1662.46 349.485  15
   9   1 -26 6997.88 685.536  15
   9  -1 -26 6601.29 668.526  15
   9  -1 -26 7562.53 791.277   9
   9  -1 -25 89.3391 400.490   9
   9   1 -25 176.915 225.081  15
   9  -1 -25 203.747 212.156  15
   9  -1 -24 8399.64 693.961   9
   9   1 -24 7546.10 750.043  15
   9  -1 -24 7770.75 768.348  15
   9  -1 -23 3373.91 454.016   9
   9   1 -23 4133.91 568.990  15
   9  -1 -23 3292.92 520.086  15
   9  -1 -22 6427.04 609.830   9
   9   1 -22 5939.90 691.987  15
   9  -1 -22 5696.00 668.136  15
   9  -1 -21 827.025 279.723   9
   9   1 -21 1053.01 322.582  15
   9  -1 -21 482.911 276.845  15
   9  -1 -20 5905.54 626.220   9
   9   1 -20 5995.39 704.684  15
   9  -1 -20 5457.23 679.933  15
   9   1 -19 5355.14 1095.12   9
   9  -1 -19 4859.86 567.838   9
   9   1 -19 4254.73 590.921  15
   9  -1 -19 4224.53 601.185  15
   9   1 -18 1201.92 1020.90   9
   9  -1 -18 1522.58 364.329   9
   9   1 -18 1615.59 412.830  15
   9  -1 -18 1370.49 332.401  15
   9   1 -17 3234.55 1059.78   9
   9  -1 -17 2967.68 469.321   9
   9   1 -17 2242.67 448.363  15
   9  -1 -17 2599.26 471.712  15
   9  -1 -16 1336.14 433.093   9
   9   1 -16 717.984 363.769  15
   9  -1 -16 921.581 313.932  15
   9  -1 -15 22458.1 1272.95   9
   9   1 -15 17250.1 1229.56  15
   9  -1 -15 16723.1 1188.29  15
   9   1 -15 22245.1 1571.11   9
   9   1 -14 32.0209 207.423  11
   9   1 -14-533.820 314.118  15
   9  -1 -14-57.8722 283.263   9
   9  -1 -14 61.6369 190.040  15
   9  -1 -13 2855.54 463.196  11
   9   1 -13 2552.41 430.269  11
   9   1 -13 2157.47 868.550   9
   9   1 -13 2529.34 501.522  15
   9  -1 -13 3339.24 511.878   9
   9  -1 -13 2307.79 456.183  15
   9  -1 -12 811.418 288.471  11
   9   1 -12 600.328 271.613  11
   9   1 -12 239.446 806.468   9
   9   1 -12 764.854 320.418  15
   9  -1 -12 651.770 273.434   9
   9  -1 -12 749.745 287.522  15
   9  -1 -11 54.5259 253.979  11
   9   1 -11 42.6549 178.666  11
   9   1 -11 671.150 807.575   9
   9   1 -11 286.263 220.196  15
   9  -1 -11-78.3167 223.211   9
   9  -1 -11 123.178 232.440  15
   9  -1 -11 220.744 192.457   8
   9  -1 -10 522.573 272.794  11
   9   1 -10 395.183 223.438  11
   9   1 -10 687.902 773.864   9
   9   1 -10 653.785 283.215  15
   9  -1 -10 988.430 357.000   9
   9  -1 -10 414.306 283.041  15
   9  -1 -10 554.677 225.409   8
   9  -1  -9 5731.93 730.920  11
   9   1  -9 6514.86 762.878  11
   9  -1  -9 7414.82 809.055   9
   9   1  -9 4963.57 629.283  15
   9   1  -9 5371.52 877.863   9
   9  -1  -9 5562.17 590.360   8
   9  -1  -8 1561.68 416.386  11
   9   1  -8 2066.54 516.741  11
   9   1  -8 2216.02 750.550   9
   9   1  -8 958.094 307.278  15
   9  -1  -8 2809.01 569.539   9
   9  -1  -8 1824.35 391.579   8
   9  -1  -7 9708.72 979.821  11
   9   1  -7 11584.6 1016.49  11
   9  -1  -7 11515.3 951.351   9
   9   1  -7 10446.5 882.052  15
   9   1  -7 10723.5 1038.43   9
   9  -1  -7 11567.5 894.967   8
   9  -1  -6 4710.40 759.769  11
   9   1  -6 4561.38 657.696  11
   9   1  -6 4294.60 843.016   9
   9  -1  -6 4624.17 638.417   9
   9  -1  -6 4627.30 570.088   8
   9  -1  -5 3757.24 615.868  11
   9   1  -5 3750.46 606.315  11
   9   1  -5 2714.31 783.996   9
   9  -1  -5 3909.55 556.429   9
   9  -1  -5 3987.14 551.636   8
   9  -1  -4 1822.22 514.667  11
   9   1  -4 1885.57 504.182  11
   9   1  -4 977.424 752.729   9
   9  -1  -4 1516.25 418.166   9
   9  -1  -4 1521.27 419.318   8
   9   1  -3 6386.86 772.323  11
   9  -1  -3 5655.51 757.672  11
   9  -1  -3 5877.49 661.240   9
   9   1  -3 5483.52 923.397   9
   9  -1  -3 7222.65 702.222   8
   9  -1  -2 144.690 236.046  11
   9   1  -2 287.595 242.414  11
   9  -1  -2 89.2412 239.943   9
   9  -1  -2 146.051 211.490   8
   9  -1  -1 1623.01 493.702  11
   9   1  -1 1743.24 481.469  11
   9  -1  -1 964.008 353.816   9
   9  -1  -1 1491.57 391.808   8
   9  -1   0 7931.52 915.680  11
   9   1   0 8095.99 873.887  11
   9  -1   0 7188.68 706.282   9
   9   1   0 5596.79 893.117   9
   9  -1   0 8399.73 795.473   8
   9  -1   1 2565.45 665.671  11
   9   1   1 2212.09 616.406  11
   9  -1   1 2830.61 518.203   9
   9  -1   1 2290.61 532.902   8
   9  -1   2 22012.0 1455.80  11
   9   1   2 22772.2 1436.97  11
   9  -1   2 19920.1 1139.12   9
   9   1   2 19942.6 1361.63   9
   9  -1   2 23213.8 1288.87   8
   9  -1   3 942.420 472.768  11
   9   1   3 900.724 425.163  11
   9   1   3 222.374 823.390   9
   9  -1   3 181.962 205.023   9
   9  -1   3 1049.25 460.782   8
   9  -1   4 9451.31 1002.53  11
   9   1   4 9378.87 932.293  11
   9  -1   4 7957.60 697.277   9
   9  -1   4 9272.87 824.098   8
   9  -1   5 2732.00 606.659  11
   9   1   5 2756.01 612.120  11
   9   1   5 2125.68 407.005   7
   9  -1   5 2783.62 526.196   8
   9  -1   6 19428.3 1117.25  12
   9   1   6 17988.9 1012.83   7
   9  -1   6 19989.9 1394.34  11
   9   1   6 20576.2 1361.93  11
   9  -1   6 19088.6 1181.25   8
   9  -1   7 2190.45 466.941  12
   9  -1   7 1987.74 547.965  11
   9   1   7 1470.20 457.296  11
   9   1   7 1395.55 331.385   7
   9  -1   7 1898.92 407.006   8
   9  -1   8 12618.4 879.830  12
   9   1   8 11018.4 798.282   7
   9  -1   8 13044.3 1122.86  11
   9   1   8 12038.4 1037.04  11
   9  -1   8 11822.4 898.130   8
   9  -1   9 1639.21 379.597  12
   9  -1   9 1350.73 426.186  11
   9   1   9 1552.66 420.135  11
   9   1   9 1163.06 306.838   7
   9  -1   9 1664.72 424.107   8
   9  -1  10 14512.1 915.493  12
   9   1  10 13355.5 898.896   7
   9  -1  10 14891.9 1139.55  11
   9   1  10 15466.0 1122.06  11
   9  -1  10 14840.1 1007.03   8
   9  -1  11 315.705 171.418  12
   9  -1  11 391.294 237.798  11
   9   1  11 348.180 289.757  11
   9   1  11-149.055 184.870   7
   9  -1  11 132.443 236.132   8
   9  -1  12 3221.08 426.050  12
   9  -1  12 3603.12 558.122  11
   9   1  12 3754.00 578.834  11
   9   1  12 2869.80 419.245   7
   9  -1  12 3088.45 441.053   8
   9  -1  13 483.014 214.056  12
   9  -1  13 138.814 250.724  11
   9   1  13 736.388 272.141  11
   9   1  13 380.419 151.859   7
   9  -1  13 597.179 238.529   8
   9  -1  14 636.181 205.304  12
   9  -1  14 1104.43 330.718  11
   9   1  14 1114.89 321.061  11
   9   1  14 1054.71 273.918   7
   9  -1  14 1432.81 318.179   8
   9  -1  15 407.643 170.580  12
   9  -1  15 1039.02 295.459  11
   9   1  15 865.519 316.548  11
   9   1  15 798.901 233.975   7
   9  -1  15 681.197 228.204   8
   9  -1  16-84.5703 154.200  12
   9  -1  16 115.787 152.419  11
   9   1  16 457.310 222.046  11
   9   1  16-74.1811 154.109   7
   9  -1  16 254.803 188.179   8
   9  -1  17-9.67378 146.577  12
   9  -1  17 316.925 189.959  11
   9   1  17 234.107 136.137  11
   9   1  17 17.0824 162.814   7
   9  -1  17 236.259 200.444   8
   9  -1  18 783.281 207.003  12
   9  -1  18 709.488 271.234  11
   9   1  18 560.066 203.366  11
   9   1  18 180.763 168.794   7
   9  -1  18 752.059 204.739   8
   9  -1  19 1422.44 245.125  12
   9  -1  19 1357.28 237.932   7
   9   1  19 1282.77 271.985   7
   9  -1  19 1416.18 243.178   8
   9  -1  20 701.268 197.657   7
   9   1  20 658.560 194.698   7
   9  -1  21 357.692 141.946   7
   9   1  21 371.096 177.631   7
   9  -1  22 90.6768 128.859   7
   9   1  22 393.551 156.743   7
   9   1  23 701.202 186.420   7
   9   1  24 373.873 154.278   7
   9   2 -31 379.241 156.128  15
   9  -2 -31 462.221 173.281  15
   9   2 -30 23.1018 140.117  15
   9  -2 -30 366.495 171.331  15
   9   2 -29 1044.04 250.482  15
   9  -2 -29 1311.81 321.469  15
   9   2 -28 138.632 162.263  15
   9  -2 -28 207.554 185.655  15
   9   2 -27 2249.13 397.966  15
   9  -2 -27 2428.23 399.231  15
   9   2 -26 44.5740 166.390  15
   9  -2 -26 317.694 228.023  15
   9  -2 -25 1261.06 270.637   9
   9   2 -25 2130.32 427.622  15
   9  -2 -25 1851.76 376.416  15
   9  -2 -24 4.43845 185.059   9
   9   2 -24 30.3142 188.890  15
   9  -2 -24 176.352 221.219  15
   9   2 -23 1191.26 332.564  15
   9  -2 -23 1198.19 284.346   9
   9  -2 -23 1165.66 378.643  15
   9   2 -22-293.157 267.401  15
   9  -2 -22-227.321 173.506   9
   9  -2 -22-412.146 284.384  15
   9   2 -21 365.831 241.929  15
   9  -2 -21-423.729 242.281   9
   9  -2 -21 228.479 258.627  15
   9   2 -20 284.138 222.163  15
   9  -2 -20-14.9600 195.895   9
   9  -2 -20-165.278 175.513  15
   9   2 -19 3214.54 521.419  15
   9  -2 -19 2496.61 398.623   9
   9  -2 -19 2873.05 470.083  15
   9   2 -18 3886.18 582.461  15
   9  -2 -18 3965.70 509.648   9
   9  -2 -18 3529.53 548.496  15
   9   2 -17 3331.41 518.803  15
   9  -2 -17 3616.12 476.086   9
   9  -2 -17 3982.81 589.174  15
   9   2 -16 391.084 265.981  15
   9  -2 -16 528.804 256.455   9
   9  -2 -16 229.339 204.999  15
   9   2 -15 3004.52 523.128  15
   9  -2 -15 3337.80 535.934   9
   9  -2 -15 1760.57 394.256  15
   9   2 -14 13987.5 948.222  11
   9  -2 -14 15584.3 1069.01   9
   9   2 -14 12920.7 1046.17  15
   9  -2 -14 12376.0 962.706  15
   9   2 -13 3867.91 529.478  11
   9   2 -13 4296.66 639.478  15
   9  -2 -13 4511.50 628.625   9
   9  -2 -13 3288.58 545.080  15
   9  -2 -12 13568.6 988.880  11
   9   2 -12 14857.8 1012.75  11
   9  -2 -12 15863.3 1090.45   9
   9   2 -12 13843.4 1060.01  15
   9  -2 -12 12209.5 948.888  15
   9  -2 -11 965.061 298.573  11
   9   2 -11 2258.09 494.962  11
   9  -2 -11 3444.73 725.876   9
   9   2 -11 2731.70 568.519  15
   9  -2 -11 1493.30 321.112   8
   9  -2 -10 30227.2 1589.54  11
   9   2 -10 33077.1 1595.89  11
   9   2 -10 29515.5 1546.13  15
   9  -2 -10 30756.0 1316.49   8
   9   2  -9 5296.03 697.599  11
   9  -2  -9 3126.45 617.146  11
   9   2  -9 4377.00 671.578  15
   9  -2  -9 3309.04 526.179   8
   9  -2  -8 29572.6 1628.55  11
   9   2  -8 32711.0 1601.98  11
   9  -2  -8 33502.4 1588.36   9
   9   2  -8 28672.6 1492.79  15
   9  -2  -8 30876.0 1351.22   8
   9  -2  -7 1735.55 480.871  11
   9   2  -7 1257.63 381.896  11
   9   2  -7 1450.29 368.608  15
   9  -2  -7 2951.17 610.250   9
   9  -2  -7 1843.98 395.854   8
   9  -2  -6 5514.39 725.861  11
   9   2  -6 5777.89 716.209  11
   9  -2  -6 5813.42 685.403   9
   9   2  -6 5981.77 671.542  15
   9  -2  -6 5177.42 597.085   8
   9  -2  -5 6224.15 809.460  11
   9   2  -5 7309.42 814.836  11
   9  -2  -5 6740.55 715.978   9
   9  -2  -5 6886.31 675.735   8
   9  -2  -4 389.272 285.899  11
   9   2  -4 170.285 300.576  11
   9  -2  -4 728.281 336.753   9
   9  -2  -4 153.556 186.273   8
   9  -2  -3-73.1531 262.621  11
   9   2  -3 583.960 321.400  11
   9  -2  -3 451.717 253.752   9
   9  -2  -3-140.602 187.085   8
   9  -2  -2 1259.57 486.959  11
   9   2  -2 1727.78 489.092  11
   9  -2  -2 1070.16 373.672   9
   9  -2  -2 961.759 370.405   8
   9  -2  -1 11795.6 1082.13  11
   9   2  -1 13693.8 1086.57  11
   9  -2  -1 11679.1 914.259   9
   9  -2  -1 12866.3 937.008   8
   9  -2   0 2461.51 541.890  11
   9   2   0 2893.71 569.876  11
   9   2   0 2332.85 393.159   7
   9  -2   0 2760.27 490.218   9
   9  -2   0 3509.63 523.461   8
   9  -2   1 515.567 353.131  11
   9   2   1 600.767 297.489  11
   9   2   1 711.858 261.047   7
   9  -2   1 484.494 263.846   9
   9  -2   1 728.424 334.527   8
   9  -2   2 1158.36 392.682  11
   9   2   2 1619.31 457.603  11
   9   2   2 855.674 278.500   7
   9  -2   2 1304.94 326.824   9
   9  -2   2 998.280 299.301   8
   9  -2   3 360.626 321.779  11
   9   2   3 180.164 232.591  11
   9   2   3 276.841 180.527   7
   9  -2   3 358.086 216.019   9
   9  -2   3 276.625 245.547   8
   9  -2   4-61.9108 187.456  12
   9  -2   4-386.807 343.378  11
   9   2   4 415.839 266.393  11
   9   2   4 49.6791 167.539   7
   9  -2   4 66.7542 148.956   9
   9  -2   4-200.106 233.860   8
   9  -2   5 1.60421 245.276  12
   9  -2   5 180.147 244.744  11
   9   2   5 598.077 311.493  11
   9   2   5 297.861 222.705   7
   9  -2   5-73.3039 195.979   9
   9  -2   5-102.349 209.797   8
   9  -2   6 1446.06 467.804  12
   9  -2   6 1400.89 437.075  11
   9   2   6 792.034 377.316  11
   9   2   6 1433.87 362.399   7
   9  -2   6 1811.12 418.776   8
   9  -2   7 11145.6 845.101  12
   9   2   7 10964.3 821.706   7
   9  -2   7 11646.0 1006.33  11
   9   2   7 11442.4 989.934  11
   9  -2   7 10777.2 866.249   8
   9  -2   8 1556.88 389.624  12
   9  -2   8 1268.40 394.697  11
   9   2   8 1247.85 339.802  11
   9   2   8 999.630 280.226   7
   9  -2   8 1349.51 359.150   8
   9  -2   9 2799.77 434.001  12
   9  -2   9 2542.82 537.899  11
   9   2   9 2828.98 505.294  11
   9   2   9 2888.89 400.122   7
   9  -2   9 2577.11 408.659   8
   9  -2  10 2475.17 433.796  12
   9  -2  10 1592.69 442.244  11
   9   2  10 2056.52 424.154  11
   9   2  10 1569.83 320.060   7
   9  -2  10 1865.94 386.343   8
   9  -2  11 1391.47 313.403  12
   9  -2  11 1504.39 380.491  11
   9   2  11 1672.24 399.751  11
   9   2  11 1455.85 294.730   7
   9  -2  11 1352.00 379.821   8
   9  -2  12 2308.20 352.492  12
   9  -2  12 2963.12 528.039  11
   9   2  12 2658.95 457.042  11
   9   2  12 2471.59 403.255   7
   9  -2  12 2290.51 363.215   8
   9  -2  13 3601.61 456.383  12
   9  -2  13 2919.94 475.435  11
   9   2  13 3635.47 518.138  11
   9   2  13 3442.60 455.625   7
   9  -2  13 3606.61 468.784   8
   9  -2  14 463.334 210.428  12
   9   2  14-132.242 217.034  11
   9   2  14-19.9353 224.027   7
   9  -2  14 351.264 217.067   8
   9  -2  15 2674.46 381.042  12
   9   2  15 2555.22 410.571  11
   9   2  15 2692.09 374.100   7
   9  -2  15 2454.49 368.124   8
   9  -2  16 14928.7 840.407  12
   9   2  16 18148.2 972.998   7
   9   2  16 16748.4 967.373  11
   9  -2  16 17488.8 900.596   8
   9  -2  17 1505.00 277.067  12
   9   2  17 2107.44 345.550  11
   9   2  17 1528.35 297.999   7
   9  -2  17 1355.78 268.980   8
   9  -2  18 9101.93 602.320  12
   9   2  18 10007.5 676.173   7
   9  -2  18 9533.77 627.253   8
   9  -2  19 5709.52 467.544  12
   9   2  19 7053.40 556.735   7
   9  -2  19 6754.32 503.499   8
   9  -2  20 12349.1 646.940  12
   9   2  20 14243.1 764.936   7
   9  -2  20 13114.9 630.476   8
   9  -2  21 1923.70 258.731  12
   9   2  21 2235.17 311.674   7
   9  -2  22 14443.0 608.987  12
   9   2  22 16268.2 761.583   7
   9   2  23 67.7215 118.553   7
   9   3 -28 4917.28 442.703  15
   9  -3 -28 4587.09 428.064  15
  -9  -3  27 302.802 143.202  10
   9   3 -27 216.202 165.953  15
   9  -3 -27 429.828 212.583  15
  -9  -3  26 2796.55 314.522  10
   9   3 -26 3221.14 403.436  15
   9  -3 -26 2568.43 362.145  15
   9   3 -25-90.9815 174.255  15
   9  -3 -25 13.6797 118.911   9
   9  -3 -25-152.199 148.158  15
   9   3 -24 3283.39 449.204  15
   9  -3 -24 2308.32 300.023   9
   9  -3 -24 2602.00 396.488  15
   9   3 -23 1036.63 251.722  15
   9  -3 -23 915.592 213.328   9
   9  -3 -23 760.351 236.147  15
   9  -3 -22 37.6973 147.497   9
   9  -3 -22 436.434 226.890  15
   9  -3 -21 9002.10 661.997   9
   9   3 -21 9093.89 771.996  15
   9  -3 -21 7527.63 691.914  15
   9   3 -20 0.49593 194.460  15
   9  -3 -20-107.185 184.937   9
   9  -3 -20-427.134 243.509  15
   9   3 -19 13879.5 955.797  15
   9  -3 -19 12872.0 914.166  15
   9  -3 -18 12415.4 850.615   9
   9   3 -18 10473.1 863.416  15
   9  -3 -18 9923.38 801.631  15
   9   3 -17 23508.2 1298.27  15
   9  -3 -17 22221.7 1207.55  15
   9   3 -16-163.154 230.820  15
   9  -3 -16-112.574 260.959   9
   9  -3 -16-34.8697 168.768  15
   9   3 -15 399.186 218.666  15
   9  -3 -15 365.530 193.282  15
   9   3 -14 206.849 162.085  11
   9   3 -14 318.866 234.786  15
   9  -3 -14 181.466 236.462   9
   9  -3 -14 14.1016 153.329  15
   9   3 -13 5024.61 557.091  11
   9  -3 -13 5879.06 643.909   9
   9   3 -13 4088.60 557.011  15
   9   3 -12-77.7178 178.646  11
   9   3 -12 0.37800 247.490  15
   9  -3 -12 533.006 315.204   9
   9   3 -11 1071.43 308.204  11
   9   3 -11 681.543 257.170  15
   9  -3 -11 993.871 330.321   9
   9   3 -10 2147.43 407.831  11
   9   3 -10 1788.31 386.758  15
   9  -3 -10 2453.34 453.532   9
   9   3  -9 2965.99 525.678  11
   9   3  -9 3023.12 501.666  15
   9  -3  -9 3391.99 534.468   9
   9  -3  -9 2459.96 366.806   8
   9   3  -8 9739.79 845.177  11
   9  -3  -8 10578.9 886.944   9
   9   3  -8 8726.55 785.826  15
   9  -3  -8 9547.37 698.750   8
   9   3  -7 983.202 298.890  11
   9   3  -7 1121.52 325.148  15
   9  -3  -7 2020.75 461.128   9
   9  -3  -7 1265.97 314.780   8
   9   3  -6 1060.58 351.379  11
   9   3  -6 836.614 290.451  15
   9  -3  -6 482.137 341.511   9
   9  -3  -6 510.599 220.054   8
   9   3  -5 4307.41 483.585   7
   9   3  -5 4365.83 595.279  11
   9   3  -5 3006.16 473.227  15
   9  -3  -5 3713.38 520.584   9
   9  -3  -5 4099.32 496.444   8
   9   3  -4 5599.28 531.753   7
   9   3  -4 5657.14 662.265  11
   9  -3  -4 5691.61 655.420   9
   9   3  -4 5515.58 626.059  15
   9  -3  -4 5684.96 575.924   8
   9   3  -3 1474.32 372.332  11
   9   3  -3 1252.80 293.615   7
   9  -3  -3 1781.72 401.646   9
   9  -3  -3 969.731 256.547   8
   9   3  -2 1225.99 405.516  11
   9   3  -2 1034.40 294.959   7
   9  -3  -2 737.894 302.957   9
   9  -3  -2 322.499 230.889   8
   9   3  -1 7231.55 633.998   7
   9   3  -1 7368.03 813.905  11
   9  -3  -1 6491.62 679.393   9
   9  -3  -1 6739.83 650.976   8
   9   3   0 3205.48 455.807   7
   9   3   0 2812.68 511.656  11
   9  -3   0 2890.58 457.846   9
   9  -3   0 2848.72 440.831   8
   9   3   1 85.7933 231.265  11
   9   3   1 316.581 218.571   7
   9  -3   1 593.408 255.762   9
   9  -3   1 301.369 212.974   8
   9   3   2 836.470 336.757  11
   9   3   2 1035.25 255.704   7
   9  -3   2 606.049 200.478   9
   9  -3   2 1500.09 348.091   8
   9   3   3 1834.92 429.630  11
   9   3   3 1977.56 385.008   7
   9  -3   3 1202.27 282.293   9
   9  -3   3 1092.81 325.592   8
   9   3   4 7544.11 651.401   7
   9   3   4 8712.04 839.177  11
   9  -3   4 7338.45 627.444   9
   9  -3   4 8064.48 716.428   8
   9  -3   5 7224.98 771.599  12
   9   3   5 5732.98 598.688   7
   9   3   5 6282.73 734.755  11
   9  -3   5 5270.44 612.597   8
   9  -3   6 19215.1 1094.42  12
   9   3   6 18165.6 982.369   7
   9   3   6 18177.9 1175.73  11
   9  -3   6 16894.1 1010.68   8
   9  -3   7 7312.42 717.655  12
   9   3   7 6530.31 625.032   7
   9   3   7 6226.65 683.929  11
   9  -3   7 6431.12 629.704   8
   9   3   8 13358.2 852.364   7
   9   3   8 14008.3 986.001  11
   9  -3   8 12590.2 864.380   8
   9  -3   9 12920.7 847.446  12
   9   3   9 12298.8 803.372   7
   9   3   9 11710.8 906.195  11
   9  -3   9 11163.5 812.542   8
   9  -3  10 17004.3 949.807  12
   9   3  10 14160.9 866.967   7
   9   3  10 16023.0 1027.23  11
   9  -3  10 13385.4 886.025   8
   9  -3  11 19225.4 982.921  12
   9   3  11 18749.7 966.204   7
   9   3  11 18785.1 1072.35  11
   9  -3  11 17293.3 969.364   8
   9  -3  12 5086.89 510.322  12
   9   3  12 4434.98 480.629   7
   9   3  12 4969.74 539.536  11
   9  -3  12 4056.12 464.648   8
   9  -3  13 4118.09 458.629  12
   9   3  13 4121.31 458.270   7
   9   3  13 3740.52 462.596  11
   9  -3  13 4433.16 469.906   8
   9  -3  14 935.792 228.786  12
   9   3  14 709.439 235.606  11
   9   3  14 827.506 202.699   7
   9  -3  14 652.604 192.173   8
   9  -3  15 1692.57 290.619  12
   9   3  15 1973.71 319.366  11
   9   3  15 2210.32 339.133   7
   9  -3  15 1891.40 329.620   8
   9  -3  16 151.673 139.418  12
   9   3  16 64.5676 122.879  11
   9   3  16-8.09060 156.096   7
   9  -3  16-4.98497 124.450   8
   9  -3  17 723.461 202.749  12
   9   3  17 876.901 228.668   7
   9  -3  17 410.065 150.291   8
   9  -3  18 1344.55 251.942  12
   9   3  18 1609.11 285.082   7
   9  -3  18 1328.01 224.883   8
   9  -3  19 772.219 179.196  12
   9   3  19 973.278 218.607   7
   9  -3  19 559.014 149.953   8
   9  -3  20 125.211 97.8072  12
   9   3  20 208.916 151.755   7
   9   3  21 1779.36 239.894   7
   9   4 -24 3890.93 380.221  15
   9   4 -23 16462.3 806.274  15
   9   4 -22-50.6577 141.602  15
   9  -4 -22-220.948 175.036  15
   9  -4 -21 8944.67 548.267   9
   9   4 -21 9717.96 675.618  15
   9  -4 -21 7892.56 570.762  15
   9   4 -20 613.407 237.318  15
   9  -4 -20 314.565 150.807   9
   9  -4 -20-4.26231 144.438  15
   9  -4 -19 4998.92 461.727   9
   9   4 -19 5301.46 515.825  15
   9  -4 -19 4438.65 442.023  15
   9   4 -18 356.493 185.146  15
   9  -4 -18 732.871 188.392   9
   9  -4 -18 307.752 126.201  15
   9   4 -17 9999.72 741.149  15
   9  -4 -17 8199.82 605.225  15
   9   4 -16 554.590 271.452  15
   9  -4 -16 411.190 197.260   9
   9   4 -15 345.136 228.743  15
   9  -4 -15-17.7459 196.338   9
   9   4 -14 326.546 161.184  11
   9   4 -14 295.078 173.613  15
   9  -4 -14 347.701 204.527   9
   9   4 -13 1838.22 314.840  11
   9   4 -13 1291.49 298.080  15
   9  -4 -13 1899.39 370.629   9
   9   4 -12 475.098 209.385  11
   9   4 -12 76.8205 163.745  15
   9  -4 -12 348.074 204.822   9
   9   4 -11 2133.11 351.390  11
   9   4 -11 2083.83 388.157  15
   9  -4 -11 2824.30 441.974   9
   9   4 -10 810.845 251.777  11
   9   4 -10 1639.77 373.339  15
   9  -4 -10 1479.34 355.452   9
   9   4  -9 1641.13 357.058  11
   9   4  -9 1118.17 231.942   7
   9   4  -9 545.607 195.989  15
   9  -4  -9 1198.30 312.757   9
   9   4  -8 452.716 264.945  11
   9   4  -8 783.564 219.084   7
   9   4  -8 518.024 183.818  15
   9   4  -7 2545.48 418.593  11
   9   4  -7 2462.25 327.930   7
   9   4  -7 1592.17 332.197  15
   9  -4  -7 2328.90 397.414   9
   9   4  -6 1654.77 367.013  11
   9   4  -6 1665.55 292.699   7
   9   4  -6 1372.64 327.078  15
   9  -4  -6 933.004 300.935   9
   9  -4  -6 650.657 180.210   8
   9   4  -5 6483.88 534.342   7
   9   4  -5 5298.30 602.994  11
   9  -4  -5 5207.60 575.227   9
   9   4  -5 4543.78 520.574  15
   9  -4  -5 4584.44 443.505   8
   9   4  -4 5976.95 517.804   7
   9   4  -4 5672.17 640.289  11
   9  -4  -4 5519.73 580.666   9
   9   4  -4 4230.83 471.684  15
   9  -4  -4 4934.19 488.151   8
   9   4  -3 2317.13 413.182  11
   9   4  -3 2564.03 366.607   7
   9  -4  -3 2412.93 403.602   9
   9  -4  -3 1986.38 325.344   8
   9   4  -2 784.742 278.665  11
   9   4  -2 206.182 157.279   7
   9  -4  -2 580.902 252.622   9
   9  -4  -2 312.523 177.605   8
   9   4  -1 882.777 329.636  11
   9   4  -1 876.448 270.826   7
   9  -4  -1-110.297 180.373   9
   9  -4  -1 119.172 151.845   8
   9   4   0 2332.82 420.055  11
   9   4   0 2649.53 386.802   7
   9  -4   0 2265.38 345.844   9
   9  -4   0 2774.32 406.802   8
   9   4   1 541.492 265.498  11
   9   4   1 286.639 219.113   7
   9  -4   1 200.898 182.578   9
   9  -4   1 646.499 238.302   8
   9   4   2 3322.05 492.062  11
   9   4   2 2948.58 386.296   7
   9  -4   2 2026.96 344.714   9
   9  -4   2 3086.64 433.465   8
   9   4   3 2459.90 428.295  11
   9   4   3 2672.84 379.325   7
   9  -4   3 1975.35 317.482   9
   9  -4   3 2399.80 376.466   8
   9   4   4 1264.99 324.365  11
   9   4   4 1667.37 303.866   7
   9  -4   4 1380.88 265.715   9
   9  -4   4 1699.44 314.307   8
   9   4   5 166.843 191.948  11
   9   4   5 407.818 208.406   7
   9  -4   5 261.031 180.291   8
   9   4   6 755.097 247.349  11
   9   4   6 539.064 207.212   7
   9  -4   6 712.160 284.177   8
   9   4   7 1632.60 336.245  11
   9   4   7 1441.55 267.521   7
   9  -4   7 1404.82 313.488   8
   9   4   8 6332.45 531.079   7
   9   4   8 6263.37 598.532  11
   9  -4   8 5690.13 527.567   8
   9   4   9 1104.80 288.934  11
   9   4   9 815.951 205.097   7
   9  -4   9 914.956 240.418   8
   9   4  10 4995.29 470.916   7
   9   4  10 4387.64 476.598  11
   9  -4  10 4379.32 444.481   8
   9  -4  11 62.1075 136.150  12
   9   4  11 295.944 179.475  11
   9   4  11 186.118 167.462   7
   9  -4  11 243.177 159.958   8
   9  -4  12 2964.50 367.925  12
   9   4  12 2751.56 347.091  11
   9   4  12 2989.46 355.427   7
   9  -4  12 2394.64 342.335   8
   9  -4  13 72.6528 144.213  12
   9   4  13 151.852 133.986  11
   9   4  13-13.5109 130.623   7
   9  -4  13 106.968 129.154   8
   9  -4  14 1100.28 235.269  12
   9   4  14 1351.89 261.048   7
   9  -4  14 1022.29 216.080   8
   9  -4  15 940.617 208.285  12
   9   4  15 991.171 209.078   7
   9  -4  15 520.805 151.748   8
   9   4  16-37.8008 116.770   7
   9  -4  16 229.146 130.170   8
   9   5 -16 178.153 124.587  15
   9   5 -15 1714.37 262.891  15
   9  -5 -15 1642.04 245.153   9
   9  -5 -14 7472.65 505.697   9
   9   5 -14 5905.70 489.587  15
   9   5 -13 1119.30 226.150  15
   9  -5 -13 1275.47 251.409   9
   9  -5 -12 4837.44 433.935   9
   9   5 -12 4017.12 408.336  15
   9   5 -11 1194.81 224.297  11
   9   5 -11 814.711 189.169  15
   9  -5 -11 1197.71 249.465   9
   9   5 -10 4705.49 418.033  11
   9  -5 -10 5235.72 467.554   9
   9   5  -9 2719.55 283.515   7
   9   5  -9 2201.52 311.248  11
   9  -5  -9 2925.81 358.179   9
   9   5  -8 2901.85 311.789   7
   9   5  -8 2265.56 307.604  11
   9  -5  -8 2615.55 364.423   9
   9   5  -7 5410.48 417.218   7
   9   5  -7 4089.29 422.435  11
   9  -5  -7 5436.73 476.518   9
   9   5  -6 1354.80 267.792  11
   9   5  -6 2008.43 283.832   7
   9  -5  -6 2501.59 346.829   9
   9   5  -5 3178.93 336.946   7
   9   5  -5 3186.03 386.919  11
   9  -5  -5 2857.07 372.760   9
   9   5  -4 5053.17 440.787   7
   9   5  -4 4360.29 499.414  11
   9   5  -3 20691.2 819.789   7
   9   5  -3 20336.3 976.661  11
   9  -5  -3 18972.3 859.120   9
   9   5  -2 2767.57 355.803   7
   9   5  -2 1578.85 330.991  11
   9  -5  -2 2587.54 351.626   9
   9   5  -1 9697.75 562.737   7
   9   5  -1 8623.58 640.902  11
   9  -5  -1 7991.69 539.088   9
   9  -5  -1 8347.27 496.573   8
   9   5   0 27.1588 176.710  11
   9   5   0 337.041 186.418   7
   9  -5   0 290.847 141.178   9
   9  -5   0-131.188 128.383   8
   9   5   1 851.257 244.849  11
   9   5   1 812.333 212.207   7
   9  -5   1 357.143 155.571   9
   9  -5   1 277.714 145.993   8
   9   5   2 3743.13 361.293   7
   9   5   2 3441.07 401.108  11
   9  -5   2 3031.87 319.317   8
   9   5   3 1346.94 288.389  11
   9   5   3 1643.42 272.284   7
   9  -5   3 784.254 184.409   8
   9   5   4 10092.2 565.751   7
   9   5   4 9034.45 618.759  11
   9  -5   4 8416.37 512.344   8
   9   5   5 317.568 191.680  11
   9   5   5 890.346 244.856   7
   9  -5   5 489.835 186.915   8
   9   5   6 12343.0 686.412  11
   9  -5   6 12166.8 612.830   8
   9   5   7 317.355 131.258  11
   9   5   7 529.373 158.350   7
   9  -5   7 352.058 128.350   8
   9   5   8 3693.93 330.158   7
   9  -5   8 3036.99 315.400   8
   9   5   9 250.950 132.842   7
  10   0 -27-86.6736 131.479  15
  10   0 -26 313.437 159.308  15
  10   0 -25-10.0410 134.383  15
  10   0 -24 358.920 199.974  15
  10   0 -23-177.273 196.455  15
  10   0 -22 5845.96 568.048  15
  10   0 -21-66.4889 154.605  15
  10   0 -20 802.778 739.451   9
  10   0 -20 148.482 140.581  15
  10   0 -19 1296.96 821.400   9
  10   0 -19-50.9227 160.993  15
  10   0 -18 39115.0 1603.47   9
  10   0 -18 30442.0 1334.49  15
  10   0 -17-1501.73 849.773   9
  10   0 -17-151.400 192.595  15
  10   0 -16 11400.9 825.491  15
  10   0 -16 13092.2 1066.42   9
  10   0 -15 2614.91 851.380   9
  10   0 -15 941.213 335.841  15
  10   0 -14 75648.4 2129.69   9
  10   0 -14 56215.7 1814.73  15
  10   0 -13 1373.60 676.548   9
  10   0 -13-163.342 154.749  15
  10   0 -12 2870.33 434.723  11
  10   0 -12 3618.24 697.074   9
  10   0 -11-221.361 189.312  11
  10   0 -11 1415.85 621.324   9
  10   0 -10 299.799 172.572  11
  10   0 -10 3182.89 751.182   9
  10   0  -9 824.915 313.494  11
  10   0  -9 3129.00 750.159   9
  10   0  -8 13754.6 973.473  11
  10   0  -8 15814.6 1069.13   9
  10   0  -7 318.313 188.238  11
  10   0  -7 1107.14 567.493   9
  10   0  -6-116.700 295.846  11
  10   0  -6-602.213 543.224   9
  10   0  -5 533.478 314.438  11
  10   0  -5 245.684 521.637   9
  10   0  -4 5722.60 654.809  11
  10   0  -4 5454.59 757.529   9
  10   0  -3 1440.64 427.747  11
  10   0  -3 1516.03 613.546   9
  10   0  -2 8657.30 832.965  11
  10   0  -2 7626.59 869.734   9
  10   0  -1 284.930 277.626  11
  10   0  -1-613.727 701.334   9
  10   0   0 420.435 252.101  11
  10   0   0-556.038 736.933   9
  10   0   1 1375.14 419.984  11
  10   0   1 2910.79 856.885   9
  10   0   2 10354.3 902.370  11
  10   0   2 14276.0 1085.84   9
  10   0   3 76.3521 270.669  11
  10   0   4 618.992 304.217  11
  10   0   5 10.2317 242.908  11
  10   0   6 289.524 246.107  11
  10   0   7 134.027 215.986  11
  10   0   8 595.800 320.905  11
  10   0   9 91.6193 186.729  11
  10   0  10 3984.78 518.700  11
  10   0  11-104.338 193.821  11
  10   0  12 7233.20 645.002  11
  10   0  13 100.788 195.582  11
  10   0  14 13563.9 816.252  11
  10   0  15-32.5020 183.922  11
  10   0  16 19245.1 857.702  11
  10   1 -26 469.221 188.008  15
  10  -1 -26 824.514 222.425  15
  10   1 -25 17393.0 861.190  15
  10  -1 -25 16530.6 829.462  15
  10   1 -24 1703.37 316.847  15
  10  -1 -24 1417.60 268.591  15
  10   1 -23 5025.81 497.065  15
  10  -1 -23 5043.89 487.453  15
  10  -1 -23 5206.22 659.042   9
  10   1 -22 4614.54 496.280  15
  10  -1 -22 4746.80 493.993  15
  10  -1 -22 5656.30 692.306   9
  10  -1 -21 1350.25 556.820   9
  10   1 -21 1544.30 287.855  15
  10  -1 -21 1288.83 258.597  15
  10   1 -20 11367.0 787.342  15
  10  -1 -20 10694.2 744.479  15
  10  -1 -19 4041.96 544.577   9
  10   1 -19 3037.17 419.521  15
  10  -1 -19 3028.36 420.137  15
  10  -1 -18 953.273 355.094   9
  10   1 -18 1056.12 264.306  15
  10  -1 -18 1087.55 254.289  15
  10  -1 -17 278.331 259.126   9
  10   1 -17-188.698 220.872  15
  10  -1 -17 243.109 165.928  15
  10  -1 -16 2920.75 444.777   9
  10   1 -16 2185.33 386.989  15
  10  -1 -16 1954.51 362.220  15
  10  -1 -15 390.412 255.986   9
  10   1 -15-22.5270 200.310  15
  10  -1 -15-44.3899 171.883  15
  10  -1 -14 518.487 262.803   9
  10   1 -14 286.238 218.699  15
  10  -1 -14 182.397 174.899  15
  10  -1 -13 3919.49 515.574   9
  10   1 -13 2538.66 397.828  15
  10   1 -12 6076.42 596.912  11
  10   1 -12 5629.64 597.563  15
  10  -1 -11 28538.5 1307.02  11
  10   1 -11 29003.6 1320.61  11
  10   1 -11 25871.8 1215.06  15
  10  -1 -10 316.925 215.446  11
  10   1 -10 289.281 248.155  11
  10  -1 -10 934.001 381.192   9
  10  -1  -9 1990.65 382.952  11
  10   1  -9 2527.39 430.382  11
  10  -1  -9 2840.32 452.666   9
  10  -1  -8 6089.59 676.242  11
  10   1  -8 7071.19 686.302  11
  10  -1  -8 7161.41 668.110   9
  10  -1  -7 223.931 263.107  11
  10   1  -7-88.5377 178.405  11
  10  -1  -7 37.6825 201.000   9
  10  -1  -6-55.7885 241.355  11
  10   1  -6-82.6225 206.895  11
  10  -1  -6 356.598 250.472   9
  10  -1  -5 319.911 220.969  11
  10   1  -5 617.887 276.215  11
  10  -1  -5 330.099 255.124   9
  10  -1  -4 1574.76 399.946  11
  10   1  -4 1120.14 337.691  11
  10  -1  -4 1195.41 316.306   9
  10  -1  -4 1333.04 321.729   8
  10  -1  -3 4001.85 588.159  11
  10   1  -3 4581.38 599.542  11
  10  -1  -3 3943.67 516.171   9
  10  -1  -3 4300.52 520.758   8
  10  -1  -2 1230.46 393.076  11
  10   1  -2 1867.76 455.356  11
  10  -1  -2 1738.49 396.716   9
  10  -1  -2 1140.26 345.458   8
  10  -1  -1 9590.18 893.392  11
  10   1  -1 10378.0 930.851  11
  10  -1  -1 8507.31 769.617   9
  10  -1  -1 9716.35 790.781   8
  10  -1   0 29101.2 1486.06  11
  10   1   0 29365.2 1483.26  11
  10  -1   0 25901.9 1154.38   9
  10  -1   0 30132.9 1324.10   8
  10  -1   1 6522.61 754.512  11
  10   1   1 6667.69 744.003  11
  10  -1   1 5570.56 550.005   9
  10  -1   1 7124.04 672.757   8
  10  -1   2 8171.50 821.164  11
  10   1   2 7598.07 761.674  11
  10  -1   2 7006.86 626.764   9
  10  -1   2 7232.93 646.387   8
  10   1   3 5402.31 669.647  11
  10  -1   3 4853.59 639.352  11
  10  -1   3 4379.66 536.098   8
  10  -1   4 9486.06 882.163  11
  10   1   4 9172.29 848.816  11
  10  -1   4 7478.86 692.394   8
  10  -1   5 13715.5 1022.63  11
  10   1   5 13403.6 997.719  11
  10  -1   5 12593.7 834.640   8
  10  -1   6 12212.4 960.981  11
  10   1   6 12763.6 963.367  11
  10  -1   6 11570.9 801.733   8
  10  -1   7 11119.1 884.816  11
  10   1   7 11497.9 898.477  11
  10  -1   7 9260.23 700.588   8
  10  -1   8 5214.33 632.741  11
  10   1   8 5483.18 623.492  11
  10  -1   8 4084.90 467.743   8
  10  -1   9 5534.52 617.383  11
  10   1   9 4783.78 566.376  11
  10  -1   9 4256.66 474.026   8
  10  -1  10-293.981 252.331  11
  10   1  10-108.754 186.384  11
  10  -1  10-65.6434 161.446   8
  10  -1  11 913.735 269.128  11
  10   1  11 874.773 243.474  11
  10  -1  11 1064.41 236.869   8
  10  -1  12 7599.75 673.860  11
  10   1  12 6720.07 605.212  11
  10  -1  12 6766.33 528.128   8
  10  -1  13 6068.88 574.488  11
  10   1  13 6667.32 591.141  11
  10  -1  13 5863.22 480.084   8
  10   1  14 2917.02 374.137  11
  10   1  15 377.664 123.875  11
  10   2 -24 677.666 197.510  15
  10   2 -23 2304.08 325.497  15
  10  -2 -23 1998.57 278.009  15
  10   2 -22 40.1622 155.606  15
  10  -2 -22-167.565 128.974  15
  10  -2 -21 6753.67 549.211   9
  10   2 -21 6173.91 541.052  15
  10  -2 -21 5514.93 471.291  15
  10  -2 -20 1540.10 280.053   9
  10   2 -20 1623.31 289.068  15
  10  -2 -20 1461.48 255.442  15
  10   2 -19 6365.29 581.882  15
  10  -2 -19 5443.87 481.686  15
  10   2 -18 2508.32 380.172  15
  10  -2 -18 3146.71 384.402   9
  10  -2 -18 1994.28 310.615  15
  10   2 -17 3474.94 432.934  15
  10  -2 -17 2606.93 347.016  15
  10  -2 -16 4065.15 469.635   9
  10   2 -16 2828.27 411.487  15
  10   2 -15-70.1474 165.228  15
  10  -2 -15 605.201 258.847   9
  10  -2 -14 8674.79 692.285   9
  10   2 -14 5660.51 567.250  15
  10   2 -13 779.207 229.068  15
  10  -2 -13 1677.08 344.510   9
  10   2 -12 929.132 251.895  11
  10   2 -12 634.431 235.636  15
  10  -2 -12 1452.10 372.431   9
  10   2 -11 9445.55 712.126  11
  10  -2 -11 10457.4 759.549   9
  10   2 -11 8778.43 685.054  15
  10   2 -10 1405.07 335.637  11
  10   2 -10 852.155 255.224  15
  10   2  -9 14384.8 924.110  11
  10  -2  -9 15706.2 933.263   9
  10   2  -8 1521.39 325.698  11
  10  -2  -8 1625.53 333.536   9
  10  -2  -7 999.739 291.396  11
  10   2  -7 1673.83 355.636  11
  10  -2  -7 2184.62 395.611   9
  10  -2  -7 1414.63 291.406   8
  10   2  -6 4257.70 553.794  11
  10  -2  -6 3848.71 534.093  11
  10  -2  -6 4958.67 556.654   9
  10  -2  -6 4687.90 478.241   8
  10  -2  -5 6748.77 705.151  11
  10   2  -5 7771.52 712.904  11
  10  -2  -5 7350.15 640.868   9
  10  -2  -5 8019.48 626.263   8
  10  -2  -4 737.386 295.154  11
  10   2  -4 572.077 256.807  11
  10  -2  -4 559.266 241.441   9
  10  -2  -4 886.340 274.724   8
  10  -2  -3 677.357 267.758  11
  10   2  -3 1234.56 343.759  11
  10  -2  -3 757.958 231.653   9
  10  -2  -3 1362.71 318.707   8
  10  -2  -2 2014.52 442.012  11
  10   2  -2 1884.69 420.858  11
  10  -2  -2 1633.66 348.236   9
  10  -2  -2 1969.55 377.252   8
  10  -2  -1 6793.33 715.183  11
  10   2  -1 7265.63 693.528  11
  10  -2  -1 7407.34 610.465   9
  10  -2  -1 7140.89 611.244   8
  10  -2   0 209.691 238.367  11
  10   2   0 549.151 268.784  11
  10  -2   0 490.251 219.333   9
  10  -2   0 662.021 226.120   8
  10  -2   1 879.410 295.111  11
  10   2   1 1179.26 365.961  11
  10  -2   1 699.577 190.928   9
  10  -2   1 927.531 290.413   8
  10  -2   2-58.5745 199.281  11
  10   2   2 157.675 185.264  11
  10  -2   2 53.1326 139.564   9
  10  -2   2 501.788 230.916   8
  10  -2   3 111.486 213.882  11
  10   2   3 38.6708 208.327  11
  10  -2   3 346.570 229.973   8
  10  -2   4 263.103 267.507  11
  10   2   4-33.8229 187.778  11
  10  -2   4-1.28762 195.299   8
  10  -2   5 884.969 364.467  11
  10   2   5 674.456 329.171  11
  10  -2   5 575.799 278.388   8
  10  -2   6 13919.3 978.568  11
  10   2   6 14408.4 945.356  11
  10  -2   6 13886.5 819.480   8
  10   2   7 4242.61 387.087   7
  10  -2   7 4724.97 587.432  11
  10   2   7 5040.56 552.540  11
  10  -2   7 4454.59 456.318   8
  10   2   8 2302.06 410.905  11
  10   2   8 1668.41 260.631   7
  10  -2   8 2036.64 322.970   8
  10   2   9 501.447 255.528  11
  10   2   9 764.738 195.244   7
  10  -2   9 666.565 205.768   8
  10   2  10 1359.94 290.254  11
  10   2  10 1406.56 232.689   7
  10  -2  10 1516.25 268.872   8
  10   2  11-93.5522 169.528  11
  10   2  11-175.410 148.321   7
  10  -2  11 130.810 139.710   8
  10   2  12 4406.73 381.080   7
  10   2  12 4973.70 480.959  11
  10  -2  12 5061.35 445.571   8
  10   2  13 12751.2 615.472   7
  10   2  13 12812.7 723.217  11
  10  -2  13 12472.1 657.397   8
  10  -2  14 1081.97 201.114   8
  10  -2  15 4843.13 368.865   8
  10   3 -20-111.695 151.579  15
  10  -3 -19 9921.59 561.936   9
  10   3 -19 8351.98 572.037  15
  10  -3 -18 4125.08 385.403   9
  10   3 -18 3379.12 375.408  15
  10  -3 -17 3860.62 372.989   9
  10   3 -17 2947.43 371.625  15
  10   3 -16 1858.02 313.884  15
  10  -3 -16 2135.59 297.891   9
  10   3 -15 775.714 226.758  15
  10  -3 -15 760.864 191.971   9
  10   3 -14 1602.11 299.190  15
  10  -3 -14 2324.58 335.559   9
  10   3 -13 2183.57 324.780  15
  10  -3 -13 3014.34 378.602   9
  10   3 -12 2691.87 334.799  11
  10   3 -12 1956.04 296.846  15
  10   3 -11 10215.2 660.768  11
  10   3 -11 8315.27 613.454  15
  10   3 -10 749.734 237.419  11
  10   3 -10 883.131 209.558  15
  10   3  -9 5437.87 519.294  11
  10  -3  -9 6135.31 546.208   9
  10   3  -8 3278.29 455.124  11
  10  -3  -8 3492.78 473.599   9
  10   3  -7 14018.6 853.560  11
  10  -3  -7 13993.1 809.881   9
  10  -3  -7 12270.6 645.341   8
  10   3  -6 557.192 206.551  11
  10  -3  -6 876.047 220.300   8
  10   3  -5 4619.19 501.254  11
  10  -3  -5 4187.00 449.352   9
  10  -3  -5 3678.81 383.994   8
  10   3  -4 2846.58 414.123  11
  10  -3  -4 2379.57 352.493   9
  10  -3  -4 2369.70 315.666   8
  10  -3  -3 3081.22 417.260   9
  10  -3  -3 3171.68 394.915   8
  10   3  -2 17680.1 998.269  11
  10  -3  -2 16082.4 827.503   9
  10  -3  -2 17173.7 837.459   8
  10   3  -1 12821.7 852.179  11
  10  -3  -1 12656.9 723.188   9
  10  -3  -1 12745.3 732.870   8
  10   3   0 4714.51 532.891  11
  10  -3   0 4672.46 443.044   9
  10  -3   0 4797.05 470.240   8
  10   3   1 2430.20 407.608  11
  10  -3   1 1886.56 293.335   9
  10  -3   1 2292.61 363.417   8
  10   3   2 13293.6 858.970  11
  10  -3   2 13097.2 745.790   8
  10   3   3 718.162 256.212  11
  10   3   3 972.942 230.224   7
  10  -3   3 993.508 277.200   8
  10   3   4 8654.39 525.821   7
  10   3   4 9968.81 742.927  11
  10  -3   4 9241.33 625.596   8
  10   3   5 2363.49 394.494  11
  10   3   5 2020.33 275.699   7
  10  -3   5 1936.24 298.696   8
  10   3   6 330.744 193.052  11
  10   3   6-12.0828 120.546   7
  10  -3   6 1.80433 144.175   8
  10   3   7 1144.08 291.616  11
  10   3   7 773.566 152.207   7
  10  -3   7 1403.09 277.803   8
  10   3   8 3697.33 324.600   7
  10   3   8 4356.13 449.074  11
  10  -3   8 4444.60 417.898   8
  10   3   9 1429.73 274.507  11
  10   3   9 1864.63 244.515   7
  10  -3   9 1561.30 256.424   8
  10   3  10 172.853 165.095  11
  10   3  10 120.239 119.545   7
  10  -3  10-175.615 120.549   8
  10  -3  11 9.54674 130.302   8
  10  -3  12 589.597 168.810   8
  10  -4 -13 952.758 213.298   9
  10  -4 -12 16261.8 710.253   9
  10  -4 -11 9823.79 570.174   9
  10  -4 -10 8744.75 539.444   9
  10  -4  -9 1255.16 232.179   9
  10   4  -8 755.138 197.718  11
  10  -4  -8 802.438 209.559   9
  10   4  -7 2829.04 336.089  11
  10  -4  -7 3102.25 341.847   9
  10   4  -6 733.145 203.730  11
  10  -4  -6 686.006 189.082   9
  10   4  -5 2881.70 361.235  11
  10  -4  -5 2593.76 295.029   9
  10   4  -4 717.979 212.776  11
  10  -4  -4 498.226 178.770   9
  10   4  -3 1978.42 322.760  11
  10  -4  -3 1244.64 223.780   9
  10   4  -2 5316.47 478.796  11
  10   4  -1 2230.83 334.741  11
  10   4   0 918.291 227.756  11
  10   4   1 546.128 202.790  11
  10   4   2 1391.04 256.170  11
  10   4   3-128.961 134.485  11
  10   4   4 344.228 142.204  11
  11   0  -9 6184.60 485.984  11
  11   0  -8 1630.18 311.109  11
  11   0  -7 13593.9 768.042  11
  11   0  -6-69.7208 163.321  11
  11   0  -5 413.547 191.614  11
  11   0  -4 13.9404 145.108  11
  11   0  -3 794.505 254.847  11
  11   0  -2 358.909 220.963  11
  11   0  -1 3610.81 437.954  11
  11   0   0 1396.94 333.098  11
  11   0   1 9800.88 705.261  11
  11   0   2 1122.91 323.229  11
  11   0   3 11307.1 751.940  11
  11   0   4 809.978 281.563  11
  11   0   5 11346.1 712.483  11
  11   0   6 234.196 206.032  11
  11   0   7 17944.7 856.426  11
  11   0   8 242.092 154.725  11
  11  -1 -14-864.853 565.832   9
  11  -1 -13 6742.39 698.105   9
  11  -1 -12 2406.00 641.881   9
  11  -1 -11 3509.15 643.731   9
  11  -1 -10 2434.12 631.693   9
  11   1  -9 1420.56 256.720  11
  11  -1  -9 1518.25 607.104   9
  11   1  -8 1264.03 236.608  11
  11  -1  -8 1737.04 596.957   9
  11   1  -7 710.845 217.988  11
  11  -1  -7 978.464 555.354   9
  11  -1  -6 6477.45 520.956  11
  11   1  -6 6715.17 552.548  11
  11  -1  -6 6249.88 668.606   9
  11  -1  -5 2789.51 397.782  11
  11   1  -5 3520.43 429.787  11
  11  -1  -5 2884.70 617.416   9
  11  -1  -4 13171.4 770.556  11
  11   1  -4 13001.9 766.192  11
  11  -1  -4 12366.8 777.316   9
  11  -1  -3 1674.96 310.918  11
  11   1  -3 2857.04 397.797  11
  11  -1  -2 8099.01 613.677  11
  11   1  -2 8434.91 641.761  11
  11  -1  -1 3571.26 464.893  11
  11   1  -1 3952.48 478.456  11
  11  -1   0 13315.1 807.823  11
  11   1   0 13518.7 810.027  11
  11  -1   1 5429.14 531.071  11
  11   1   1 5232.81 507.711  11
  11  -1   2 2567.33 372.376  11
  11   1   2 3060.24 393.241  11
  11  -1   3 421.259 220.571  11
  11   1   3 287.835 176.413  11
  11  -1   4 622.771 212.759  11
  11   1   4 872.292 264.468  11
  11   1   5 1215.31 259.877  11
  11   1   6 827.054 217.102  11
  11   1   7 73.9848 134.051  11
  11  -2 -12 633.869 358.888   9
  11  -2 -11 586.120 357.626   9
  11  -2 -10 447.656 331.094   9
  11  -2  -9 1925.36 392.170   9
  11  -2  -8 2311.80 389.902   9
  11  -2  -7 1724.21 384.035   9
  11   2  -6 6889.92 522.953  11
  11  -2  -6 4555.96 446.606   9
  11   2  -5-124.573 131.387  11
  11   2  -4 259.917 155.065  11
  11   2  -3 559.971 210.412  11
  11   2  -2 3486.04 392.318  11
  11   2  -1 534.005 193.321  11
  11   2   0 1052.53 256.133  11
  11   2   1-38.4390 130.816  11
  11   2   2 478.046 209.000  11
  11   2   3 314.909 172.889  11
   0   0   0    0.00    0.00   0

TITL 2016jrh0001 in P2(1)/n
REM P2(1)/n (#14 in standard setting)
CELL 1.54184   9.229080   7.253643  38.970659  90.0000  95.7583  90.0000
ZERR    4.00   0.000176   0.000117   0.000937   0.0000   0.0019   0.0000
LATT  1
SYMM -x+1/2, y+1/2,-z+1/2
SFAC C H N O F S K
UNIT 84.00 104.00 8.00 20.00 12.00 4.00 4.00
TREF
HKLF 4
END
;
_shelx_hkl_checksum              1508
_olex2_date_sample_data_collection 2016-02-12
_olex2_submission_special_instructions 'No special instructions were received'
_oxdiff_exptl_absorpt_empirical_details
;
Empirical correction (ABSPACK) includes:
- Absorption correction using spherical harmonics
- Frame scaling
;
_oxdiff_exptl_absorpt_empirical_full_max 3.087
_oxdiff_exptl_absorpt_empirical_full_min 0.710
loop_
_space_group_symop_operation_xyz
'x, y, z'
'-x+1/2, y+1/2, -z+1/2'
'-x, -y, -z'
'x-1/2, -y-1/2, z-1/2'
loop_
_atom_site_label
_atom_site_type_symbol
_atom_site_fract_x
_atom_site_fract_y
_atom_site_fract_z
_atom_site_U_iso_or_equiv
_atom_site_adp_type
_atom_site_occupancy
_atom_site_site_symmetry_order
_atom_site_calc_flag
_atom_site_refinement_flags_posn
K1 K 0.68972(6) -0.13511(8) 0.48464(2) 0.01844(15) Uani 1 1 d .
K2 K 0.16449(7) 0.59423(9) 0.48631(2) 0.02326(16) Uani 1 1 d .
S1 S 0.52439(7) 0.33922(9) 0.45917(2) 0.01554(16) Uani 1 1 d .
S2 S 0.03585(7) 0.10068(9) 0.44848(2) 0.01662(16) Uani 1 1 d .
F6 F 0.3322(2) 1.2897(3) 0.30190(5) 0.0354(5) Uani 1 1 d .
F2 F 0.7599(2) 1.2262(3) 0.26261(5) 0.0329(4) Uani 1 1 d .
F3 F 0.8382(2) 1.3336(3) 0.31235(5) 0.0378(5) Uani 1 1 d .
O3 O 0.5849(2) 0.2112(3) 0.48596(5) 0.0192(4) Uani 1 1 d .
O1 O 0.7314(2) 0.5009(3) 0.38735(5) 0.0200(4) Uani 1 1 d .
O7 O 0.1375(2) -0.0480(3) 0.45929(6) 0.0218(4) Uani 1 1 d .
O6 O 0.0456(2) 0.2551(3) 0.47230(5) 0.0217(4) Uani 1 1 d .
O4 O 0.3662(2) 0.3526(3) 0.45742(5) 0.0215(4) Uani 1 1 d .
O8 O -0.1130(2) 0.0347(3) 0.44032(6) 0.0230(5) Uani 1 1 d .
F1 F 0.6182(2) 1.3835(3) 0.29133(6) 0.0427(6) Uani 1 1 d .
F4 F 0.1105(2) 1.3324(3) 0.28105(7) 0.0473(6) Uani 1 1 d .
O2 O 0.5952(2) 0.5185(3) 0.46146(6) 0.0226(4) Uani 1 1 d .
O5 O 0.2263(2) 0.4435(3) 0.37209(6) 0.0241(5) Uani 1 1 d .
F5 F 0.2492(3) 1.1576(3) 0.25474(6) 0.0432(5) Uani 1 1 d .
O10 O -0.1084(2) 0.6433(3) 0.45006(6) 0.0258(5) Uani 1 1 d .
O9 O 0.4219(3) -0.1671(3) 0.43304(7) 0.0325(5) Uani 1 1 d .
N2 N 0.5145(3) 0.3531(3) 0.39064(6) 0.0181(5) Uani 1 1 d .
H2 H 0.4279 0.3363 0.3808 0.022 Uiso 1 1 calc R
N4 N 0.0233(3) 0.3379(3) 0.39455(7) 0.0202(5) Uani 1 1 d .
H4 H -0.0661 0.3583 0.3978 0.024 Uiso 1 1 calc R
N1 N 0.5247(3) 0.6025(3) 0.35555(7) 0.0203(5) Uani 1 1 d .
H1 H 0.4349 0.5766 0.3494 0.024 Uiso 1 1 calc R
N3 N 0.0135(3) 0.6022(3) 0.36186(7) 0.0210(5) Uani 1 1 d .
H3 H -0.0775 0.6050 0.3649 0.025 Uiso 1 1 calc R
C13 C 0.1993(3) 0.8339(4) 0.35410(8) 0.0202(6) Uani 1 1 d .
H13 H 0.2533 0.7938 0.3741 0.024 Uiso 1 1 calc R
C8 C 0.5986(3) 0.4868(4) 0.37876(7) 0.0172(6) Uani 1 1 d .
C17 C 0.0964(3) 0.4600(4) 0.37606(7) 0.0184(6) Uani 1 1 d .
C5 C 0.5825(3) 0.7611(4) 0.34079(8) 0.0190(6) Uani 1 1 d .
C14 C 0.0700(3) 0.7448(4) 0.34238(8) 0.0190(6) Uani 1 1 d .
C11 C 0.1669(3) 1.0422(4) 0.30590(8) 0.0223(6) Uani 1 1 d .
C7 C 0.5821(3) 0.9620(4) 0.29179(8) 0.0210(6) Uani 1 1 d .
H7 H 0.5502 0.9901 0.2690 0.025 Uiso 1 1 calc R
C9 C 0.5663(3) 0.2391(4) 0.41923(7) 0.0186(6) Uani 1 1 d .
H9C H 0.6709 0.2238 0.4196 0.022 Uiso 1 1 calc R
H9D H 0.5217 0.1182 0.4165 0.022 Uiso 1 1 calc R
C18 C 0.0957(3) 0.1748(4) 0.40858(8) 0.0199(6) Uani 1 1 d .
H18A H 0.1996 0.1985 0.4120 0.024 Uiso 1 1 calc R
H18B H 0.0799 0.0757 0.3919 0.024 Uiso 1 1 calc R
C2 C 0.6755(3) 1.0809(4) 0.31110(8) 0.0205(6) Uani 1 1 d .
C3 C 0.7226(3) 1.0402(4) 0.34510(8) 0.0225(6) Uani 1 1 d .
H3A H 0.7858 1.1202 0.3579 0.027 Uiso 1 1 calc R
C4 C 0.6759(3) 0.8804(4) 0.36020(8) 0.0216(6) Uani 1 1 d .
H4A H 0.7068 0.8534 0.3831 0.026 Uiso 1 1 calc R
C12 C 0.2477(3) 0.9830(4) 0.33585(8) 0.0210(6) Uani 1 1 d .
H12 H 0.3339 1.0427 0.3437 0.025 Uiso 1 1 calc R
C1 C 0.7234(3) 1.2540(4) 0.29462(8) 0.0244(7) Uani 1 1 d .
C16 C 0.0397(3) 0.9504(4) 0.29387(8) 0.0250(7) Uani 1 1 d .
H16 H -0.0130 0.9890 0.2736 0.030 Uiso 1 1 calc R
C6 C 0.5366(3) 0.8010(4) 0.30667(8) 0.0213(6) Uani 1 1 d .
H6 H 0.4753 0.7198 0.2937 0.026 Uiso 1 1 calc R
C15 C -0.0091(3) 0.8020(4) 0.31189(8) 0.0233(6) Uani 1 1 d .
H15 H -0.0942 0.7409 0.3037 0.028 Uiso 1 1 calc R
C10 C 0.2154(3) 1.2047(5) 0.28634(9) 0.0279(7) Uani 1 1 d .
H10A H -0.095(5) 0.740(7) 0.4424(12) 0.047(14) Uiso 1 1 d .
H9A H 0.450(6) -0.293(9) 0.4392(15) 0.090(19) Uiso 1 1 d .
H10B H -0.166(5) 0.592(7) 0.4324(13) 0.056(14) Uiso 1 1 d .
H9B H 0.321(8) -0.131(10) 0.443(2) 0.13(3) Uiso 1 1 d .
loop_
_atom_site_aniso_label
_atom_site_aniso_U_11
_atom_site_aniso_U_22
_atom_site_aniso_U_33
_atom_site_aniso_U_23
_atom_site_aniso_U_13
_atom_site_aniso_U_12
K1 0.0179(3) 0.0120(3) 0.0259(3) 0.0010(2) 0.0041(2) -0.0004(2)
K2 0.0175(3) 0.0147(3) 0.0373(4) -0.0015(3) 0.0012(3) 0.0000(2)
S1 0.0143(3) 0.0111(3) 0.0217(3) 0.0004(2) 0.0040(2) 0.0004(2)
S2 0.0155(3) 0.0120(3) 0.0226(4) 0.0015(2) 0.0031(3) -0.0004(2)
F6 0.0299(10) 0.0290(10) 0.0475(12) 0.0094(9) 0.0047(9) -0.0085(8)
F2 0.0419(11) 0.0280(10) 0.0303(10) 0.0064(8) 0.0113(8) -0.0043(9)
F3 0.0409(11) 0.0308(11) 0.0415(12) 0.0029(9) 0.0027(9) -0.0188(9)
O3 0.0209(10) 0.0139(9) 0.0231(11) 0.0028(8) 0.0037(8) 0.0033(8)
O1 0.0137(10) 0.0201(10) 0.0264(11) 0.0038(8) 0.0039(8) 0.0008(8)
O7 0.0189(10) 0.0156(10) 0.0309(12) 0.0042(8) 0.0031(8) 0.0024(8)
O6 0.0261(11) 0.0157(10) 0.0238(11) -0.0024(8) 0.0051(8) -0.0014(8)
O4 0.0147(10) 0.0235(11) 0.0266(11) 0.0004(8) 0.0042(8) 0.0007(8)
O8 0.0164(10) 0.0209(11) 0.0318(12) 0.0021(9) 0.0023(8) -0.0033(8)
F1 0.0375(11) 0.0203(10) 0.0736(16) 0.0150(10) 0.0208(11) 0.0099(8)
F4 0.0278(11) 0.0336(12) 0.0822(17) 0.0307(11) 0.0132(10) 0.0086(9)
O2 0.0258(11) 0.0119(10) 0.0307(12) -0.0008(8) 0.0055(9) -0.0035(8)
O5 0.0135(10) 0.0234(11) 0.0362(13) 0.0067(9) 0.0059(8) 0.0022(8)
F5 0.0526(13) 0.0448(13) 0.0344(12) 0.0098(9) 0.0153(10) -0.0081(10)
O10 0.0258(12) 0.0195(12) 0.0318(13) -0.0015(10) 0.0010(10) -0.0015(9)
O9 0.0359(13) 0.0229(12) 0.0390(14) 0.0031(10) 0.0056(11) 0.0015(10)
N2 0.0136(11) 0.0177(12) 0.0231(13) 0.0030(10) 0.0019(9) 0.0000(9)
N4 0.0138(11) 0.0189(12) 0.0286(14) 0.0051(10) 0.0059(10) 0.0031(9)
N1 0.0133(11) 0.0190(12) 0.0285(14) 0.0066(10) 0.0013(10) -0.0010(9)
N3 0.0124(11) 0.0201(12) 0.0309(14) 0.0070(10) 0.0047(10) 0.0023(9)
C13 0.0198(14) 0.0200(14) 0.0211(15) 0.0012(11) 0.0031(11) 0.0030(11)
C8 0.0158(13) 0.0150(13) 0.0215(15) -0.0009(11) 0.0059(11) 0.0006(10)
C17 0.0185(14) 0.0166(14) 0.0201(15) 0.0007(11) 0.0024(11) 0.0006(11)
C5 0.0173(14) 0.0134(13) 0.0272(16) 0.0028(11) 0.0070(11) 0.0031(11)
C14 0.0185(14) 0.0151(14) 0.0241(15) 0.0011(11) 0.0061(11) 0.0035(11)
C11 0.0194(14) 0.0193(15) 0.0295(17) 0.0034(12) 0.0084(12) 0.0036(12)
C7 0.0226(15) 0.0192(14) 0.0217(15) 0.0004(12) 0.0042(12) 0.0034(12)
C9 0.0195(14) 0.0127(13) 0.0242(15) 0.0006(11) 0.0043(11) 0.0023(11)
C18 0.0175(14) 0.0171(14) 0.0259(15) 0.0029(12) 0.0056(11) 0.0026(11)
C2 0.0191(14) 0.0158(14) 0.0279(16) 0.0000(12) 0.0077(12) 0.0007(11)
C3 0.0228(15) 0.0173(14) 0.0275(16) -0.0022(12) 0.0035(12) -0.0021(12)
C4 0.0228(15) 0.0184(14) 0.0236(15) 0.0008(12) 0.0025(12) 0.0011(11)
C12 0.0155(14) 0.0190(14) 0.0293(16) -0.0014(12) 0.0057(11) 0.0014(11)
C1 0.0226(15) 0.0215(16) 0.0301(17) 0.0027(13) 0.0072(12) -0.0009(12)
C16 0.0241(15) 0.0233(16) 0.0273(17) 0.0053(13) 0.0011(12) 0.0033(12)
C6 0.0193(14) 0.0185(14) 0.0260(16) -0.0006(12) 0.0024(12) 0.0002(11)
C15 0.0179(14) 0.0211(15) 0.0308(17) 0.0015(12) 0.0020(12) -0.0015(12)
C10 0.0214(15) 0.0281(17) 0.0348(18) 0.0089(14) 0.0064(13) 0.0036(13)
loop_
_atom_type_symbol
_atom_type_description
_atom_type_scat_dispersion_real
_atom_type_scat_dispersion_imag
_atom_type_scat_source
C C 0.0181 0.0091 'International Tables Vol C Tables 4.2.6.8 and 6.1.1.4'
H H 0.0000 0.0000 'International Tables Vol C Tables 4.2.6.8 and 6.1.1.4'
F F 0.0727 0.0534 'International Tables Vol C Tables 4.2.6.8 and 6.1.1.4'
K K 0.3868 1.0657 'International Tables Vol C Tables 4.2.6.8 and 6.1.1.4'
N N 0.0311 0.0180 'International Tables Vol C Tables 4.2.6.8 and 6.1.1.4'
O O 0.0492 0.0322 'International Tables Vol C Tables 4.2.6.8 and 6.1.1.4'
S S 0.3331 0.5567 'International Tables Vol C Tables 4.2.6.8 and 6.1.1.4'
loop_
_geom_angle_atom_site_label_1
_geom_angle_atom_site_label_2
_geom_angle_atom_site_label_3
_geom_angle
_geom_angle_site_symmetry_1
_geom_angle_site_symmetry_3
K2 K1 H9A 93.5(13) 3_656 .
S1 K1 K2 68.514(18) 3_656 3_656
S1 K1 S2 88.58(2) 3_656 3_656
S1 K1 H9A 76.6(12) 3_656 .
S2 K1 K2 67.693(18) 3_656 3_656
S2 K1 H9A 159.5(13) 3_656 .
O3 K1 K2 90.75(4) 3_656 3_656
O3 K1 K2 161.29(5) . 3_656
O3 K1 S1 25.12(4) 3_656 3_656
O3 K1 S1 99.17(5) . 3_656
O3 K1 S2 98.95(5) . 3_656
O3 K1 S2 108.38(4) 3_656 3_656
O3 K1 O3 80.91(6) . 3_656
O3 K1 O7 74.31(6) . 3_656
O3 K1 O6 122.82(6) . 3_656
O3 K1 O6 114.84(6) 3_656 3_656
O3 K1 O4 114.07(6) . 3_656
O3 K1 O8 82.17(6) . 1_655
O3 K1 O2 138.35(6) . 1_545
O3 K1 O10 140.89(7) . 1_645
O3 K1 O9 79.27(6) . .
O3 K1 O9 64.32(6) 3_656 .
O3 K1 H9A 97.3(13) . .
O3 K1 H9A 62.1(12) 3_656 .
O7 K1 K2 91.48(4) 3_656 3_656
O7 K1 S1 91.44(5) 3_656 3_656
O7 K1 S2 24.66(4) 3_656 3_656
O7 K1 O3 102.91(6) 3_656 3_656
O7 K1 O6 49.04(6) 3_656 3_656
O7 K1 O8 85.61(6) 3_656 1_655
O7 K1 O9 152.32(6) 3_656 .
O7 K1 H9A 164.2(12) 3_656 .
O6 K1 K2 46.44(4) 3_656 3_656
O6 K1 S1 90.39(4) 3_656 3_656
O6 K1 S2 24.60(4) 3_656 3_656
O6 K1 O9 157.89(7) 3_656 .
O6 K1 H9A 139.5(13) 3_656 .
O4 K1 K2 49.58(4) 3_656 3_656
O4 K1 S1 24.69(4) 3_656 3_656
O4 K1 S2 67.60(4) 3_656 3_656
O4 K1 O3 49.72(6) 3_656 3_656
O4 K1 O7 77.60(6) 3_656 3_656
O4 K1 O6 65.86(6) 3_656 3_656
O4 K1 O8 151.80(6) 3_656 1_655
O4 K1 O10 103.79(7) 3_656 1_645
O4 K1 O9 106.45(7) 3_656 .
O4 K1 H9A 94.4(12) 3_656 .
O8 K1 K2 109.31(5) 1_655 3_656
O8 K1 S1 176.32(5) 1_655 3_656
O8 K1 S2 87.82(4) 1_655 3_656
O8 K1 O3 158.16(6) 1_655 3_656
O8 K1 O6 86.02(6) 1_655 3_656
O8 K1 O9 98.97(7) 1_655 .
O8 K1 H9A 106.7(12) 1_655 .
O2 K1 K2 51.89(5) 1_545 3_656
O2 K1 S1 68.61(5) 1_545 3_656
O2 K1 S2 119.50(5) 1_545 3_656
O2 K1 O3 72.68(6) 1_545 3_656
O2 K1 O7 142.25(6) 1_545 3_656
O2 K1 O6 97.64(6) 1_545 3_656
O2 K1 O4 71.39(6) 1_545 3_656
O2 K1 O8 112.62(6) 1_545 1_655
O2 K1 O10 62.76(7) 1_545 1_645
O2 K1 O9 60.50(7) 1_545 .
O2 K1 H9A 41.9(13) 1_545 .
O10 K1 K2 54.21(5) 1_645 3_656
O10 K1 S1 119.78(5) 1_645 3_656
O10 K1 S2 86.22(5) 1_645 3_656
O10 K1 O3 134.31(7) 1_645 3_656
O10 K1 O7 105.94(6) 1_645 3_656
O10 K1 O6 64.31(6) 1_645 3_656
O10 K1 O8 59.18(7) 1_645 1_655
O10 K1 O9 99.70(7) 1_645 .
O10 K1 H9A 89.1(12) 1_645 .
O9 K1 K2 112.23(5) . 3_656
O9 K1 S1 84.66(5) . 3_656
O9 K1 S2 172.63(5) . 3_656
O9 K1 H9A 18.7(13) . .
K1 K2 K1 130.33(2) 3_656 3_666
K1 K2 H10A 137.2(10) 3_656 .
K1 K2 H10A 92.3(10) 3_666 .
K2 K2 K1 121.71(3) 3_566 3_666
K2 K2 K1 81.93(2) 3_566 3_656
K2 K2 H10A 69.7(9) 3_566 .
S1 K2 K1 58.923(16) 3_666 3_666
S1 K2 K1 71.533(18) 3_666 3_656
S1 K2 K2 123.38(3) 3_666 3_566
S1 K2 H10A 151.2(10) 3_666 .
O3 K2 K1 94.21(4) 3_666 3_656
O3 K2 K1 38.33(4) 3_666 3_666
O3 K2 K2 139.47(5) 3_666 3_566
O3 K2 S1 24.78(4) 3_666 3_666
O3 K2 O6 99.69(6) 3_666 3_566
O3 K2 O4 85.24(6) 3_666 .
O3 K2 O2 49.48(5) 3_666 3_666
O3 K2 O10 99.62(6) 3_666 3_566
O3 K2 H10A 128.2(10) 3_666 .
O7 K2 K1 163.31(5) 1_565 3_656
O7 K2 K1 42.39(4) 1_565 3_666
O7 K2 K2 114.74(5) 1_565 3_566
O7 K2 S1 98.04(5) 1_565 3_666
O7 K2 O3 73.74(6) 1_565 3_666
O7 K2 O6 79.52(6) 1_565 3_566
O7 K2 O4 117.08(6) 1_565 .
O7 K2 O2 122.99(6) 1_565 3_666
O7 K2 O10 142.96(7) 1_565 3_566
O7 K2 H10A 54.7(10) 1_565 .
O6 K2 K1 173.40(5) . 3_666
O6 K2 K1 51.69(5) . 3_656
O6 K2 K1 73.28(4) 3_566 3_666
O6 K2 K1 114.51(5) 3_566 3_656
O6 K2 K2 48.43(4) 3_566 3_566
O6 K2 K2 51.70(5) . 3_566
O6 K2 S1 123.10(5) . 3_666
O6 K2 S1 99.76(5) 3_566 3_666
O6 K2 O3 145.45(6) . 3_666
O6 K2 O7 137.86(7) . 1_565
O6 K2 O6 100.13(6) . 3_566
O6 K2 O4 68.53(6) . .
O6 K2 O4 163.38(6) 3_566 .
O6 K2 O2 98.44(6) . 3_666
O6 K2 O2 102.73(6) 3_566 3_666
O6 K2 O10 65.49(6) 3_566 3_566
O6 K2 O10 71.84(7) . .
O6 K2 O10 64.11(6) . 3_566
O6 K2 H10A 85.5(10) . .
O6 K2 H10A 68.8(9) 3_566 .
O4 K2 K1 117.82(5) . 3_666
O4 K2 K1 49.01(4) . 3_656
O4 K2 K2 119.06(5) . 3_566
O4 K2 S1 78.07(4) . 3_666
O4 K2 O2 68.38(6) . 3_666
O4 K2 O10 98.11(6) . 3_566
O4 K2 H10A 120.4(9) . .
O2 K2 K1 82.95(4) 3_666 3_666
O2 K2 K1 47.44(4) 3_666 3_656
O2 K2 K2 106.69(5) 3_666 3_566
O2 K2 S1 24.96(4) 3_666 3_666
O2 K2 O10 58.19(6) 3_666 3_566
O2 K2 H10A 171.3(9) 3_666 .
O10 K2 K1 49.11(4) 3_566 3_656
O10 K2 K1 105.21(5) . 3_666
O10 K2 K1 111.84(5) 3_566 3_666
O10 K2 K1 123.32(6) . 3_656
O10 K2 K2 48.51(5) 3_566 3_566
O10 K2 K2 56.65(5) . 3_566
O10 K2 S1 77.27(5) 3_566 3_666
O10 K2 S1 162.67(6) . 3_666
O10 K2 O3 142.47(7) . 3_666
O10 K2 O7 69.45(7) . 1_565
O10 K2 O6 66.89(6) . 3_566
O10 K2 O4 117.95(7) . .
O10 K2 O2 163.34(7) . 3_666
O10 K2 O10 105.15(6) . 3_566
O10 K2 H10A 14.9(9) . .
O10 K2 H10A 117.7(9) 3_566 .
K1 S1 K2 99.53(2) 3_656 3_666
O3 S1 K1 58.29(8) . 3_656
O3 S1 K2 54.02(8) . 3_666
O3 S1 C9 105.15(12) . .
O4 S1 K1 54.56(9) . 3_656
O4 S1 K2 142.36(9) . 3_666
O4 S1 O3 112.57(12) . .
O4 S1 C9 106.75(13) . .
O2 S1 K1 129.15(9) . 3_656
O2 S1 K2 59.53(9) . 3_666
O2 S1 O3 112.73(12) . .
O2 S1 O4 112.68(12) . .
O2 S1 C9 106.27(13) . .
C9 S1 K1 124.56(10) . 3_656
C9 S1 K2 110.74(10) . 3_666
O7 S2 K1 55.67(9) . 3_656
O7 S2 C18 103.14(13) . .
O6 S2 K1 57.88(9) . 3_656
O6 S2 O7 112.81(13) . .
O6 S2 O8 112.90(13) . .
O6 S2 C18 108.67(13) . .
O8 S2 K1 142.25(9) . 3_656
O8 S2 O7 112.53(12) . .
O8 S2 C18 106.00(13) . .
C18 S2 K1 111.58(10) . 3_656
K1 O3 K1 99.09(6) . 3_656
K1 O3 K2 101.02(6) . 3_666
K2 O3 K1 130.47(8) 3_666 3_656
S1 O3 K1 133.58(12) . .
S1 O3 K1 96.59(9) . 3_656
S1 O3 K2 101.20(10) . 3_666
K2 O7 K1 96.87(6) 1_545 3_656
S2 O7 K1 99.66(10) . 3_656
S2 O7 K2 145.19(12) . 1_545
K2 O6 K1 111.17(7) 3_566 3_656
K2 O6 K1 81.88(6) . 3_656
K2 O6 K2 79.87(6) . 3_566
S2 O6 K1 97.51(10) . 3_656
S2 O6 K2 130.80(12) . 3_566
S2 O6 K2 145.29(12) . .
K1 O4 K2 81.41(6) 3_656 .
S1 O4 K1 100.75(10) . 3_656
S1 O4 K2 135.11(12) . .
S2 O8 K1 129.91(12) . 1_455
K1 O2 K2 80.67(6) 1_565 3_666
S1 O2 K1 162.24(13) . 1_565
S1 O2 K2 95.51(10) . 3_666
K1 O10 K2 76.69(6) 1_465 3_566
K1 O10 H10A 79(3) 1_465 .
K1 O10 H10B 103(3) 1_465 .
K2 O10 K1 115.25(8) . 1_465
K2 O10 K2 74.85(6) . 3_566
K2 O10 H10A 149(4) 3_566 .
K2 O10 H10A 98(3) . .
K2 O10 H10B 140(3) . .
K2 O10 H10B 104(3) 3_566 .
H10A O10 H10B 100(4) . .
K1 O9 H9A 74(3) . .
K1 O9 H9B 115(4) . .
H9A O9 H9B 111(5) . .
C8 N2 H2 119.3 . .
C8 N2 C9 121.5(2) . .
C9 N2 H2 119.3 . .
C17 N4 H4 120.0 . .
C17 N4 C18 120.0(2) . .
C18 N4 H4 120.0 . .
C8 N1 H1 117.1 . .
C8 N1 C5 125.8(2) . .
C5 N1 H1 117.1 . .
C17 N3 H3 118.4 . .
C17 N3 C14 123.2(2) . .
C14 N3 H3 118.4 . .
C14 C13 H13 120.0 . .
C12 C13 H13 120.0 . .
C12 C13 C14 120.1(3) . .
O1 C8 N2 123.5(3) . .
O1 C8 N1 122.8(3) . .
N2 C8 N1 113.6(2) . .
O5 C17 N4 123.0(3) . .
O5 C17 N3 122.4(3) . .
N4 C17 N3 114.7(2) . .
C4 C5 N1 121.6(3) . .
C6 C5 N1 118.0(3) . .
C6 C5 C4 120.3(3) . .
C13 C14 N3 120.9(3) . .
C13 C14 C15 119.9(3) . .
C15 C14 N3 119.1(3) . .
C12 C11 C16 120.0(3) . .
C12 C11 C10 120.6(3) . .
C16 C11 C10 119.4(3) . .
C2 C7 H7 120.2 . .
C2 C7 C6 119.6(3) . .
C6 C7 H7 120.2 . .
S1 C9 H9C 109.5 . .
S1 C9 H9D 109.5 . .
N2 C9 S1 110.92(19) . .
N2 C9 H9C 109.5 . .
N2 C9 H9D 109.5 . .
H9C C9 H9D 108.0 . .
S2 C18 H18A 108.8 . .
S2 C18 H18B 108.8 . .
N4 C18 S2 114.0(2) . .
N4 C18 H18A 108.8 . .
N4 C18 H18B 108.8 . .
H18A C18 H18B 107.7 . .
C7 C2 C1 118.9(3) . .
C3 C2 C7 120.4(3) . .
C3 C2 C1 120.7(3) . .
C2 C3 H3A 119.9 . .
C2 C3 C4 120.2(3) . .
C4 C3 H3A 119.9 . .
C5 C4 H4A 120.3 . .
C3 C4 C5 119.4(3) . .
C3 C4 H4A 120.3 . .
C13 C12 H12 120.1 . .
C11 C12 C13 119.8(3) . .
C11 C12 H12 120.1 . .
F2 C1 F1 105.2(3) . .
F2 C1 C2 112.7(3) . .
F3 C1 F2 106.6(2) . .
F3 C1 F1 105.9(3) . .
F3 C1 C2 113.2(3) . .
F1 C1 C2 112.6(2) . .
C11 C16 H16 119.7 . .
C15 C16 C11 120.5(3) . .
C15 C16 H16 119.7 . .
C5 C6 C7 120.1(3) . .
C5 C6 H6 120.0 . .
C7 C6 H6 120.0 . .
C14 C15 H15 120.2 . .
C16 C15 C14 119.6(3) . .
C16 C15 H15 120.2 . .
F6 C10 F4 106.8(3) . .
F6 C10 F5 106.4(3) . .
F6 C10 C11 113.7(3) . .
F4 C10 F5 105.4(3) . .
F4 C10 C11 112.0(3) . .
F5 C10 C11 112.0(3) . .
loop_
_geom_bond_atom_site_label_1
_geom_bond_atom_site_label_2
_geom_bond_distance
_geom_bond_site_symmetry_2
K1 K2 3.7252(8) 3_656
K1 S1 3.4293(9) 3_656
K1 S2 3.4562(9) 3_656
K1 O3 2.694(2) .
K1 O3 2.937(2) 3_656
K1 O7 2.895(2) 3_656
K1 O6 2.953(2) 3_656
K1 O4 2.844(2) 3_656
K1 O8 2.907(2) 1_655
K1 O2 2.781(2) 1_545
K1 O10 2.894(2) 1_645
K1 O9 3.035(3) .
K1 H9A 2.92(6) .
K2 K1 3.7252(8) 3_656
K2 K1 4.2636(8) 3_666
K2 K2 3.5881(13) 3_566
K2 S1 3.4303(9) 3_666
K2 O3 2.830(2) 3_666
K2 O7 2.802(2) 1_565
K2 O6 2.727(2) .
K2 O6 2.861(2) 3_566
K2 O4 2.868(2) .
K2 O2 2.971(2) 3_666
K2 O10 2.784(2) .
K2 O10 3.105(3) 3_566
K2 H10A 3.00(5) .
S1 K1 3.4291(9) 3_656
S1 K2 3.4302(9) 3_666
S1 O3 1.465(2) .
S1 O4 1.458(2) .
S1 O2 1.454(2) .
S1 C9 1.795(3) .
S2 K1 3.4562(9) 3_656
S2 O7 1.463(2) .
S2 O6 1.451(2) .
S2 O8 1.459(2) .
S2 C18 1.785(3) .
F6 C10 1.334(4) .
F2 C1 1.340(4) .
F3 C1 1.337(4) .
O3 K1 2.937(2) 3_656
O3 K2 2.830(2) 3_666
O1 C8 1.242(3) .
O7 K1 2.895(2) 3_656
O7 K2 2.803(2) 1_545
O6 K1 2.953(2) 3_656
O6 K2 2.860(2) 3_566
O4 K1 2.844(2) 3_656
O8 K1 2.907(2) 1_455
F1 C1 1.348(4) .
F4 C10 1.341(4) .
O2 K1 2.781(2) 1_565
O2 K2 2.970(2) 3_666
O5 C17 1.230(4) .
F5 C10 1.345(4) .
O10 K1 2.894(2) 1_465
O10 K2 3.105(3) 3_566
O10 H10A 0.78(5) .
O10 H10B 0.91(5) .
O9 H9A 0.98(7) .
O9 H9B 1.08(8) .
N2 H2 0.8600 .
N2 C8 1.353(4) .
N2 C9 1.431(4) .
N4 H4 0.8600 .
N4 C17 1.362(4) .
N4 C18 1.439(4) .
N1 H1 0.8600 .
N1 C8 1.365(4) .
N1 C5 1.415(4) .
N3 H3 0.8600 .
N3 C17 1.368(4) .
N3 C14 1.413(4) .
C13 H13 0.9300 .
C13 C14 1.393(4) .
C13 C12 1.392(4) .
C5 C4 1.391(4) .
C5 C6 1.385(4) .
C14 C15 1.394(4) .
C11 C12 1.388(4) .
C11 C16 1.389(4) .
C11 C10 1.497(4) .
C7 H7 0.9300 .
C7 C2 1.386(4) .
C7 C6 1.388(4) .
C9 H9C 0.9700 .
C9 H9D 0.9700 .
C18 H18A 0.9700 .
C18 H18B 0.9700 .
C2 C3 1.384(4) .
C2 C1 1.497(4) .
C3 H3A 0.9300 .
C3 C4 1.388(4) .
C4 H4A 0.9300 .
C12 H12 0.9300 .
C16 H16 0.9300 .
C16 C15 1.385(4) .
C6 H6 0.9300 .
C15 H15 0.9300 .
loop_
_geom_hbond_atom_site_label_D
_geom_hbond_atom_site_label_H
_geom_hbond_atom_site_label_A
_geom_hbond_distance_DH
_geom_hbond_distance_HA
_geom_hbond_distance_DA
_geom_hbond_angle_DHA
_geom_hbond_site_symmetry_A
N2 H2 O5 0.86 2.01 2.764(3) 145.3 .
O10 H10A O8 0.78(5) 2.14(5) 2.864(3) 154(5) 1_565
loop_
_geom_torsion_atom_site_label_1
_geom_torsion_atom_site_label_2
_geom_torsion_atom_site_label_3
_geom_torsion_atom_site_label_4
_geom_torsion
_geom_torsion_site_symmetry_1
_geom_torsion_site_symmetry_4
K1 S1 O3 K1 109.23(16) 3_656 .
K1 S1 O3 K2 -133.55(10) 3_656 3_666
K1 S1 O4 K2 88.57(16) 3_656 .
K1 S1 O2 K1 0.1(5) 3_656 1_565
K1 S1 O2 K2 76.63(10) 3_656 3_666
K1 S1 C9 N2 119.18(18) 3_656 .
K1 S2 O7 K2 117.2(2) 3_656 1_545
K1 S2 O6 K2 -126.51(16) 3_656 3_566
K1 S2 O6 K2 86.6(2) 3_656 .
K1 S2 O8 K1 1.8(2) 3_656 1_455
K1 S2 C18 N4 -114.68(19) 3_656 .
K2 S1 O3 K1 133.55(10) 3_666 3_656
K2 S1 O3 K1 -117.22(17) 3_666 .
K2 S1 O4 K1 -53.83(16) 3_666 3_656
K2 S1 O4 K2 34.7(3) 3_666 .
K2 S1 O2 K1 -76.5(4) 3_666 1_565
K2 S1 C9 N2 -122.41(18) 3_666 .
O3 S1 O4 K1 5.98(14) . 3_656
O3 S1 O4 K2 94.56(17) . .
O3 S1 O2 K1 -66.7(4) . 1_565
O3 S1 O2 K2 9.82(13) . 3_666
O3 S1 C9 N2 -179.17(19) . .
O7 S2 O6 K1 9.47(13) . 3_656
O7 S2 O6 K2 96.0(2) . .
O7 S2 O6 K2 -117.04(15) . 3_566
O7 S2 O8 K1 64.28(18) . 1_455
O7 S2 C18 N4 -172.6(2) . .
O6 S2 O7 K1 -9.72(13) . 3_656
O6 S2 O7 K2 107.5(2) . 1_545
O6 S2 O8 K1 -64.84(18) . 1_455
O6 S2 C18 N4 -52.7(2) . .
O4 S1 O3 K1 103.50(16) . .
O4 S1 O3 K1 -5.73(13) . 3_656
O4 S1 O3 K2 -139.28(10) . 3_666
O4 S1 O2 K1 62.1(4) . 1_565
O4 S1 O2 K2 138.58(10) . 3_666
O4 S1 C9 N2 61.0(2) . .
O8 S2 O7 K1 -138.88(11) . 3_656
O8 S2 O7 K2 -21.7(3) . 1_545
O8 S2 O6 K1 138.45(10) . 3_656
O8 S2 O6 K2 11.94(19) . 3_566
O8 S2 O6 K2 -135.0(2) . .
O8 S2 C18 N4 68.9(2) . .
O2 S1 O3 K1 123.08(11) . 3_656
O2 S1 O3 K1 -127.69(15) . .
O2 S1 O3 K2 -10.47(13) . 3_666
O2 S1 O4 K1 -122.86(11) . 3_656
O2 S1 O4 K2 -34.3(2) . .
O2 S1 C9 N2 -59.4(2) . .
N1 C5 C4 C3 -176.0(3) . .
N1 C5 C6 C7 175.4(3) . .
N3 C14 C15 C16 175.3(3) . .
C13 C14 C15 C16 -1.6(5) . .
C8 N2 C9 S1 90.1(3) . .
C8 N1 C5 C4 -40.4(4) . .
C8 N1 C5 C6 143.3(3) . .
C17 N4 C18 S2 147.4(2) . .
C17 N3 C14 C13 -47.0(4) . .
C17 N3 C14 C15 136.1(3) . .
C5 N1 C8 O1 -6.3(5) . .
C5 N1 C8 N2 175.4(3) . .
C14 N3 C17 O5 -2.0(5) . .
C14 N3 C17 N4 178.7(3) . .
C14 C13 C12 C11 -0.2(4) . .
C11 C16 C15 C14 0.2(5) . .
C7 C2 C3 C4 -0.4(5) . .
C7 C2 C1 F2 -43.6(4) . .
C7 C2 C1 F3 -164.7(3) . .
C7 C2 C1 F1 75.2(4) . .
C9 S1 O3 K1 -12.34(19) . .
C9 S1 O3 K1 -121.57(11) . 3_656
C9 S1 O3 K2 104.88(12) . 3_666
C9 S1 O4 K1 120.86(11) . 3_656
C9 S1 O4 K2 -150.56(16) . .
C9 S1 O2 K1 178.6(4) . 1_565
C9 S1 O2 K2 -104.85(11) . 3_666
C9 N2 C8 O1 12.5(4) . .
C9 N2 C8 N1 -169.2(3) . .
C18 S2 O7 K1 107.33(12) . 3_656
C18 S2 O7 K2 -135.4(2) . 1_545
C18 S2 O6 K1 -104.26(11) . 3_656
C18 S2 O6 K2 129.23(15) . 3_566
C18 S2 O6 K2 -17.7(3) . .
C18 S2 O8 K1 176.31(14) . 1_455
C18 N4 C17 O5 -4.1(4) . .
C18 N4 C17 N3 175.3(3) . .
C2 C7 C6 C5 1.0(4) . .
C2 C3 C4 C5 0.6(4) . .
C3 C2 C1 F2 136.8(3) . .
C3 C2 C1 F3 15.7(4) . .
C3 C2 C1 F1 -104.4(3) . .
C4 C5 C6 C7 -0.9(4) . .
C12 C13 C14 N3 -175.3(3) . .
C12 C13 C14 C15 1.6(4) . .
C12 C11 C16 C15 1.3(5) . .
C12 C11 C10 F6 -5.0(4) . .
C12 C11 C10 F4 -126.2(3) . .
C12 C11 C10 F5 115.7(3) . .
C1 C2 C3 C4 179.2(3) . .
C16 C11 C12 C13 -1.3(5) . .
C16 C11 C10 F6 174.9(3) . .
C16 C11 C10 F4 53.8(4) . .
C16 C11 C10 F5 -64.4(4) . .
C6 C5 C4 C3 0.1(4) . .
C6 C7 C2 C3 -0.4(4) . .
C6 C7 C2 C1 -180.0(3) . .
C10 C11 C12 C13 178.7(3) . .
C10 C11 C16 C15 -178.7(3) . .
