#------------------------------------------------------------------------------
#$Date: 2016-07-08 04:11:40 +0300 (Fri, 08 Jul 2016) $
#$Revision: 184295 $
#$URL: file:///home/coder/svn-repositories/cod/cif/1/54/36/1543622.cif $
#------------------------------------------------------------------------------
#
# This file is available in the Crystallography Open Database (COD),
# http://www.crystallography.net/. The original data for this entry
# were provided by IUCr Journals, http://journals.iucr.org/.
#
# The file may be used within the scientific community so long as
# proper attribution is given to the journal article from which the
# data were obtained.
#
data_1543622
loop_
_publ_author_name
'Tachallait, Hamza'
'Karrouchi, Khalid'
'Bougrin, Khalid'
'Mague, Joel T.'
'Ramli, Youssef'
_publ_section_title
;
 Ethyl
 2-[(5<i>Z</i>)-5-(4-methoxybenzylidene)-2,4-dioxo-1,3-thiazolidin-3-yl]acetate
;
_journal_coeditor_code           HB4063
_journal_issue                   7
_journal_name_full               IUCrData
_journal_page_first              x161041
_journal_paper_doi               10.1107/S2414314616010415
_journal_volume                  1
_journal_year                    2016
_chemical_formula_iupac          'C15 H15 N O5 S'
_chemical_formula_moiety         'C15 H15 N O5 S'
_chemical_formula_sum            'C15 H15 N O5 S'
_chemical_formula_weight         321.34
_chemical_name_systematic
'Ethyl 2-[(5<i>Z</i>)-5-(4-methoxybenzylidene)-2,4-dioxo-1,3-thiazolidin-3-yl]acetate'
_space_group_crystal_system      triclinic
_space_group_IT_number           2
_space_group_name_Hall           '-P 1'
_space_group_name_H-M_alt        'P -1'
_symmetry_space_group_name_Hall  '-P 1'
_symmetry_space_group_name_H-M   'P -1'
_atom_sites_solution_hydrogens   geom
_atom_sites_solution_primary     direct
_atom_sites_solution_secondary   difmap
_audit_creation_method           SHELXL-2014/7
_cell_angle_alpha                68.8450(10)
_cell_angle_beta                 78.9710(10)
_cell_angle_gamma                84.9190(10)
_cell_formula_units_Z            2
_cell_length_a                   6.1957(2)
_cell_length_b                   10.6460(3)
_cell_length_c                   12.2909(3)
_cell_measurement_reflns_used    8632
_cell_measurement_temperature    150.(2)
_cell_measurement_theta_max      72.0429
_cell_measurement_theta_min      3.9144
_cell_volume                     741.93(4)
_computing_cell_refinement
;
<i>SAINT</i> (Bruker, 2016)
;
_computing_data_collection
;
<i>APEX3</i> (Bruker, 2016)
;
_computing_data_reduction
;
<i>SAINT</i>  (Bruker, 2016)
;
_computing_molecular_graphics
;
<i>DIAMOND</i> (Brandenburg & Putz, 2012)
;
_computing_publication_material
;
<i>SHELXTL</i> (Sheldrick, 2008)
;
_computing_structure_refinement
;
<i>SHELXL2014</i> (Sheldrick, 2015<i>b</i>)
;
_computing_structure_solution
;
<i>SHELXT</i> (Sheldrick, 2015<i>a</i>)
;
_diffrn_ambient_temperature      150(2)
_diffrn_detector_area_resol_mean 10.4167
_diffrn_measured_fraction_theta_full 0.990
_diffrn_measured_fraction_theta_max 0.986
_diffrn_measurement_device_type  'Bruker D8 VENTURE PHOTON 100 CMOS'
_diffrn_measurement_method       '\w scans'
_diffrn_radiation_monochromator  mirror
_diffrn_radiation_type           CuK\a
_diffrn_radiation_wavelength     1.54178
_diffrn_reflns_av_R_equivalents  0.0272
_diffrn_reflns_limit_h_max       7
_diffrn_reflns_limit_h_min       -7
_diffrn_reflns_limit_k_max       13
_diffrn_reflns_limit_k_min       -12
_diffrn_reflns_limit_l_max       14
_diffrn_reflns_limit_l_min       -12
_diffrn_reflns_number            10428
_diffrn_reflns_theta_full        70.000
_diffrn_reflns_theta_max         72.071
_diffrn_reflns_theta_min         3.914
_exptl_absorpt_coefficient_mu    2.162
_exptl_absorpt_correction_T_max  0.92
_exptl_absorpt_correction_T_min  0.80
_exptl_absorpt_correction_type   multi-scan
_exptl_absorpt_process_details
;
(<i>SADABS</i>; Bruker, 2016)
;
_exptl_crystal_colour            colourless
_exptl_crystal_density_diffrn    1.438
_exptl_crystal_density_method    'not measured'
_exptl_crystal_description       plate
_exptl_crystal_F_000             336
_exptl_crystal_size_max          0.210
_exptl_crystal_size_mid          0.110
_exptl_crystal_size_min          0.040
_refine_diff_density_max         0.287
_refine_diff_density_min         -0.228
_refine_ls_extinction_coef       0.0071(7)
_refine_ls_extinction_expression Fc^*^=kFc[1+0.001xFc^2^\l^3^/sin(2\q)]^-1/4^
_refine_ls_extinction_method
;
SHELXL2014 (Sheldrick 2015<i>b</i>)
;
_refine_ls_goodness_of_fit_ref   1.046
_refine_ls_hydrogen_treatment    constr
_refine_ls_matrix_type           full
_refine_ls_number_parameters     202
_refine_ls_number_reflns         2884
_refine_ls_number_restraints     0
_refine_ls_restrained_S_all      1.046
_refine_ls_R_factor_all          0.0324
_refine_ls_R_factor_gt           0.0302
_refine_ls_shift/su_max          0.001
_refine_ls_shift/su_mean         0.000
_refine_ls_structure_factor_coef Fsqd
_refine_ls_weighting_details
'w=1/[\s^2^(Fo^2^)+(0.0403P)^2^+0.2407P] where P=(Fo^2^+2Fc^2^)/3'
_refine_ls_weighting_scheme      calc
_refine_ls_wR_factor_gt          0.0770
_refine_ls_wR_factor_ref         0.0787
_reflns_number_gt                2690
_reflns_number_total             2884
_reflns_threshold_expression     'I > 2\s(I)'
_cod_data_source_file            hb4063sup1.cif
_cod_data_source_block           I
_cod_database_code               1543622
_shelx_space_group_comment
;
The symmetry employed for this shelxl refinement is uniquely defined
by the following loop, which should always be used as a source of
symmetry information in preference to the above space-group names.
They are only intended as comments.
;
_shelx_estimated_absorpt_t_min   0.659
_shelx_estimated_absorpt_t_max   0.918
_shelx_hkl_file
;
  -1   0   0   57.92    1.80
  -1   0   0   61.19    1.81
   1   0   0   57.59    1.80
   1   0   0   62.26    1.82
   2   0   0    0.65    0.04
   2   0   0    0.62    0.04
   3   0   0   30.58    0.95
  -4   0   0   25.31    0.79
   4   0   0   24.89    0.80
   4   0   0   24.02    0.79
  -5   0   0    0.22    0.06
   5   0   0    0.16    0.07
   5   0   0    0.03    0.07
  -6   0   0    1.46    0.10
  -6   0   0    1.47    0.10
   6   0   0    1.37    0.12
   6   0   0    1.36    0.12
  -7   0   0    2.83    0.13
   7   0   0    2.91    0.13
   7   0   0    3.13    0.13
   7  -1   0    3.04    0.13
   7  -1   0    2.97    0.13
  -7   1   0    3.21    0.13
   6  -1   0    0.38    0.09
   6  -1   0    0.21    0.06
  -6   1   0    0.46    0.07
  -6   1   0    0.26    0.07
   5  -1   0    9.99    0.36
   5  -1   0    9.66    0.38
   5  -1   0    9.68    0.36
  -5   1   0    9.62    0.35
   4  -1   0    1.67    0.13
   4  -1   0    1.75    0.12
  -4   1   0    1.64    0.13
   3  -1   0   22.51    0.68
   3  -1   0   21.48    0.69
   2  -1   0    2.70    0.10
   2  -1   0    2.86    0.10
   2  -1   0    2.41    0.10
   1  -1   0    1.29    0.05
   1  -1   0    1.31    0.05
  -1   1   0    1.16    0.05
   0  -1   0   79.97    2.39
   0   1   0   77.54    2.36
  -1  -1   0    0.02    0.01
  -1  -1   0    0.03    0.01
   1   1   0    0.04    0.01
   1   1   0    0.03    0.01
  -2  -1   0    0.51    0.04
   2   1   0    0.48    0.04
   2   1   0    0.45    0.05
  -3  -1   0    4.09    0.15
   3   1   0    4.04    0.16
   4   1   0    0.05    0.05
   4   1   0    0.13    0.08
  -5  -1   0   16.51    0.57
  -5  -1   0   17.48    0.57
   5   1   0   17.06    0.58
  -6  -1   0    7.34    0.29
  -6  -1   0    7.97    0.29
   6   1   0    8.01    0.30
   6   1   0    8.04    0.30
  -7  -1   0    0.99    0.07
   7   1   0    0.82    0.08
   7   1   0    0.82    0.07
   7  -2   0    0.88    0.07
  -7   2   0    0.98    0.07
  -7   2   0    0.90    0.06
   6  -2   0    2.49    0.15
   6  -2   0    2.70    0.14
  -6   2   0    2.73    0.14
  -6   2   0    2.71    0.13
   5  -2   0    1.32    0.12
   5  -2   0    1.32    0.14
   5  -2   0    1.29    0.14
  -5   2   0    1.36    0.11
  -5   2   0    1.37    0.10
   4  -2   0   15.71    0.54
   4  -2   0   15.91    0.53
   4  -2   0   15.58    0.53
  -4   2   0   15.60    0.52
   3  -2   0  156.18    4.72
   3  -2   0  159.58    4.74
   3  -2   0  156.97    4.72
   2  -2   0    0.26    0.03
   2  -2   0    0.28    0.04
   2  -2   0    0.36    0.06
   1  -2   0    7.26    0.22
   1  -2   0    6.91    0.21
  -1   2   0    6.13    0.22
  -1   2   0    6.34    0.21
   0  -2   0   20.89    0.64
   0   2   0   21.19    0.63
  -1  -2   0  194.64    6.15
  -1  -2   0  210.98    6.19
   1   2   0  207.96    6.16
   1   2   0  203.96    6.19
  -2  -2   0    5.53    0.19
   2   2   0    5.16    0.19
  -3  -2   0    9.31    0.31
   3   2   0    8.98    0.31
  -4  -2   0    0.50    0.14
   4   2   0    0.02    0.06
   4   2   0    0.02    0.07
  -5  -2   0    2.54    0.14
  -5  -2   0    2.29    0.15
  -6  -2   0   15.46    0.52
  -6  -2   0   16.44    0.53
   6   2   0   15.90    0.54
   6   2   0   15.96    0.54
  -7  -2   0    1.13    0.07
   7   2   0    1.30    0.09
   7   2   0    1.30    0.08
   7  -3   0    0.57    0.05
  -7   3   0    0.62    0.06
  -7   3   0    0.50    0.06
   6  -3   0    2.33    0.13
  -6   3   0    2.16    0.12
  -6   3   0    2.15    0.11
   5  -3   0    0.22    0.07
   5  -3   0    0.17    0.06
   5  -3   0    0.25    0.08
  -5   3   0    0.28    0.09
  -5   3   0    0.22    0.06
   4  -3   0    5.72    0.24
   4  -3   0    5.66    0.24
   4  -3   0    5.76    0.24
  -4   3   0    5.49    0.23
   3  -3   0    2.50    0.14
   3  -3   0    2.61    0.12
   3  -3   0    2.50    0.11
   2  -3   0   55.56    1.63
   2  -3   0   55.49    1.66
   2  -3   0   51.46    1.64
   1  -3   0   38.17    1.16
  -1   3   0   37.71    1.14
   0  -3   0    1.50    0.07
   0   3   0    1.70    0.06
   0   3   0    1.60    0.07
  -1  -3   0   41.82    1.26
   1   3   0   40.51    1.24
  -2  -3   0   11.26    0.37
   2   3   0   11.07    0.36
  -3  -3   0   23.04    0.73
   3   3   0   22.61    0.73
  -4  -3   0    0.22    0.08
   4   3   0    0.30    0.09
   4   3   0    0.39    0.11
   4   3   0    0.40    0.08
  -5  -3   0    0.25    0.08
  -5  -3   0    0.35    0.09
   5   3   0    0.25    0.08
  -6  -3   0    4.25    0.18
  -6  -3   0    4.36    0.18
   6   3   0    3.88    0.19
   6   3   0    3.99    0.19
  -7  -3   0    2.52    0.11
   7   3   0    2.33    0.11
   7  -4   0    3.92    0.14
  -7   4   0    3.75    0.13
   6  -4   0    4.38    0.18
   6  -4   0    4.41    0.23
  -6   4   0    4.18    0.17
  -6   4   0    4.28    0.17
   5  -4   0    0.30    0.09
   5  -4   0    0.35    0.09
   5  -4   0    0.51    0.11
  -5   4   0    0.33    0.06
  -5   4   0    0.36    0.09
   4  -4   0    0.01    0.06
   4  -4   0    0.05    0.06
  -4   4   0   -0.05    0.04
  -4   4   0    0.13    0.07
   3  -4   0    1.18    0.10
   3  -4   0    1.30    0.11
   3  -4   0    1.21    0.09
  -3   4   0    1.12    0.09
   2  -4   0   73.96    2.27
   2  -4   0   76.49    2.24
   2  -4   0   73.29    2.26
   1  -4   0   46.62    1.48
   1  -4   0   48.58    1.48
  -1   4   0   52.04    1.46
  -1   4   0   46.74    1.46
   0  -4   0   44.95    1.45
   0   4   0   46.86    1.44
   0   4   0   50.64    1.43
  -1  -4   0   26.87    0.87
   1   4   0   28.76    0.85
  -2  -4   0   84.03    2.56
   2   4   0   84.32    2.54
  -3  -4   0    5.16    0.23
   3   4   0    5.29    0.21
  -4  -4   0    0.62    0.12
   4   4   0    0.80    0.12
   4   4   0    0.83    0.12
   4   4   0    0.71    0.15
  -5  -4   0    0.79    0.11
  -5  -4   0    0.99    0.11
   5   4   0    0.65    0.11
   5   4   0    0.92    0.13
  -6  -4   0    1.93    0.12
  -6  -4   0    2.22    0.12
   6   4   0    1.95    0.12
  -7  -4   0    2.71    0.11
   7   4   0    2.73    0.11
   6  -5   0    7.94    0.27
   6  -5   0    7.52    0.31
   6  -5   0    7.57    0.27
  -6   5   0    7.74    0.26
  -6   5   0    7.98    0.27
   5  -5   0    7.65    0.27
   5  -5   0    7.15    0.28
   5  -5   0    6.82    0.30
  -5   5   0    7.42    0.26
  -5   5   0    7.30    0.27
   4  -5   0    3.28    0.15
   4  -5   0    3.31    0.17
   4  -5   0    3.29    0.19
  -4   5   0    3.28    0.15
  -4   5   0    3.16    0.19
   3  -5   0   13.53    0.48
   3  -5   0   14.70    0.50
  -3   5   0   14.48    0.47
   2  -5   0    0.04    0.05
   2  -5   0    0.05    0.05
   1  -5   0   35.55    1.13
   1  -5   0   36.39    1.13
  -1   5   0   36.81    1.10
   0  -5   0   46.54    1.40
   0  -5   0   44.97    1.41
   0   5   0   45.25    1.38
  -1  -5   0   41.75    1.29
  -1  -5   0   40.80    1.29
   1   5   0   42.17    1.27
  -2  -5   0   82.19    2.62
   2   5   0   89.62    2.60
  -3  -5   0   10.19    0.39
  -3  -5   0    9.85    0.37
   3   5   0    9.91    0.36
   3   5   0    9.79    0.35
  -4  -5   0    0.97    0.12
   4   5   0    0.88    0.12
   4   5   0    1.15    0.12
  -5  -5   0    5.36    0.23
  -5  -5   0    5.61    0.23
   5   5   0    5.74    0.24
   5   5   0    5.51    0.23
  -6  -5   0    0.62    0.07
  -6  -5   0    0.76    0.08
   6   5   0    0.60    0.08
   6  -6   0    2.81    0.12
   6  -6   0    3.05    0.12
  -6   6   0    2.81    0.11
   5  -6   0    2.10    0.15
   5  -6   0    2.46    0.12
   5  -6   0    2.45    0.13
  -5   6   0    2.34    0.12
   4  -6   0    0.03    0.04
   4  -6   0    0.05    0.05
   4  -6   0    0.05    0.06
  -4   6   0   -0.04    0.04
   3  -6   0    0.16    0.07
   3  -6   0    0.10    0.07
   3  -6   0    0.11    0.05
  -3   6   0    0.15    0.05
   2  -6   0   17.37    0.59
   2  -6   0   16.87    0.60
   2  -6   0   18.25    0.57
  -2   6   0   17.73    0.57
   1  -6   0   47.79    1.49
   1  -6   0   47.54    1.48
   0  -6   0    1.48    0.12
   0  -6   0    1.66    0.12
   0   6   0    1.55    0.09
  -1  -6   0    0.04    0.05
  -1  -6   0    0.07    0.07
   1   6   0    0.02    0.04
  -2  -6   0    0.26    0.11
   2   6   0    0.28    0.06
   2   6   0    0.38    0.09
  -3  -6   0    2.07    0.15
  -3  -6   0    1.96    0.23
   3   6   0    1.62    0.18
   3   6   0    1.99    0.13
  -4  -6   0    1.05    0.12
   4   6   0    1.29    0.11
   4   6   0    1.25    0.12
  -5  -6   0    3.96    0.19
  -5  -6   0    4.09    0.19
   5   6   0    4.12    0.19
   5   6   0    4.07    0.19
  -6  -6   0    0.10    0.03
  -6  -6   0    0.21    0.06
   6   6   0    0.10    0.04
   6  -7   0    2.78    0.11
  -6   7   0    2.69    0.10
   5  -7   0    0.04    0.04
   5  -7   0    0.04    0.06
   5  -7   0   -0.03    0.03
  -5   7   0    0.00    0.03
   4  -7   0    2.56    0.14
   4  -7   0    2.22    0.15
   4  -7   0    2.39    0.12
  -4   7   0    2.61    0.13
  -4   7   0    2.48    0.12
   3  -7   0   30.37    0.98
   3  -7   0   31.54    0.97
   3  -7   0   31.11    1.01
  -3   7   0   30.90    0.97
  -3   7   0   31.38    0.97
   2  -7   0    1.20    0.12
   2  -7   0    1.37    0.10
   2  -7   0    1.41    0.23
  -2   7   0    1.28    0.10
  -2   7   0    1.27    0.10
   1  -7   0    8.05    0.31
   1  -7   0    8.00    0.29
   1  -7   0    8.62    0.35
  -1   7   0    8.09    0.29
  -1   7   0    7.72    0.30
   0  -7   0   34.02    1.12
   0  -7   0   34.63    1.07
   0  -7   0   35.52    1.10
   0   7   0   34.20    1.07
  -1  -7   0   13.87    0.56
  -1  -7   0   13.88    0.49
  -1  -7   0   14.60    0.53
   1   7   0   14.00    0.47
  -2  -7   0    3.93    0.26
   2   7   0    4.05    0.18
   2   7   0    4.04    0.21
  -3  -7   0    5.74    0.25
   3   7   0    5.36    0.23
  -4  -7   0    1.99    0.14
   4   7   0    2.17    0.13
   4   7   0    2.20    0.14
  -5  -7   0    0.31    0.07
   5   7   0    0.26    0.08
   5   7   0    0.32    0.08
  -6  -7   0    0.07    0.03
   6   7   0    0.03    0.03
   5  -8   0    0.18    0.03
   5  -8   0    0.14    0.07
   5  -8   0    0.05    0.05
  -5   8   0    0.17    0.04
   4  -8   0    0.92    0.10
   4  -8   0    0.77    0.10
   4  -8   0    0.83    0.07
  -4   8   0    0.89    0.08
  -4   8   0    0.80    0.07
   3  -8   0    0.19    0.09
   3  -8   0    0.08    0.04
   3  -8   0    0.08    0.05
  -3   8   0    0.13    0.05
  -3   8   0    0.21    0.05
   2  -8   0    1.04    0.12
   2  -8   0    0.93    0.09
  -2   8   0    1.12    0.09
  -2   8   0    0.93    0.09
   1  -8   0   17.40    0.59
  -1   8   0   16.71    0.56
  -1   8   0   17.27    0.56
   0  -8   0   21.17    0.68
   0  -8   0   21.97    0.71
   0   8   0   20.37    0.68
   2   8   0    2.83    0.17
   2   8   0    2.85    0.15
  -3  -8   0    0.39    0.10
   3   8   0    0.42    0.12
   3   8   0    0.41    0.08
  -4  -8   0   -0.01    0.05
   4   8   0    0.08    0.04
   4   8   0    0.11    0.06
  -5  -8   0    2.00    0.11
   5   8   0    2.11    0.10
   5   8   0    2.05    0.11
   4  -9   0    2.20    0.14
   4  -9   0    1.96    0.10
  -4   9   0    2.01    0.10
  -4   9   0    2.10    0.10
   3  -9   0    0.05    0.04
   3  -9   0    0.10    0.06
  -3   9   0    0.07    0.04
  -3   9   0    0.14    0.04
   2  -9   0    5.09    0.24
   2  -9   0    5.40    0.21
  -2   9   0    5.61    0.22
  -2   9   0    5.39    0.21
   1  -9   0    1.15    0.09
   1  -9   0    1.21    0.14
  -1   9   0    1.00    0.09
  -1   9   0    1.24    0.12
   0  -9   0    6.03    0.27
   0  -9   0    6.29    0.24
   0   9   0    6.07    0.24
   0   9   0    6.17    0.24
  -1  -9   0    3.12    0.20
   1   9   0    3.06    0.16
   1   9   0    3.14    0.15
  -2  -9   0    0.36    0.08
   2   9   0    0.26    0.08
   2   9   0    0.19    0.05
  -3  -9   0    0.04    0.06
   3   9   0    0.05    0.04
  -4  -9   0    0.50    0.07
   4   9   0    0.47    0.06
   4   9   0    0.63    0.09
  -5  -9   0   -0.01    0.03
   5   9   0   -0.01    0.03
   4 -10   0    0.44    0.04
  -4  10   0    0.48    0.06
  -4  10   0    0.50    0.06
   3 -10   0    1.41    0.08
   3 -10   0    1.56    0.12
  -3  10   0    1.38    0.08
  -3  10   0    1.49    0.09
   2 -10   0    0.17    0.04
   2 -10   0    0.10    0.07
  -2  10   0    0.15    0.04
   1 -10   0    0.22    0.08
   1 -10   0    0.37    0.07
  -1  10   0    0.25    0.07
  -1  10   0    0.34    0.07
   0 -10   0    2.58    0.13
   0  10   0    2.48    0.13
   0  10   0    2.50    0.13
   1  10   0    0.14    0.05
   1  10   0    0.08    0.04
  -2 -10   0   -0.03    0.06
   2  10   0    0.13    0.04
   2  10   0    0.07    0.06
  -3 -10   0    3.00    0.14
   3  10   0    2.88    0.13
  -4 -10   0    0.04    0.03
   4  10   0    0.06    0.03
   3 -11   0    0.94    0.05
  -3  11   0    1.04    0.06
   2 -11   0    1.54    0.08
  -2  11   0    1.43    0.08
   1 -11   0    0.30    0.06
  -1  11   0    0.31    0.05
   0 -11   0    1.02    0.09
   0  11   0    1.01    0.08
   0  11   0    0.83    0.08
   1  11   0    0.04    0.04
   1  11   0    0.02    0.03
   2  11   0    0.53    0.06
   3  11   0    0.19    0.04
  -1  12   0    0.06    0.03
   0  12   0    3.86    0.14
   1  12   0    1.85    0.09
   1  12   0    1.79    0.10
   2  11  -1    2.28    0.10
   1  11  -1   -0.03    0.03
   1  11  -1    0.04    0.05
   0  11  -1    1.28    0.08
   0  11  -1    1.33    0.08
   0 -11   1    1.45    0.09
  -1  11  -1    2.59    0.12
   1 -11   1    2.80    0.11
  -2  11  -1    2.47    0.10
   2 -11   1    2.40    0.10
   4  10  -1    0.21    0.04
  -4 -10   1    0.28    0.05
   3  10  -1    2.03    0.10
  -3 -10   1    1.96    0.11
   2  10  -1    6.65    0.24
   1  10  -1    0.01    0.04
   1  10  -1   -0.01    0.05
   0  10  -1    4.70    0.21
   0  10  -1    6.09    0.21
   0 -10   1    5.51    0.21
  -1  10  -1    4.61    0.18
  -1  10  -1    4.28    0.18
   1 -10   1    4.55    0.23
   1 -10   1    4.44    0.17
  -2  10  -1    0.00    0.03
   2 -10   1    0.00    0.06
   2 -10   1    0.00    0.03
  -3  10  -1    5.84    0.21
   3 -10   1    6.36    0.26
   3 -10   1    6.19    0.21
   4   9  -1    1.00    0.07
   4   9  -1    0.79    0.09
  -4  -9   1    0.95    0.07
   3   9  -1    0.13    0.04
   3   9  -1    0.47    0.11
  -3  -9   1    0.22    0.06
   2   9  -1    5.62    0.24
   2   9  -1    5.60    0.22
  -2  -9   1    5.72    0.24
   1   9  -1    1.60    0.12
   1   9  -1    1.72    0.11
  -1  -9   1    1.53    0.12
   0   9  -1    2.91    0.15
   0  -9   1    2.78    0.19
   0  -9   1    2.98    0.14
  -1   9  -1    7.21    0.27
   1  -9   1    7.29    0.26
   1  -9   1    7.02    0.30
  -2   9  -1    4.48    0.18
   2  -9   1    4.75    0.18
   2  -9   1    4.21    0.22
  -3   9  -1   10.57    0.37
  -3   9  -1   11.14    0.36
   3  -9   1   11.10    0.37
   3  -9   1   10.85    0.41
  -4   9  -1    1.35    0.08
  -4   9  -1    1.43    0.08
   4  -9   1    1.23    0.07
   4  -9   1    1.27    0.12
   5   8  -1    0.09    0.04
   5   8  -1    0.07    0.04
  -5  -8   1    0.01    0.03
   4   8  -1    0.24    0.07
   4   8  -1    0.13    0.06
  -4  -8   1    0.16    0.05
   3   8  -1   10.11    0.36
  -3  -8   1   10.43    0.37
   2   8  -1    4.42    0.22
   2   8  -1    4.57    0.19
  -2  -8   1    4.30    0.21
   1   8  -1    3.14    0.16
  -1  -8   1    2.99    0.16
  -1  -8   1    2.76    0.21
   0   8  -1    0.10    0.05
   0  -8   1    0.08    0.06
   0  -8   1   -0.05    0.06
  -1   8  -1    3.01    0.15
   1  -8   1    3.49    0.19
   1  -8   1    2.99    0.15
  -2   8  -1    8.68    0.31
  -2   8  -1    9.04    0.31
   2  -8   1    8.63    0.31
   2  -8   1    8.55    0.35
  -3   8  -1    0.50    0.07
  -3   8  -1    0.64    0.08
   3  -8   1    0.52    0.10
   3  -8   1    0.48    0.11
   3  -8   1    0.50    0.07
  -4   8  -1    3.90    0.16
  -4   8  -1    4.00    0.16
   4  -8   1    3.88    0.17
   4  -8   1    3.83    0.20
   4  -8   1    3.70    0.15
  -5   8  -1    0.48    0.04
   5  -8   1    0.54    0.07
   5  -8   1    0.46    0.05
   5  -8   1    0.43    0.11
   6   7  -1    0.16    0.05
   5   7  -1    2.05    0.11
   5   7  -1    2.16    0.12
  -5  -7   1    2.14    0.11
   4   7  -1   18.49    0.60
   4   7  -1   18.71    0.61
  -4  -7   1   18.14    0.61
   3   7  -1    0.34    0.08
  -3  -7   1    0.25    0.08
   2   7  -1    0.23    0.06
  -2  -7   1    0.33    0.09
   1   7  -1    2.42    0.15
  -1  -7   1    2.29    0.15
  -1  -7   1    2.68    0.18
  -1  -7   1    2.58    0.19
  -1  -7   1    2.44    0.21
   0   7  -1    1.63    0.12
   0  -7   1    1.93    0.18
   0  -7   1    1.68    0.13
   0  -7   1    1.74    0.12
  -1   7  -1    8.95    0.32
   1  -7   1    8.66    0.32
   1  -7   1    9.42    0.32
   1  -7   1    8.91    0.39
   1  -7   1    8.85    0.34
  -2   7  -1    0.74    0.10
   2  -7   1    0.92    0.13
   2  -7   1    0.72    0.14
   2  -7   1    0.84    0.11
   2  -7   1    0.84    0.09
  -3   7  -1    9.74    0.34
   3  -7   1    9.60    0.34
   3  -7   1    9.89    0.35
   3  -7   1    9.38    0.37
  -4   7  -1    4.16    0.17
  -4   7  -1    4.38    0.18
   4  -7   1    4.38    0.19
   4  -7   1    3.91    0.21
   4  -7   1    4.25    0.17
  -5   7  -1    0.27    0.07
  -5   7  -1    0.16    0.04
   5  -7   1    0.13    0.06
   5  -7   1    0.17    0.04
   5  -7   1    0.21    0.06
   6   6  -1    3.83    0.15
  -6  -6   1    3.58    0.14
   5   6  -1    2.10    0.13
   5   6  -1    2.01    0.13
  -5  -6   1    2.22    0.13
   4   6  -1    0.26    0.08
   4   6  -1    0.07    0.06
  -4  -6   1    0.18    0.07
   3   6  -1    0.03    0.05
  -3  -6   1    0.07    0.06
   2   6  -1    6.48    0.27
  -2  -6   1    6.82    0.28
  -2  -6   1    6.07    0.29
  -2  -6   1    6.35    0.27
   1   6  -1   11.13    0.39
  -1  -6   1   12.17    0.41
  -1  -6   1   11.05    0.42
   0   6  -1    1.85    0.10
   0  -6   1    1.96    0.13
   0  -6   1    1.87    0.14
  -1   6  -1    6.52    0.24
   1  -6   1    6.56    0.27
   1  -6   1    6.37    0.24
   1  -6   1    6.50    0.26
  -2   6  -1    8.78    0.32
   2  -6   1    9.16    0.31
   2  -6   1    9.07    0.34
   2  -6   1    8.77    0.34
   2  -6   1    8.89    0.36
  -3   6  -1    1.48    0.10
   3  -6   1    1.46    0.13
   3  -6   1    1.70    0.13
   3  -6   1    1.71    0.11
  -4   6  -1    0.28    0.07
   4  -6   1    0.25    0.06
   4  -6   1    0.26    0.09
   4  -6   1    0.39    0.09
  -5   6  -1    0.76    0.09
  -5   6  -1    0.79    0.07
   5  -6   1    0.82    0.09
   5  -6   1    0.82    0.11
   5  -6   1    0.64    0.08
  -6   6  -1    0.60    0.05
   6  -6   1    0.58    0.06
   6   5  -1    0.02    0.04
  -6  -5   1    0.04    0.03
  -6  -5   1   -0.03    0.05
   5   5  -1    0.09    0.07
   5   5  -1    0.04    0.06
  -5  -5   1    0.02    0.06
  -5  -5   1    0.07    0.05
   4   5  -1    4.96    0.22
  -4  -5   1    5.21    0.23
  -4  -5   1    4.96    0.23
   3   5  -1   26.70    0.84
   3   5  -1   25.37    0.86
  -3  -5   1   27.18    0.85
  -3  -5   1   26.50    0.89
   2   5  -1    7.86    0.28
  -2  -5   1    7.58    0.31
  -2  -5   1    7.59    0.30
   1   5  -1   -0.02    0.03
  -1  -5   1   -0.03    0.04
  -1  -5   1    0.02    0.06
   0   5  -1   23.79    0.75
   0  -5   1   24.65    0.77
   0  -5   1   24.22    0.78
  -1   5  -1   32.67    1.01
   1  -5   1   32.44    1.04
   1  -5   1   33.88    1.04
   2  -5   1   10.72    0.39
   2  -5   1   11.29    0.39
  -3   5  -1    3.94    0.17
   3  -5   1    4.11    0.17
   3  -5   1    3.89    0.19
   3  -5   1    4.02    0.20
  -4   5  -1    5.45    0.21
   4  -5   1    5.81    0.25
   4  -5   1    5.23    0.21
   4  -5   1    5.28    0.23
  -5   5  -1    0.29    0.06
   5  -5   1    0.29    0.08
   5  -5   1    0.24    0.07
   5  -5   1    0.22    0.06
  -6   5  -1    0.71    0.06
   6  -5   1    0.71    0.07
   6  -5   1    1.15    0.17
   6   4  -1    4.60    0.20
  -6  -4   1    4.60    0.18
  -6  -4   1    4.73    0.19
   5   4  -1    3.52    0.27
   5   4  -1    4.07    0.20
  -5  -4   1    4.09    0.19
  -5  -4   1    4.11    0.19
   4   4  -1    0.16    0.08
  -4  -4   1   -0.09    0.06
  -4  -4   1   -0.09    0.07
  -4  -4   1   -0.07    0.11
   3   4  -1    1.44    0.12
  -3  -4   1    0.98    0.13
  -3  -4   1    1.43    0.13
   2   4  -1    0.95    0.07
  -2  -4   1    0.88    0.08
  -2  -4   1    0.79    0.13
   1   4  -1    3.36    0.13
  -1  -4   1    3.23    0.14
  -1  -4   1    2.92    0.15
   0   4  -1    0.03    0.02
   0  -4   1    0.01    0.05
   0  -4   1    0.00    0.02
  -1   4  -1   45.75    1.41
   1  -4   1   46.74    1.43
   1  -4   1   47.13    1.43
   2  -4   1    0.15    0.05
   2  -4   1    0.03    0.04
   3  -4   1    2.29    0.14
   3  -4   1    2.16    0.15
   3  -4   1    2.04    0.13
   3  -4   1    2.29    0.12
  -4   4  -1   13.26    0.46
  -4   4  -1   13.30    0.44
   4  -4   1   13.19    0.44
   4  -4   1   13.53    0.48
   4  -4   1   13.40    0.45
   4  -4   1   13.35    0.46
  -5   4  -1    1.18    0.12
  -5   4  -1    1.13    0.08
   5  -4   1    0.96    0.13
   5  -4   1    1.14    0.11
   5  -4   1    1.01    0.11
  -6   4  -1   -0.02    0.05
  -6   4  -1    0.03    0.03
   6  -4   1    0.01    0.04
   6  -4   1   -0.02    0.10
  -7   4  -1    4.95    0.17
   7  -4   1    4.82    0.17
   7   3  -1    3.72    0.14
  -7  -3   1    3.61    0.14
   6   3  -1   10.37    0.37
   6   3  -1   11.04    0.38
  -6  -3   1   10.41    0.37
  -6  -3   1   11.03    0.37
   5   3  -1    1.06    0.13
  -5  -3   1    1.22    0.11
  -5  -3   1    1.25    0.11
   4   3  -1    3.81    0.22
   4   3  -1    4.17    0.22
  -4  -3   1    4.40    0.20
  -4  -3   1    4.09    0.20
  -4  -3   1    3.98    0.23
  -3  -3   1   11.40    0.40
   2   3  -1   24.77    0.75
  -2  -3   1   23.15    0.76
   1   3  -1    2.67    0.10
  -1  -3   1    2.69    0.11
   0   3  -1   27.30    0.79
   0   3  -1   24.13    0.79
   0  -3   1   26.38    0.80
  -1   3  -1    0.14    0.05
   1  -3   1    0.21    0.03
   2  -3   1  173.93    5.57
   2  -3   1  188.82    5.56
   2  -3   1  194.14    5.59
   3  -3   1   15.15    0.51
   3  -3   1   15.30    0.49
   3  -3   1   15.43    0.49
  -4   3  -1    3.27    0.18
   4  -3   1    3.34    0.17
   4  -3   1    3.33    0.18
   4  -3   1    2.71    0.18
   4  -3   1    3.34    0.19
   4  -3   1    2.74    0.17
  -5   3  -1    2.98    0.16
  -5   3  -1    3.03    0.14
   5  -3   1    3.14    0.18
   5  -3   1    3.03    0.19
   5  -3   1    3.32    0.17
   5  -3   1    3.15    0.16
  -6   3  -1    1.76    0.11
  -6   3  -1    1.89    0.10
   6  -3   1    1.89    0.11
  -7   3  -1    1.39    0.07
  -7   3  -1    1.35    0.08
   7  -3   1    1.48    0.08
   7   2  -1    0.18    0.06
   7   2  -1    0.20    0.05
  -7  -2   1    0.28    0.05
   6   2  -1    4.48    0.20
   6   2  -1    3.99    0.19
  -6  -2   1    4.44    0.19
  -6  -2   1    4.25    0.18
   5   2  -1    0.53    0.11
  -5  -2   1    0.62    0.09
  -5  -2   1    0.40    0.08
   4   2  -1    7.82    0.31
   4   2  -1    7.49    0.31
  -4  -2   1    8.19    0.30
  -4  -2   1    7.70    0.30
  -4  -2   1    7.71    0.32
   3   2  -1    0.82    0.07
  -3  -2   1    0.72    0.07
  -3  -2   1    0.93    0.14
   2   2  -1    0.11    0.03
  -2  -2   1    0.13    0.04
   1   2  -1   55.03    1.66
  -1  -2   1   55.26    1.67
   0   2  -1   94.57    2.75
   0   2  -1   84.44    2.73
   0  -2   1   93.65    2.79
  -1   2  -1   29.17    0.96
  -1   2  -1   31.70    0.97
   1  -2   1   32.25    0.97
   1  -2   1   34.27    0.96
   2  -2   1   39.98    1.16
   2  -2   1   36.54    1.16
   3  -2   1   31.04    0.92
   3  -2   1   30.69    0.95
   3  -2   1   28.40    0.93
  -4   2  -1    8.04    0.30
   4  -2   1    7.46    0.31
   4  -2   1    7.86    0.30
   4  -2   1    7.66    0.30
   4  -2   1    8.11    0.30
  -5   2  -1    0.14    0.06
   5  -2   1    0.06    0.08
   5  -2   1    0.15    0.09
   5  -2   1    0.13    0.07
  -6   2  -1    1.41    0.10
  -6   2  -1    1.28    0.08
   6  -2   1    1.10    0.11
   6  -2   1    1.26    0.10
  -7   2  -1    5.83    0.21
  -7   2  -1    6.16    0.21
   7  -2   1    6.13    0.22
   7   1  -1    0.27    0.06
   7   1  -1    0.35    0.06
  -7  -1   1    0.28    0.05
   6   1  -1   15.50    0.53
   6   1  -1   15.75    0.53
  -6  -1   1   15.93    0.51
  -6  -1   1   15.23    0.52
   5   1  -1    0.10    0.07
  -5  -1   1    0.12    0.05
  -5  -1   1    0.00    0.05
   4   1  -1    0.87    0.11
   4   1  -1    0.79    0.13
  -4  -1   1    0.76    0.11
  -4  -1   1    0.84    0.13
   3   1  -1   15.25    0.49
  -3  -1   1   15.47    0.49
  -3  -1   1   14.00    0.50
   2   1  -1   71.99    2.34
  -2  -1   1   83.77    2.40
   1   1  -1  375.42   11.57
   1   1  -1  393.63   11.56
  -1  -1   1  375.51   11.56
  -1  -1   1  396.45   11.59
   0   1  -1    3.35    0.12
   0  -1   1    3.55    0.12
  -1   1  -1    4.29    0.15
  -1   1  -1    4.35    0.15
   1  -1   1    4.63    0.15
   1  -1   1    4.81    0.15
   2  -1   1   42.23    1.37
   2  -1   1   46.33    1.37
   2  -1   1   47.90    1.37
   3  -1   1    9.88    0.30
   3  -1   1    9.04    0.34
   3  -1   1    9.55    0.32
  -4   1  -1    1.64    0.13
   4  -1   1    1.80    0.15
   4  -1   1    1.83    0.12
   4  -1   1    1.55    0.14
  -5   1  -1    0.31    0.09
   5  -1   1    0.36    0.12
   5  -1   1    0.35    0.10
   5  -1   1    0.51    0.11
  -6   1  -1    4.77    0.19
  -6   1  -1    4.55    0.20
   6  -1   1    4.71    0.21
   6  -1   1    4.68    0.20
  -7   1  -1    3.91    0.15
  -7   1  -1    3.95    0.16
   7  -1   1    4.02    0.16
   7  -1   1    4.02    0.15
   7   0  -1    0.65    0.07
   7   0  -1    0.55    0.07
  -7   0   1    0.59    0.06
   6   0  -1    5.49    0.23
   6   0  -1    5.27    0.22
  -6   0   1    5.47    0.22
  -6   0   1    5.87    0.29
   5   0  -1    2.65    0.16
  -5   0   1    2.40    0.15
  -5   0   1    2.52    0.14
   4   0  -1    0.10    0.05
   4   0  -1    0.12    0.09
  -4   0   1    0.16    0.06
   3   0  -1   10.09    0.34
  -3   0   1   10.26    0.37
   1   0  -1   16.51    0.49
   1   0  -1   15.29    0.49
  -1   0   1   16.65    0.49
  -1   0   1   15.70    0.49
   0   0  -1    1.41    0.05
   0   0   1    1.48    0.05
  -1   0  -1    2.11    0.08
   1   0   1    2.19    0.08
   2   0   1   29.85    0.88
   2   0   1   29.00    0.90
   3   0   1  101.48    2.85
   3   0   1   95.24    2.85
   3   0   1   89.50    2.87
   4   0   1    3.74    0.17
   4   0   1    3.52    0.19
  -5   0  -1   10.18    0.37
   5   0   1   10.88    0.38
   5   0   1   10.28    0.38
  -6   0  -1    5.99    0.22
  -6   0  -1    5.57    0.23
   6   0   1    5.80    0.24
   6   0   1    5.50    0.24
  -7   0  -1    0.67    0.06
   7   0   1    0.67    0.07
   7   0   1    0.63    0.07
   7  -1  -1    0.07    0.04
  -7   1   1    0.02    0.03
   6  -1  -1    0.63    0.10
   6  -1  -1    0.61    0.09
  -6   1   1    0.61    0.08
  -6   1   1    0.48    0.09
   5  -1  -1   75.44    2.39
   5  -1  -1   78.89    2.40
   5  -1  -1   82.34    2.42
  -5   1   1   78.63    2.39
  -5   1   1   76.21    2.37
   4  -1  -1    1.00    0.10
  -4   1   1    1.16    0.11
   3  -1  -1    1.30    0.08
   3  -1  -1    1.29    0.07
   2  -1  -1    7.15    0.25
   2  -1  -1    7.70    0.24
   1  -1  -1   18.16    0.56
   1  -1  -1   18.53    0.55
  -1   1   1   18.14    0.55
   0  -1  -1    4.02    0.13
   0  -1  -1    3.95    0.12
   0   1   1    3.99    0.12
   0   1   1    3.81    0.13
  -1  -1  -1   19.52    0.62
  -1  -1  -1   19.79    0.63
   1   1   1   22.45    0.62
   1   1   1   21.02    0.63
  -2  -1  -1   11.34    0.34
   2   1   1   11.03    0.35
   2   1   1   10.79    0.34
   3   1   1    6.29    0.23
   4   1   1   64.84    2.01
   4   1   1   66.52    2.01
  -5  -1  -1    0.09    0.05
   5   1   1    0.16    0.07
   5   1   1    0.21    0.08
  -6  -1  -1    0.15    0.05
   6   1   1    0.09    0.06
   6   1   1    0.16    0.06
  -7  -1  -1    0.03    0.03
   7   1   1   -0.03    0.04
   7   1   1   -0.01    0.04
   7  -2  -1    0.05    0.03
  -7   2   1    0.09    0.03
   6  -2  -1    8.14    0.30
   6  -2  -1    8.04    0.31
  -6   2   1    8.50    0.30
  -6   2   1    8.37    0.29
   5  -2  -1    2.86    0.18
   5  -2  -1    3.04    0.17
   5  -2  -1    3.02    0.19
  -5   2   1    2.99    0.15
  -5   2   1    2.90    0.14
   4  -2  -1    1.37    0.12
   4  -2  -1    1.30    0.12
  -4   2   1    1.44    0.14
  -4   2   1    1.16    0.12
   3  -2  -1    4.37    0.17
   3  -2  -1    4.31    0.16
   2  -2  -1    3.17    0.12
   2  -2  -1    3.35    0.11
  -2   2   1    2.98    0.12
   1  -2  -1    8.88    0.28
   1  -2  -1    8.43    0.26
  -1   2   1    8.44    0.26
   0  -2  -1   68.72    2.08
   0   2   1   68.49    2.07
   0   2   1   66.64    2.04
  -1  -2  -1  240.25    7.46
  -1  -2  -1  264.47    7.49
   1   2   1  244.53    7.46
   1   2   1  243.96    7.48
  -2  -2  -1   16.19    0.48
   2   2   1   15.09    0.49
   2   2   1   15.49    0.49
  -3  -2  -1    3.27    0.12
   3   2   1    2.83    0.13
   4   2   1   38.73    1.24
   4   2   1   40.10    1.24
  -5  -2  -1    1.87    0.13
  -5  -2  -1    1.55    0.15
   5   2   1    1.87    0.14
   5   2   1    1.82    0.16
  -6  -2  -1    2.73    0.16
  -6  -2  -1    2.94    0.15
   6   2   1    2.76    0.16
   6   2   1    2.73    0.15
  -7  -2  -1    0.56    0.06
   7   2   1    0.50    0.06
   7   2   1    0.64    0.11
   7  -3  -1    1.56    0.08
  -7   3   1    1.35    0.07
   6  -3  -1    0.87    0.09
   6  -3  -1    0.63    0.17
  -6   3   1    0.80    0.08
  -6   3   1    0.69    0.07
   5  -3  -1    0.20    0.06
   5  -3  -1    0.14    0.07
  -5   3   1    0.15    0.05
  -5   3   1    0.14    0.04
   4  -3  -1   22.75    0.75
   4  -3  -1   23.02    0.74
  -4   3   1   22.08    0.73
  -4   3   1   22.44    0.72
   3  -3  -1    9.59    0.32
   3  -3  -1    9.32    0.33
   3  -3  -1    9.66    0.35
   2  -3  -1   12.28    0.41
   2  -3  -1   13.88    0.39
  -2   3   1   11.47    0.40
   1  -3  -1    3.92    0.12
   1  -3  -1    3.57    0.14
  -1   3   1    3.61    0.12
   0  -3  -1   36.81    1.14
   0   3   1   38.55    1.12
   0   3   1   36.65    1.14
  -1  -3  -1 1000.00   28.55
   1   3   1  910.90   28.61
  -2  -3  -1   44.72    1.36
  -3  -3  -1    1.10    0.08
   3   3   1    1.18    0.08
  -4  -3  -1    8.60    0.34
   4   3   1    9.15    0.34
   4   3   1    9.24    0.34
   4   3   1    8.50    0.33
  -5  -3  -1    5.02    0.22
   5   3   1    4.73    0.24
   5   3   1    4.91    0.23
   5   3   1    5.19    0.23
  -6  -3  -1    3.13    0.15
  -6  -3  -1    3.12    0.16
   6   3   1    3.05    0.17
   6   3   1    3.18    0.17
  -7  -3  -1    0.01    0.03
   7   3   1    0.04    0.04
   6  -4  -1    4.65    0.19
   6  -4  -1    4.77    0.24
  -6   4   1    4.62    0.18
  -6   4   1    4.81    0.18
   5  -4  -1    2.45    0.15
   5  -4  -1    2.40    0.17
  -5   4   1    2.57    0.14
  -5   4   1    2.40    0.12
   4  -4  -1    1.79    0.13
   4  -4  -1    1.84    0.14
  -4   4   1    1.78    0.11
  -4   4   1    1.79    0.13
   3  -4  -1    2.88    0.15
   3  -4  -1    2.81    0.16
   3  -4  -1    2.96    0.13
   2  -4  -1   43.35    1.42
   2  -4  -1   50.30    1.38
   2  -4  -1   43.97    1.41
   1  -4  -1    6.01    0.23
   1  -4  -1    6.15    0.22
  -1   4   1    6.35    0.19
  -1   4   1    6.04    0.20
   0  -4  -1    8.98    0.31
   0   4   1    9.79    0.29
   0   4   1    9.41    0.29
  -1  -4  -1  171.72    5.36
   1   4   1  183.80    5.38
  -2  -4  -1   16.39    0.53
   2   4   1   15.97    0.51
  -3  -4  -1    0.05    0.05
   3   4   1    0.06    0.04
  -4  -4  -1    9.71    0.35
   4   4   1    9.22    0.35
   4   4   1    9.02    0.36
   4   4   1    9.12    0.34
  -5  -4  -1   -0.04    0.06
   5   4   1    0.02    0.07
   5   4   1    0.11    0.07
  -6  -4  -1    0.72    0.10
  -6  -4  -1    0.52    0.08
   6   4   1    0.60    0.09
  -7  -4  -1    4.27    0.16
   7   4   1    4.18    0.16
   6  -5  -1    1.78    0.10
   6  -5  -1    1.89    0.10
   6  -5  -1    1.91    0.16
  -6   5   1    1.77    0.10
  -6   5   1    1.84    0.09
   5  -5  -1    0.06    0.06
   5  -5  -1    0.09    0.05
   5  -5  -1    0.07    0.05
  -5   5   1    0.02    0.05
  -5   5   1    0.00    0.04
   4  -5  -1   -0.01    0.05
  -4   5   1    0.03    0.04
  -4   5   1   -0.04    0.06
   3  -5  -1    8.12    0.31
   3  -5  -1    7.85    0.32
   3  -5  -1    8.29    0.31
  -3   5   1    8.10    0.29
  -3   5   1    8.01    0.31
   2  -5  -1   37.71    1.19
   2  -5  -1   37.97    1.19
   1  -5  -1    0.07    0.04
   1  -5  -1    0.09    0.04
  -1   5   1    0.06    0.02
   0  -5  -1   29.71    0.96
   0  -5  -1   30.00    0.96
   0   5   1   33.43    0.93
   0   5   1   29.91    0.94
  -1  -5  -1    1.73    0.10
   1   5   1    1.90    0.08
  -2  -5  -1   50.50    1.57
   2   5   1   50.83    1.55
  -3  -5  -1   17.01    0.57
   3   5   1   16.85    0.55
   3   5   1   16.30    0.56
  -4  -5  -1    1.60    0.14
   4   5   1    1.82    0.14
   4   5   1    1.39    0.13
  -5  -5  -1    0.38    0.09
  -5  -5  -1    0.29    0.07
   5   5   1    0.20    0.07
   5   5   1    0.36    0.10
  -6  -5  -1    0.68    0.08
  -6  -5  -1    0.72    0.09
   6   5   1    0.79    0.09
   6   5   1    0.90    0.11
  -7  -5  -1    8.40    0.26
   7   5   1    7.93    0.27
   6  -6  -1    0.84    0.06
   6  -6  -1    0.77    0.07
   6  -6  -1    0.79    0.18
  -6   6   1    0.83    0.05
   5  -6  -1   11.39    0.37
   5  -6  -1   10.55    0.41
   5  -6  -1   11.37    0.38
  -5   6   1   11.01    0.38
  -5   6   1   11.26    0.38
   4  -6  -1    0.23    0.06
   4  -6  -1    0.19    0.06
   4  -6  -1    0.15    0.07
  -4   6   1    0.22    0.06
  -4   6   1    0.29    0.08
  -4   6   1    0.12    0.07
   3  -6  -1    3.62    0.20
   3  -6  -1    3.86    0.20
  -3   6   1    3.92    0.17
   2  -6  -1    9.27    0.35
   2  -6  -1    9.44    0.36
  -2   6   1    9.18    0.32
   1  -6  -1   35.09    1.04
   1  -6  -1   30.79    1.05
  -1  -6  -1    0.14    0.05
   1   6   1    0.07    0.04
  -2  -6  -1    0.01    0.06
   2   6   1    0.05    0.05
   2   6   1   -0.06    0.06
  -3  -6  -1    0.20    0.10
   3   6   1    0.27    0.10
   3   6   1    0.11    0.06
   3   6   1    0.15    0.08
  -4  -6  -1    8.55    0.33
   4   6   1    8.36    0.33
   4   6   1    8.57    0.32
  -5  -6  -1    0.38    0.10
  -5  -6  -1    0.21    0.06
   5   6   1    0.13    0.05
   5   6   1    0.26    0.07
  -6  -6  -1    0.33    0.07
  -6  -6  -1    0.39    0.07
   6   6   1    0.43    0.09
   6   6   1    0.48    0.07
   6  -7  -1    3.85    0.14
   5  -7  -1    1.78    0.09
   5  -7  -1    1.72    0.10
   5  -7  -1    1.75    0.13
  -5   7   1    1.73    0.09
   4  -7  -1    7.72    0.29
   4  -7  -1    7.69    0.27
   4  -7  -1    7.28    0.31
  -4   7   1    7.67    0.28
  -4   7   1    7.64    0.28
   3  -7  -1    3.15    0.19
   3  -7  -1    3.76    0.19
   3  -7  -1    3.51    0.16
  -3   7   1    3.53    0.16
  -3   7   1    3.49    0.16
   2  -7  -1    0.26    0.06
   2  -7  -1    0.47    0.17
  -2   7   1    0.10    0.06
   1  -7  -1   19.22    0.62
   1  -7  -1   18.18    0.59
   1  -7  -1   18.19    0.64
  -1   7   1   18.48    0.59
  -1   7   1   17.70    0.59
   0  -7  -1   43.58    1.38
   0  -7  -1   44.15    1.36
   0   7   1   42.80    1.34
  -1  -7  -1    0.30    0.11
   1   7   1    0.41    0.11
   1   7   1    0.33    0.07
   1   7   1    0.35    0.10
  -2  -7  -1    4.32    0.25
   2   7   1    4.17    0.19
   2   7   1    4.51    0.21
  -3  -7  -1   73.93    2.24
   3   7   1   74.00    2.22
   3   7   1   71.34    2.23
   3   7   1   71.89    2.24
  -4  -7  -1    2.74    0.16
   4   7   1    2.68    0.15
   4   7   1    2.81    0.16
  -5  -7  -1    0.03    0.06
  -5  -7  -1   -0.03    0.05
   5   7   1    0.03    0.04
   5   7   1    0.13    0.05
  -6  -7  -1    0.24    0.05
   6   7   1    0.25    0.05
   6   7   1    0.38    0.07
   5  -8  -1    6.21    0.23
   5  -8  -1    6.66    0.23
   5  -8  -1    7.05    0.27
  -5   8   1    6.85    0.23
   4  -8  -1    0.94    0.11
   4  -8  -1    1.14    0.11
   4  -8  -1    1.25    0.08
  -4   8   1    1.30    0.10
  -4   8   1    1.26    0.08
   3  -8  -1    0.63    0.08
   3  -8  -1    0.54    0.10
  -3   8   1    0.60    0.08
  -3   8   1    0.56    0.07
   2  -8  -1   12.21    0.44
   2  -8  -1   11.97    0.40
  -2   8   1   11.70    0.41
  -2   8   1   11.97    0.41
   1  -8  -1    3.19    0.15
   1  -8  -1    3.37    0.18
  -1   8   1    3.40    0.17
  -1   8   1    3.07    0.15
   0  -8  -1    8.54    0.41
   0  -8  -1   10.32    0.34
   0  -8  -1    9.78    0.36
   0   8   1    9.61    0.34
   0   8   1    9.03    0.49
   1   8   1    2.11    0.13
   1   8   1    2.06    0.13
   2   8   1    8.49    0.31
   2   8   1    8.62    0.32
   3   8   1   22.84    0.75
   3   8   1   22.14    0.74
   3   8   1   23.69    0.75
  -4  -8  -1    0.05    0.06
   4   8   1    0.07    0.05
   4   8   1    0.13    0.07
  -5  -8  -1    1.67    0.10
   5   8   1    1.79    0.10
   5   8   1    1.62    0.10
  -6  -8  -1    0.16    0.04
   6   8   1    0.12    0.04
   5  -9  -1    2.49    0.10
  -5   9   1    2.57    0.10
   4  -9  -1    0.14    0.04
   4  -9  -1    0.28    0.10
  -4   9   1    0.23    0.05
  -4   9   1    0.14    0.05
   3  -9  -1    3.08    0.18
   3  -9  -1    3.70    0.15
  -3   9   1    3.55    0.15
  -3   9   1    3.71    0.15
   2  -9  -1    4.79    0.19
   2  -9  -1    4.80    0.23
  -2   9   1    4.77    0.20
  -2   9   1    4.78    0.20
   1  -9  -1    0.06    0.05
   1  -9  -1   -0.01    0.07
  -1   9   1   -0.06    0.07
  -1   9   1    0.03    0.05
   0  -9  -1   17.21    0.57
   0  -9  -1   18.15    0.61
   0   9   1   18.08    0.58
   0   9   1   17.59    0.58
   1   9   1    2.75    0.15
   1   9   1    2.83    0.15
  -2  -9  -1    0.77    0.11
   2   9   1    0.64    0.09
   2   9   1    0.84    0.11
  -3  -9  -1    0.35    0.10
   3   9   1    0.43    0.08
   3   9   1    0.40    0.09
  -4  -9  -1   12.99    0.44
   4   9   1   12.80    0.43
  -5  -9  -1    0.05    0.03
   5   9   1    0.10    0.03
   4 -10  -1    0.16    0.04
  -4  10   1    0.23    0.04
  -4  10   1    0.21    0.05
   3 -10  -1    1.70    0.09
   3 -10  -1    1.70    0.13
  -3  10   1    1.71    0.09
  -3  10   1    1.81    0.10
   2 -10  -1    1.94    0.15
   2 -10  -1    2.16    0.11
  -2  10   1    1.97    0.12
   1 -10  -1    2.06    0.11
   1 -10  -1    1.90    0.16
  -1  10   1    1.95    0.11
   0 -10  -1    2.10    0.13
   0  10   1    1.90    0.12
   0  10   1    1.98    0.13
  -1 -10  -1    9.47    0.36
   1  10   1   10.06    0.35
   1  10   1   10.00    0.35
  -2 -10  -1    1.62    0.13
   2  10   1    1.89    0.12
   2  10   1    1.72    0.11
  -3 -10  -1    0.09    0.05
   3  10   1    0.12    0.04
  -4 -10  -1    0.04    0.04
   4  10   1    0.07    0.03
   3 -11  -1    0.20    0.04
  -3  11   1    0.19    0.05
   2 -11  -1    1.17    0.07
   2 -11  -1    1.25    0.16
  -2  11   1    1.32    0.08
   1 -11  -1    0.02    0.04
  -1  11   1    0.00    0.03
   0 -11  -1    2.72    0.14
   0  11   1    2.78    0.13
   0  11   1    2.52    0.13
   1  11   1   14.49    0.46
   1  11   1   13.82    0.47
  -2 -11  -1    0.45    0.09
   2  11   1    0.31    0.08
   2  11   1    0.30    0.05
  -3 -11  -1    0.04    0.04
   3  11   1    0.07    0.03
  -1  12   1    0.22    0.04
   0  12   1    0.25    0.05
   1  12   1    1.78    0.09
   1  12   1    1.89    0.09
   2  12   1    0.61    0.05
   2  11  -2    0.34    0.04
   1  11  -2    0.95    0.06
   0  11  -2    0.27    0.05
   0  11  -2    0.33    0.06
   0 -11   2    0.19    0.05
  -1  11  -2    0.84    0.06
   1 -11   2    0.92    0.06
  -2  11  -2    5.30    0.18
   2 -11   2    5.10    0.18
   3  10  -2    1.30    0.07
   2  10  -2    0.00    0.03
   1  10  -2    4.22    0.17
   1  10  -2    4.17    0.17
   0  10  -2   -0.02    0.04
   0  10  -2    0.06    0.04
   0 -10   2    0.16    0.05
  -1  10  -2   10.94    0.38
  -1  10  -2   11.13    0.37
   1 -10   2   11.83    0.37
   1 -10   2   11.42    0.42
  -2  10  -2    1.09    0.07
   2 -10   2    1.24    0.13
   2 -10   2    1.02    0.07
  -3  10  -2    1.38    0.07
   3 -10   2    1.34    0.14
   3 -10   2    1.40    0.07
   4   9  -2    0.57    0.08
   4   9  -2    0.52    0.06
  -4  -9   2    0.54    0.06
   3   9  -2    1.30    0.11
   3   9  -2    1.31    0.08
  -3  -9   2    1.43    0.10
   2   9  -2    0.65    0.07
  -2  -9   2    0.58    0.09
   1   9  -2    0.64    0.10
   1   9  -2    0.73    0.08
  -1  -9   2    0.44    0.09
   0   9  -2    0.93    0.09
   0  -9   2    1.02    0.09
   0  -9   2    0.92    0.15
  -1   9  -2    1.36    0.10
   1  -9   2    1.38    0.09
   1  -9   2    1.22    0.13
  -2   9  -2    3.49    0.15
   2  -9   2    3.37    0.19
   2  -9   2    3.69    0.15
  -3   9  -2    1.18    0.08
   3  -9   2    1.14    0.11
   3  -9   2    1.05    0.07
  -4   9  -2    4.80    0.17
  -4   9  -2    4.53    0.17
   4  -9   2    4.74    0.21
   4  -9   2    4.60    0.17
   5   8  -2   10.59    0.33
  -5  -8   2    9.68    0.33
   4   8  -2    1.41    0.10
   4   8  -2    1.28    0.09
  -4  -8   2    1.30    0.09
   3   8  -2    6.90    0.27
  -3  -8   2    7.42    0.28
   2   8  -2    5.17    0.21
  -2  -8   2    5.20    0.23
   1   8  -2    7.97    0.30
  -1  -8   2    8.48    0.30
  -1  -8   2    7.79    0.32
  -1  -8   2    8.54    0.35
   0   8  -2    0.50    0.08
   0  -8   2    0.50    0.09
   0  -8   2    0.44    0.12
  -1   8  -2    2.95    0.15
   1  -8   2    3.25    0.15
   1  -8   2    3.09    0.18
  -2   8  -2   31.43    1.00
   2  -8   2   30.19    1.03
   2  -8   2   32.48    1.00
   2  -8   2   33.19    1.02
  -3   8  -2    9.75    0.33
  -3   8  -2    9.84    0.33
   3  -8   2    9.51    0.33
   3  -8   2    9.74    0.34
   3  -8   2    8.79    0.37
  -4   8  -2    0.26    0.05
  -4   8  -2    0.31    0.06
   4  -8   2    0.18    0.07
   4  -8   2    0.31    0.06
   4  -8   2    0.23    0.05
  -5   8  -2    2.96    0.12
  -5   8  -2    3.20    0.11
   5  -8   2    2.80    0.12
   5  -8   2    2.64    0.11
   5   7  -2    1.87    0.10
   5   7  -2    2.15    0.12
  -5  -7   2    2.13    0.10
   4   7  -2   -0.06    0.05
   4   7  -2   -0.02    0.05
  -4  -7   2    0.06    0.05
   3   7  -2    1.57    0.12
  -3  -7   2    1.56    0.13
   2   7  -2    1.35    0.11
  -2  -7   2    2.07    0.14
  -2  -7   2    1.74    0.15
   1   7  -2   12.99    0.46
  -1  -7   2   13.37    0.46
  -1  -7   2   13.26    0.47
  -1  -7   2   14.61    0.50
   0   7  -2    0.11    0.06
   0  -7   2    0.24    0.07
   0  -7   2    0.19    0.07
   0  -7   2    0.04    0.18
  -1   7  -2   14.74    0.50
   1  -7   2   14.97    0.50
   1  -7   2   15.92    0.54
   1  -7   2   15.08    0.50
  -2   7  -2    0.12    0.07
   2  -7   2   -0.01    0.06
   2  -7   2    0.03    0.07
   2  -7   2    0.03    0.06
  -3   7  -2    1.07    0.09
   3  -7   2    0.95    0.12
   3  -7   2    1.14    0.09
   3  -7   2    1.13    0.11
  -4   7  -2    6.72    0.24
  -4   7  -2    6.83    0.25
   4  -7   2    6.57    0.24
   4  -7   2    6.28    0.28
   4  -7   2    6.77    0.25
  -5   7  -2    0.14    0.04
  -5   7  -2    0.10    0.03
   5  -7   2    0.05    0.04
   5  -7   2    0.08    0.04
   5  -7   2    0.16    0.07
   6   6  -2    1.00    0.06
  -6  -6   2    0.94    0.06
   5   6  -2    0.95    0.09
   5   6  -2    0.99    0.11
  -5  -6   2    0.87    0.08
   4   6  -2    0.77    0.11
  -4  -6   2    0.72    0.10
   3   6  -2    2.08    0.13
  -3  -6   2    2.28    0.15
   2   6  -2    5.16    0.25
  -2  -6   2    4.75    0.24
  -2  -6   2    5.03    0.22
  -2  -6   2    4.90    0.25
  -2  -6   2    5.22    0.24
  -2  -6   2    4.69    0.29
   1   6  -2   26.60    0.88
   1   6  -2   27.95    0.89
  -1  -6   2   27.67    0.88
  -1  -6   2   27.44    0.92
  -1  -6   2   27.02    0.87
  -1  -6   2   29.99    0.91
   0   6  -2    9.33    0.34
   0   6  -2    9.39    0.34
   0  -6   2    9.64    0.38
   0  -6   2    9.51    0.33
   0  -6   2    9.78    0.36
   0  -6   2    9.55    0.33
  -1   6  -2    2.23    0.13
   1  -6   2    2.14    0.17
   1  -6   2    2.29    0.13
   1  -6   2    2.15    0.14
   1  -6   2    2.33    0.13
  -2   6  -2   23.76    0.77
   2  -6   2   24.37    0.77
   2  -6   2   23.76    0.83
   2  -6   2   24.96    0.77
   2  -6   2   25.17    0.81
   2  -6   2   24.32    0.78
  -3   6  -2    0.03    0.05
   3  -6   2   -0.02    0.05
   3  -6   2    0.03    0.06
   3  -6   2    0.03    0.04
  -4   6  -2   21.73    0.67
   4  -6   2   20.02    0.71
   4  -6   2   20.82    0.68
   4  -6   2   21.19    0.67
  -5   6  -2    2.74    0.12
  -5   6  -2    2.76    0.13
   5  -6   2    2.65    0.17
   5  -6   2    2.89    0.14
   5  -6   2    2.82    0.13
  -6   6  -2    1.46    0.07
   6  -6   2    1.45    0.08
   6   5  -2    0.16    0.04
  -6  -5   2    0.11    0.03
   5   5  -2    3.92    0.19
  -5  -5   2    4.21    0.18
   4   5  -2    0.43    0.11
  -4  -5   2    0.26    0.06
   3   5  -2    2.53    0.15
   3   5  -2    2.02    0.19
  -3  -5   2    2.58    0.16
  -3  -5   2    2.20    0.23
   2   5  -2    5.47    0.23
  -2  -5   2    5.54    0.25
  -2  -5   2    5.43    0.26
  -2  -5   2    5.18    0.25
  -2  -5   2    5.41    0.23
   1   5  -2    0.44    0.06
  -1  -5   2    0.48    0.10
  -1  -5   2    0.49    0.09
   0   5  -2    3.78    0.16
   0  -5   2    3.85    0.18
   0  -5   2    3.92    0.18
  -1   5  -2    0.08    0.04
   1  -5   2    0.04    0.04
   1  -5   2    0.19    0.08
  -2   5  -2    9.70    0.34
   2  -5   2   10.05    0.37
   2  -5   2   10.17    0.34
   2  -5   2   10.34    0.37
   2  -5   2    9.66    0.34
  -3   5  -2    0.55    0.08
   3  -5   2    0.58    0.08
   3  -5   2    0.69    0.09
   3  -5   2    0.67    0.10
   3  -5   2    0.79    0.11
  -4   5  -2    3.26    0.15
   4  -5   2    3.52    0.16
   4  -5   2    3.46    0.17
   4  -5   2    3.40    0.19
  -5   5  -2    4.98    0.19
   5  -5   2    4.94    0.20
   5  -5   2    4.89    0.20
   5  -5   2    4.68    0.23
  -6   5  -2   -0.02    0.02
   6  -5   2    0.08    0.04
   6   4  -2    4.66    0.19
  -6  -4   2    4.79    0.18
  -6  -4   2    4.67    0.18
   5   4  -2    1.14    0.12
  -5  -4   2    1.34    0.12
  -5  -4   2    1.39    0.11
   4   4  -2    4.50    0.22
  -4  -4   2    4.36    0.22
  -4  -4   2    4.70    0.21
  -4  -4   2    4.67    0.24
   3   4  -2   23.66    0.75
   3   4  -2   22.09    0.73
  -3  -4   2   21.53    0.75
  -3  -4   2   22.22    0.73
  -3  -4   2   22.15    0.75
  -3  -4   2   23.10    0.76
   2   4  -2    7.82    0.28
  -2  -4   2    7.45    0.30
  -2  -4   2    7.80    0.30
   1   4  -2    0.04    0.03
  -1  -4   2    0.03    0.03
  -1  -4   2    0.07    0.05
   0   4  -2    2.33    0.10
   0  -4   2    2.40    0.12
   0  -4   2    2.58    0.13
  -1   4  -2   20.48    0.67
   1  -4   2   21.78    0.69
   1  -4   2   22.25    0.69
   2  -4   2    1.37    0.10
   2  -4   2    1.41    0.09
   3  -4   2    3.01    0.15
   3  -4   2    3.13    0.15
   3  -4   2    2.70    0.16
   3  -4   2    2.87    0.16
   3  -4   2    2.88    0.14
   4  -4   2    5.14    0.23
   4  -4   2    5.28    0.24
   4  -4   2    4.97    0.22
   4  -4   2    4.67    0.21
   4  -4   2    5.59    0.21
  -5   4  -2    4.23    0.18
   5  -4   2    4.30    0.19
   5  -4   2    4.41    0.18
   5  -4   2    4.06    0.22
  -6   4  -2    0.73    0.06
   6  -4   2    0.80    0.07
  -7   4  -2    0.93    0.05
   7  -4   2    1.01    0.06
   6   3  -2   23.80    0.79
   6   3  -2   24.83    0.78
  -6  -3   2   24.36    0.78
  -6  -3   2   25.85    0.78
   5   3  -2    0.84    0.11
  -5  -3   2    0.63    0.10
  -5  -3   2    0.87    0.10
  -4  -3   2    7.51    0.29
  -4  -3   2    7.32    0.29
  -4  -3   2    7.67    0.31
   3   3  -2    7.72    0.29
  -3  -3   2    7.11    0.29
  -3  -3   2    7.75    0.31
  -3  -3   2    7.46    0.30
   2   3  -2    4.21    0.17
  -2  -3   2    4.30    0.18
  -2  -3   2    4.28    0.20
   1   3  -2    6.52    0.22
  -1  -3   2    6.49    0.23
  -1  -3   2    6.35    0.24
   0   3  -2    0.01    0.02
   0  -3   2    0.05    0.02
   1  -3   2    4.49    0.18
   1  -3   2    4.65    0.17
   2  -3   2   24.44    0.77
   2  -3   2   25.54    0.77
   2  -3   2   24.72    0.79
   3  -3   2   25.65    0.83
   3  -3   2   25.99    0.81
   4  -3   2    0.97    0.11
   4  -3   2    0.82    0.13
   4  -3   2    0.75    0.12
   4  -3   2    0.72    0.11
   4  -3   2    0.85    0.14
   4  -3   2    0.76    0.11
  -5   3  -2    0.81    0.12
   5  -3   2    0.93    0.10
   5  -3   2    0.73    0.13
   5  -3   2    0.70    0.11
   5  -3   2    0.96    0.10
  -6   3  -2    0.11    0.03
  -6   3  -2    0.07    0.05
   6  -3   2    0.19    0.06
   6  -3   2    0.17    0.05
  -7   3  -2    0.23    0.04
   7  -3   2    0.21    0.04
   7   2  -2    5.95    0.21
  -7  -2   2    6.05    0.20
   6   2  -2   19.67    0.64
   6   2  -2   19.54    0.64
  -6  -2   2   19.16    0.63
  -6  -2   2   19.70    0.63
   5   2  -2    2.85    0.17
  -5  -2   2    2.85    0.16
  -5  -2   2    2.67    0.15
   4   2  -2    0.14    0.09
  -4  -2   2    0.05    0.10
  -4  -2   2    0.20    0.07
  -4  -2   2    0.45    0.18
  -4  -2   2    0.09    0.09
  -4  -2   2    0.13    0.06
   3   2  -2   21.70    0.67
  -3  -2   2   19.57    0.67
  -3  -2   2   20.44    0.68
   2   2  -2   51.53    1.57
  -2  -2   2   51.55    1.58
  -2  -2   2   51.99    1.59
   1   2  -2   35.78    1.07
  -1  -2   2   34.72    1.08
   0   2  -2   19.22    0.59
   0  -2   2   19.56    0.60
  -1   2  -2   58.99    1.93
   1  -2   2   64.18    1.92
   1  -2   2   68.89    1.93
  -2   2  -2   14.90    0.47
   2  -2   2   14.36    0.49
   2  -2   2   15.82    0.46
   2  -2   2   14.46    0.47
   3  -2   2   21.06    0.68
   3  -2   2   20.69    0.66
  -4   2  -2    0.63    0.13
   4  -2   2    0.83    0.11
   4  -2   2    0.73    0.11
   4  -2   2    0.62    0.11
   4  -2   2    0.62    0.13
   4  -2   2    0.85    0.12
  -5   2  -2    0.09    0.06
   5  -2   2    0.06    0.06
   5  -2   2    0.00    0.08
   5  -2   2    0.11    0.06
  -6   2  -2    0.26    0.08
  -6   2  -2    0.35    0.06
   6  -2   2    0.49    0.09
   6  -2   2    0.37    0.08
  -7   2  -2    0.44    0.06
  -7   2  -2    0.59    0.05
   7  -2   2    0.51    0.06
   7   1  -2    1.59    0.09
   7   1  -2    1.60    0.09
  -7  -1   2    1.62    0.08
   6   1  -2    0.83    0.10
   6   1  -2    0.68    0.09
  -6  -1   2    0.78    0.08
   5   1  -2   16.47    0.57
  -5  -1   2   16.97    0.55
  -5  -1   2   15.97    0.55
   4   1  -2    4.25    0.22
   4   1  -2    4.44    0.22
  -4  -1   2    4.21    0.22
  -4  -1   2    4.78    0.20
  -4  -1   2    4.24    0.20
   3   1  -2    1.56    0.09
  -3  -1   2    1.31    0.13
  -3  -1   2    1.23    0.09
   2   1  -2    1.40    0.07
  -2  -1   2    1.38    0.08
   1   1  -2   12.40    0.39
  -1  -1   2   12.10    0.39
   0   1  -2   29.22    0.88
   0   1  -2   28.93    0.88
   0   1  -2   27.84    0.89
   0  -1   2   30.70    0.89
  -1   1  -2   20.45    0.65
  -1   1  -2   20.63    0.66
   1  -1   2   22.08    0.65
   1  -1   2   22.48    0.65
   2  -1   2   43.26    1.23
   2  -1   2   38.94    1.25
   3  -1   2    8.28    0.28
   3  -1   2    8.25    0.30
   4  -1   2   10.37    0.41
   4  -1   2   12.20    0.42
   4  -1   2   12.43    0.41
   4  -1   2   12.02    0.41
   4  -1   2   12.30    0.42
  -5   1  -2   22.59    0.74
   5  -1   2   22.56    0.74
   5  -1   2   23.43    0.75
  -6   1  -2    0.49    0.08
   6  -1   2    0.47    0.09
   6  -1   2    0.45    0.08
  -7   1  -2    0.49    0.05
  -7   1  -2    0.50    0.06
   7  -1   2    0.49    0.06
   7  -1   2    0.39    0.06
   7   0  -2    0.22    0.05
  -7   0   2    0.21    0.04
   6   0  -2   17.89    0.59
   6   0  -2   18.02    0.58
  -6   0   2   17.41    0.57
  -6   0   2   17.73    0.58
   5   0  -2   14.19    0.51
   5   0  -2   14.13    0.48
  -5   0   2   13.50    0.47
  -5   0   2   13.45    0.47
   4   0  -2    0.56    0.10
   4   0  -2    0.55    0.11
  -4   0   2    0.46    0.10
  -4   0   2    0.43    0.10
   3   0  -2    2.30    0.11
  -3   0   2    2.38    0.14
   2   0  -2    0.06    0.02
  -2   0   2    0.06    0.02
   1   0  -2    3.69    0.14
   1   0  -2    3.96    0.13
  -1   0   2    3.76    0.13
  -1   0   2    3.72    0.14
   0   0  -2    5.18    0.17
   0   0  -2    5.55    0.18
   0   0   2    5.75    0.18
  -1   0  -2    4.67    0.14
  -1   0  -2    4.11    0.15
   1   0   2    4.80    0.14
   1   0   2    4.44    0.15
   2   0   2    0.24    0.03
   3   0   2   75.33    2.28
   4   0   2   19.86    0.74
   4   0   2   26.06    0.75
  -5   0  -2    0.16    0.05
   5   0   2    0.09    0.06
   5   0   2    0.07    0.06
  -6   0  -2    1.28    0.10
   6   0   2    1.05    0.11
   6   0   2    1.38    0.12
  -7   0  -2    0.56    0.06
  -7   0  -2    0.60    0.06
   7   0   2    0.44    0.06
   7   0   2    0.52    0.07
   7  -1  -2    0.22    0.05
  -7   1   2    0.08    0.03
   6  -1  -2    0.07    0.05
   6  -1  -2    0.13    0.06
  -6   1   2    0.14    0.05
   5  -1  -2    1.19    0.16
   5  -1  -2    1.32    0.14
  -5   1   2    1.23    0.11
  -5   1   2    1.18    0.14
  -5   1   2    1.21    0.13
   4  -1  -2    0.41    0.10
   4  -1  -2    0.34    0.11
  -4   1   2    0.46    0.10
  -4   1   2    0.42    0.12
  -4   1   2    0.44    0.09
   3  -1  -2   14.04    0.45
  -3   1   2   13.70    0.48
   2  -1  -2   14.67    0.46
   1  -1  -2    2.23    0.10
   1  -1  -2    2.54    0.08
  -1   1   2    2.27    0.08
   0  -1  -2  169.29    5.09
   0  -1  -2  170.61    5.13
  -1  -1  -2  232.54    7.15
  -1  -1  -2  240.38    7.13
   1   1   2  240.47    7.15
   2   1   2   27.29    0.83
   3   1   2   50.73    1.55
   4   1   2   11.30    0.39
   4   1   2   10.68    0.39
  -5  -1  -2    1.33    0.12
   5   1   2    1.35    0.14
   5   1   2    1.16    0.13
   5   1   2    1.26    0.12
  -6  -1  -2   10.35    0.37
   6   1   2   10.46    0.37
   6   1   2   10.55    0.37
  -7  -1  -2    0.63    0.06
   7   1   2    0.54    0.07
   7   1   2    0.62    0.08
   7  -2  -2    0.02    0.03
  -7   2   2   -0.02    0.02
   6  -2  -2    0.12    0.05
  -6   2   2    0.04    0.04
   5  -2  -2    2.20    0.18
   5  -2  -2    2.61    0.16
   5  -2  -2    2.51    0.18
  -5   2   2    2.62    0.14
  -5   2   2    2.50    0.16
  -5   2   2    2.72    0.14
   4  -2  -2    1.76    0.15
  -4   2   2    1.81    0.14
  -4   2   2    1.72    0.11
  -4   2   2    1.39    0.16
  -4   2   2    1.80    0.12
   3  -2  -2    3.11    0.13
   3  -2  -2    3.10    0.14
   2  -2  -2   59.83    1.71
   2  -2  -2   53.87    1.72
  -2   2   2   57.27    1.74
  -2   2   2   56.20    1.71
   1  -2  -2  125.40    3.99
   1  -2  -2  143.76    4.00
   1  -2  -2  128.13    4.06
  -1   2   2  135.35    3.99
   0  -2  -2   71.81    2.13
   0  -2  -2   67.70    2.08
  -1  -2  -2    1.11    0.05
  -1  -2  -2    1.18    0.05
   1   2   2    1.15    0.05
   1   2   2    1.16    0.05
  -2  -2  -2    9.19    0.29
   2   2   2    9.08    0.30
   2   2   2    9.01    0.29
  -3  -2  -2    1.54    0.07
   3   2   2    1.44    0.08
   4   2   2    4.62    0.22
   4   2   2    4.80    0.21
  -5  -2  -2    0.55    0.16
   5   2   2    0.55    0.11
   5   2   2    0.38    0.09
   5   2   2    0.72    0.13
   5   2   2    0.60    0.09
  -6  -2  -2    1.41    0.11
   6   2   2    1.45    0.13
   6   2   2    1.55    0.12
  -7  -2  -2    0.07    0.04
   7   2   2    0.11    0.04
   7  -3  -2    0.37    0.05
  -7   3   2    0.35    0.05
   6  -3  -2    0.01    0.04
   6  -3  -2    0.08    0.10
  -6   3   2   -0.02    0.04
  -6   3   2    0.05    0.04
   5  -3  -2   20.50    0.71
   5  -3  -2   21.00    0.69
  -5   3   2   20.87    0.67
  -5   3   2   21.06    0.68
   4  -3  -2    0.14    0.06
  -4   3   2    0.07    0.07
  -4   3   2    0.05    0.04
  -4   3   2    0.11    0.06
   3  -3  -2    0.34    0.07
   3  -3  -2    0.35    0.06
   2  -3  -2   49.14    1.54
   2  -3  -2   54.29    1.52
  -2   3   2   47.82    1.52
   0  -3  -2    1.25    0.06
   0   3   2    1.04    0.07
  -1  -3  -2   12.96    0.38
  -1  -3  -2   10.54    0.36
   1   3   2   12.62    0.36
   1   3   2   10.70    0.38
  -2  -3  -2   11.11    0.34
   2   3   2   10.03    0.35
   2   3   2   10.59    0.34
  -3  -3  -2   23.42    0.71
   3   3   2   21.90    0.72
  -4  -3  -2   22.12    0.76
   4   3   2   24.34    0.76
   4   3   2   22.68    0.75
   4   3   2   24.00    0.76
  -5  -3  -2    0.39    0.09
   5   3   2    0.40    0.10
   5   3   2    0.40    0.11
   5   3   2    0.51    0.12
  -6  -3  -2    3.66    0.18
  -6  -3  -2    3.96    0.18
   6   3   2    3.87    0.18
  -7  -3  -2    0.07    0.03
   7   3   2    0.17    0.04
   6  -4  -2    0.78    0.15
   6  -4  -2    0.74    0.08
   6  -4  -2    0.78    0.09
  -6   4   2    0.92    0.07
  -6   4   2    0.84    0.07
   5  -4  -2    1.79    0.14
   5  -4  -2    1.71    0.13
  -5   4   2    1.77    0.12
  -5   4   2    1.77    0.10
   4  -4  -2   54.04    1.64
   4  -4  -2   50.83    1.61
  -4   4   2   51.31    1.61
  -4   4   2   52.53    1.60
   3  -4  -2   14.93    0.50
   3  -4  -2   15.36    0.51
  -3   4   2   13.86    0.47
  -3   4   2   14.01    0.48
   2  -4  -2    0.89    0.05
   2  -4  -2    0.85    0.09
   2  -4  -2    0.88    0.08
   1  -4  -2    2.07    0.10
   1  -4  -2    2.01    0.11
   0  -4  -2    6.04    0.22
  -1  -4  -2    5.93    0.22
  -1  -4  -2    5.95    0.20
   1   4   2    6.62    0.20
  -2  -4  -2    7.74    0.27
   2   4   2    7.89    0.26
  -3  -4  -2   18.43    0.59
   3   4   2   18.18    0.59
  -4  -4  -2    0.27    0.08
   4   4   2    0.10    0.07
   4   4   2   -0.05    0.06
   4   4   2   -0.07    0.06
   4   4   2    0.06    0.07
  -5  -4  -2   41.42    1.29
   5   4   2   41.14    1.28
   5   4   2   41.25    1.30
  -6  -4  -2    0.02    0.04
  -6  -4  -2    0.16    0.07
   6   4   2    0.12    0.07
   6   4   2    0.15    0.06
  -7  -4  -2    2.75    0.12
   7   4   2    3.06    0.13
   6  -5  -2    1.12    0.08
   6  -5  -2    1.13    0.08
   6  -5  -2    1.34    0.14
  -6   5   2    1.19    0.08
  -6   5   2    1.21    0.07
   5  -5  -2    2.72    0.15
   5  -5  -2    2.78    0.17
  -5   5   2    2.97    0.14
  -5   5   2    2.92    0.14
   4  -5  -2   10.84    0.41
   4  -5  -2   10.80    0.39
  -4   5   2   10.72    0.37
  -4   5   2   11.28    0.39
   3  -5  -2    7.55    0.30
   3  -5  -2    7.52    0.30
   3  -5  -2    6.79    0.30
  -3   5   2    7.46    0.26
  -3   5   2    7.12    0.28
   2  -5  -2    2.04    0.13
   2  -5  -2    2.14    0.13
   1  -5  -2    3.59    0.16
   1  -5  -2    3.48    0.16
   0  -5  -2    0.02    0.03
  -1  -5  -2    0.12    0.05
   1   5   2    0.23    0.04
  -2  -5  -2   61.20    1.92
   2   5   2   64.05    1.90
  -3  -5  -2    6.89    0.27
   3   5   2    6.58    0.26
   3   5   2    7.36    0.27
  -4  -5  -2    0.49    0.12
   4   5   2    0.55    0.10
   4   5   2    0.59    0.10
   4   5   2    0.55    0.16
   4   5   2    0.47    0.12
  -5  -5  -2   23.56    0.77
   5   5   2   23.93    0.78
   5   5   2   23.89    0.77
  -6  -5  -2    1.35    0.11
  -6  -5  -2    1.17    0.09
   6   5   2    1.23    0.10
   6   5   2    1.41    0.11
  -7  -5  -2    0.24    0.05
   7   5   2    0.11    0.03
   6  -6  -2    2.28    0.10
   6  -6  -2    2.31    0.10
  -6   6   2    2.45    0.10
  -6   6   2    2.42    0.11
   5  -6  -2    3.80    0.20
   5  -6  -2    3.98    0.16
   5  -6  -2    4.09    0.17
  -5   6   2    3.78    0.17
  -5   6   2    3.93    0.16
   4  -6  -2    0.03    0.06
   4  -6  -2    0.02    0.06
  -4   6   2    0.08    0.04
  -4   6   2    0.07    0.06
   3  -6  -2   10.05    0.45
   3  -6  -2   10.58    0.39
   3  -6  -2   11.38    0.41
  -3   6   2   11.01    0.37
  -3   6   2   10.69    0.38
  -3   6   2   10.72    0.37
   2  -6  -2   28.04    0.93
   2  -6  -2   29.68    0.92
  -2   6   2   28.53    0.89
  -2   6   2   27.44    0.89
   1  -6  -2    0.10    0.05
   1  -6  -2    0.12    0.05
   0  -6  -2    2.80    0.14
   0  -6  -2    2.54    0.14
  -1  -6  -2    0.63    0.08
   1   6   2    0.62    0.06
  -2  -6  -2  311.51    9.41
   2   6   2  312.95    9.35
  -3  -6  -2    5.44    0.27
   3   6   2    5.31    0.27
   3   6   2    5.64    0.26
   3   6   2    5.87    0.26
   3   6   2    5.90    0.25
   3   6   2    5.85    0.23
  -4  -6  -2    2.87    0.17
   4   6   2    2.89    0.17
   4   6   2    2.73    0.15
  -5  -6  -2    2.55    0.15
   5   6   2    2.62    0.15
   5   6   2    2.49    0.15
  -6  -6  -2    7.83    0.28
  -6  -6  -2    7.92    0.28
   6   6   2    7.70    0.28
   6   6   2    7.81    0.28
   6  -7  -2    0.15    0.05
   6  -7  -2    0.11    0.06
  -6   7   2    0.13    0.03
   5  -7  -2    1.09    0.11
   5  -7  -2    1.07    0.08
   5  -7  -2    1.09    0.09
  -5   7   2    1.51    0.15
  -5   7   2    1.08    0.07
   4  -7  -2    0.88    0.11
   4  -7  -2    1.00    0.09
   4  -7  -2    0.82    0.11
  -4   7   2    0.87    0.08
  -4   7   2    0.91    0.12
   3  -7  -2    1.29    0.10
   3  -7  -2    1.03    0.15
   3  -7  -2    1.44    0.13
  -3   7   2    1.26    0.11
  -3   7   2    0.97    0.15
  -3   7   2    1.18    0.09
   2  -7  -2    3.88    0.25
   2  -7  -2    4.28    0.18
   2  -7  -2    4.17    0.20
  -2   7   2    4.20    0.18
  -2   7   2    4.12    0.18
   1  -7  -2   24.22    0.82
   1  -7  -2   24.89    0.78
   1  -7  -2   24.98    0.80
  -1   7   2   24.63    0.78
  -1   7   2   24.32    0.78
   0  -7  -2    0.00    0.05
   0  -7  -2   -0.01    0.06
   0   7   2    0.07    0.05
  -1  -7  -2    1.12    0.13
   1   7   2    1.13    0.16
   1   7   2    1.06    0.11
   1   7   2    1.08    0.13
  -2  -7  -2   26.09    0.86
   2   7   2   24.69    0.81
  -3  -7  -2    0.55    0.23
   3   7   2    0.60    0.12
   3   7   2    0.51    0.15
   3   7   2    0.43    0.09
   3   7   2    0.35    0.10
  -4  -7  -2    0.81    0.11
   4   7   2    0.74    0.09
   4   7   2    0.48    0.12
  -5  -7  -2    3.58    0.18
  -5  -7  -2    3.70    0.17
   5   7   2    3.78    0.17
   5   7   2    3.62    0.17
  -6  -7  -2    0.58    0.07
  -6  -7  -2    0.68    0.07
   6   7   2    0.70    0.07
   6   7   2    0.65    0.07
   5  -8  -2    3.33    0.13
   5  -8  -2    3.47    0.17
  -5   8   2    2.98    0.13
   4  -8  -2    0.96    0.08
   4  -8  -2    0.84    0.10
   4  -8  -2    0.93    0.13
  -4   8   2    1.10    0.08
   3  -8  -2    0.14    0.06
   3  -8  -2    0.18    0.05
  -3   8   2    0.08    0.05
  -3   8   2    0.12    0.04
   2  -8  -2   27.75    0.87
   2  -8  -2   28.53    0.91
  -2   8   2   26.43    0.87
  -2   8   2   27.27    0.87
   1  -8  -2   22.36    0.72
   1  -8  -2   20.94    0.69
  -1   8   2   21.47    0.70
  -1   8   2   22.03    0.70
   0  -8  -2    0.07    0.10
   0  -8  -2    0.35    0.12
   0  -8  -2    0.19    0.07
   0   8   2    0.17    0.08
   0   8   2    0.23    0.06
   0   8   2    0.01    0.08
   0   8   2    0.04    0.10
  -1  -8  -2    8.81    0.38
   1   8   2    8.47    0.32
   1   8   2    8.77    0.32
   1   8   2    8.77    0.34
   2   8   2    0.57    0.10
   2   8   2    0.48    0.09
   3   8   2   59.32    1.83
   3   8   2   59.79    1.84
  -4  -8  -2    7.55    0.30
   4   8   2    7.50    0.28
   4   8   2    7.65    0.29
  -5  -8  -2    1.86    0.11
   5   8   2    1.81    0.11
   5   8   2    1.82    0.11
  -6  -8  -2    0.10    0.03
   6   8   2    0.10    0.04
   6   8   2    0.12    0.04
   5  -9  -2    0.65    0.04
  -5   9   2    0.56    0.04
   4  -9  -2    4.79    0.18
   4  -9  -2    5.06    0.22
  -4   9   2    4.68    0.18
   3  -9  -2    1.48    0.09
   3  -9  -2    1.45    0.13
  -3   9   2    1.49    0.10
  -3   9   2    1.32    0.09
   2  -9  -2    0.33    0.07
  -2   9   2    0.42    0.08
  -2   9   2    0.41    0.07
   1  -9  -2    0.13    0.05
   1  -9  -2    0.07    0.07
  -1   9   2    0.05    0.05
  -1   9   2    0.03    0.06
   0  -9  -2   10.64    0.37
   0  -9  -2   11.13    0.43
   0   9   2   10.76    0.41
   0   9   2   11.17    0.38
   0   9   2   10.42    0.39
   0   9   2   10.57    0.38
   1   9   2    3.19    0.16
   1   9   2    2.89    0.15
   2   9   2    0.02    0.05
   2   9   2    0.26    0.07
  -3  -9  -2    1.53    0.12
   3   9   2    1.64    0.11
   3   9   2    1.47    0.14
  -4  -9  -2    4.51    0.20
   4   9   2    4.52    0.19
  -5  -9  -2    0.28    0.06
   5   9   2    0.29    0.05
   4 -10  -2    1.38    0.13
   4 -10  -2    1.51    0.07
  -4  10   2    1.40    0.07
   3 -10  -2    2.28    0.11
   3 -10  -2    2.14    0.15
  -3  10   2    2.29    0.11
  -3  10   2    2.23    0.11
   2 -10  -2    1.09    0.13
   2 -10  -2    1.05    0.08
  -2  10   2    1.14    0.09
  -2  10   2    1.07    0.09
   1 -10  -2    9.43    0.32
   1 -10  -2    8.94    0.36
  -1  10   2    9.68    0.34
  -1  10   2    9.34    0.33
   0 -10  -2    6.53    0.25
   0  10   2    6.87    0.26
   0  10   2    6.70    0.26
   1  10   2    9.58    0.34
   1  10   2    9.73    0.35
  -2 -10  -2    0.03    0.06
   2  10   2    0.05    0.05
   2  10   2    0.08    0.05
  -3 -10  -2    2.09    0.13
   3  10   2    2.10    0.14
   3  10   2    2.41    0.12
  -4 -10  -2    9.47    0.32
   4  10   2    9.19    0.31
  -5 -10  -2    0.95    0.06
   3 -11  -2    0.89    0.06
  -3  11   2    0.75    0.07
  -3  11   2    0.81    0.06
   2 -11  -2    0.86    0.06
   2 -11  -2    0.97    0.16
  -2  11   2    0.74    0.08
  -2  11   2    0.68    0.07
   1 -11  -2    1.16    0.08
  -1  11   2    1.16    0.09
   0  11   2    0.08    0.04
  -1 -11  -2    5.14    0.22
   1  11   2    5.07    0.20
   1  11   2    4.91    0.20
  -2 -11  -2    1.14    0.10
   2  11   2    1.17    0.10
   2  11   2    1.09    0.08
  -3 -11  -2    2.73    0.12
   3  11   2    2.63    0.12
  -4 -11  -2   21.24    0.63
   4  11   2   19.51    0.63
   2 -12  -2    0.27    0.05
  -1  12   2    1.92    0.09
   0  12   2    0.27    0.05
   1  12   2    3.08    0.13
   1  12   2    3.17    0.13
   2  12   2    1.09    0.08
   2  12   2    0.86    0.06
   0  11  -3    0.08    0.03
   2  10  -3    0.86    0.06
   1  10  -3    1.72    0.09
   0  10  -3    0.29    0.06
   0  10  -3    0.34    0.07
   0 -10   3    0.36    0.06
  -1  10  -3    7.69    0.27
  -1  10  -3    7.84    0.27
   1 -10   3    8.05    0.27
   1 -10   3    7.98    0.32
  -2  10  -3    2.93    0.12
   2 -10   3    2.78    0.18
   2 -10   3    2.77    0.11
  -3  10  -3    0.71    0.05
   3 -10   3    0.72    0.05
   3   9  -3    0.21    0.05
   3   9  -3    0.04    0.06
   2   9  -3    0.35    0.06
   1   9  -3    1.87    0.11
   1   9  -3    1.62    0.14
  -1  -9   3    1.86    0.11
   0   9  -3    2.13    0.12
   0  -9   3    2.03    0.11
   0  -9   3    1.84    0.17
  -1   9  -3    1.95    0.11
   1  -9   3    2.11    0.11
   1  -9   3    1.80    0.15
  -2   9  -3    4.73    0.18
   2  -9   3    4.68    0.22
   2  -9   3    4.70    0.18
  -3   9  -3    1.12    0.07
   3  -9   3    1.20    0.07
   3  -9   3    1.35    0.12
  -4   9  -3    0.21    0.04
   4  -9   3    0.15    0.04
   4   8  -3    0.01    0.04
   4   8  -3    0.04    0.04
  -4  -8   3    0.02    0.03
   3   8  -3    0.24    0.07
  -3  -8   3    0.22    0.06
   2   8  -3    0.90    0.09
  -2  -8   3    0.68    0.13
  -2  -8   3    0.93    0.12
   1   8  -3    0.51    0.11
  -1  -8   3    0.28    0.09
  -1  -8   3    0.34    0.08
  -1  -8   3    0.46    0.09
   0   8  -3    1.06    0.10
   0  -8   3    0.93    0.13
   0  -8   3    1.19    0.10
  -1   8  -3    4.58    0.19
   1  -8   3    4.33    0.22
   1  -8   3    4.80    0.19
  -2   8  -3    3.17    0.14
   2  -8   3    3.09    0.17
   2  -8   3    2.96    0.18
   2  -8   3    3.03    0.14
  -3   8  -3    0.98    0.08
   3  -8   3    0.95    0.08
   3  -8   3    1.08    0.10
   3  -8   3    0.97    0.11
  -4   8  -3    0.67    0.06
  -4   8  -3    0.57    0.07
   4  -8   3    0.61    0.08
   4  -8   3    0.67    0.06
   4  -8   3    0.83    0.11
  -5   8  -3    4.94    0.19
  -5   8  -3    4.38    0.16
   5  -8   3    4.50    0.16
   5   7  -3    2.25    0.11
  -5  -7   3    2.38    0.10
   4   7  -3    2.48    0.13
   4   7  -3    2.34    0.13
  -4  -7   3    2.57    0.13
   3   7  -3    7.41    0.28
  -3  -7   3    7.40    0.28
   2   7  -3    8.14    0.30
  -2  -7   3    7.51    0.35
  -2  -7   3    7.92    0.30
  -2  -7   3    8.19    0.30
  -2  -7   3    8.12    0.31
   1   7  -3    0.06    0.08
  -1  -7   3    0.01    0.07
  -1  -7   3    0.16    0.07
  -1  -7   3    0.10    0.07
   0   7  -3   16.64    0.56
   0  -7   3   16.80    0.57
   0  -7   3   17.39    0.56
   0  -7   3   17.82    0.60
  -1   7  -3    0.32    0.08
   1  -7   3    0.24    0.09
   1  -7   3    0.31    0.10
   1  -7   3    0.32    0.08
   2  -7   3    5.77    0.23
   2  -7   3    6.11    0.23
   2  -7   3    6.01    0.27
   2  -7   3    5.86    0.24
  -3   7  -3    8.32    0.29
   3  -7   3    7.63    0.33
   3  -7   3    8.42    0.30
   3  -7   3    8.08    0.29
   3  -7   3    8.08    0.29
  -4   7  -3    3.99    0.16
   4  -7   3    3.87    0.17
   4  -7   3    4.22    0.16
   4  -7   3    3.63    0.20
  -5   7  -3    0.34    0.05
  -5   7  -3    0.37    0.05
   5  -7   3    0.39    0.06
   5  -7   3    0.36    0.06
   5   6  -3    0.01    0.04
  -5  -6   3   -0.02    0.03
   4   6  -3   21.03    0.67
  -4  -6   3   20.30    0.67
   3   6  -3    1.26    0.11
  -3  -6   3    1.14    0.12
  -2  -6   3   12.51    0.46
  -2  -6   3   13.75    0.45
  -2  -6   3   12.64    0.45
  -2  -6   3   13.59    0.49
   1   6  -3    0.22    0.09
  -1  -6   3    0.07    0.10
  -1  -6   3    0.15    0.08
  -1  -6   3    0.17    0.08
  -1  -6   3    0.18    0.06
   0   6  -3    0.08    0.07
   0   6  -3    0.09    0.07
   0  -6   3    0.11    0.05
   0  -6   3    0.08    0.10
   0  -6   3    0.04    0.09
   0  -6   3    0.01    0.06
   0  -6   3   -0.02    0.07
   0  -6   3    0.04    0.05
  -1   6  -3    3.21    0.18
   1  -6   3    3.08    0.15
   1  -6   3    3.11    0.17
   1  -6   3    2.70    0.22
   1  -6   3    3.04    0.18
   1  -6   3    3.00    0.15
   1  -6   3    3.12    0.18
   2  -6   3   17.82    0.60
   2  -6   3   17.93    0.59
   2  -6   3   17.74    0.59
   2  -6   3   19.01    0.63
  -3   6  -3    9.50    0.34
   3  -6   3   10.50    0.39
   3  -6   3    9.59    0.35
   3  -6   3    9.76    0.34
   3  -6   3    9.49    0.34
  -4   6  -3    0.24    0.07
   4  -6   3    0.24    0.07
   4  -6   3    0.16    0.05
   4  -6   3    0.27    0.08
  -5   6  -3   13.82    0.44
   5  -6   3   13.47    0.45
   5  -6   3   13.56    0.49
   5  -6   3   13.66    0.44
  -6   6  -3    1.24    0.06
   6  -6   3    1.27    0.07
   6   5  -3    0.75    0.06
  -6  -5   3    0.88    0.06
   5   5  -3    1.92    0.12
  -5  -5   3    1.87    0.11
   4   5  -3   26.87    0.84
  -4  -5   3   26.07    0.85
  -4  -5   3   26.21    0.85
   3   5  -3    3.18    0.18
  -3  -5   3    3.26    0.23
  -3  -5   3    3.46    0.21
  -3  -5   3    3.47    0.18
   2   5  -3    0.71    0.13
  -2  -5   3    1.06    0.15
  -2  -5   3    1.02    0.16
  -2  -5   3    1.06    0.12
  -2  -5   3    0.79    0.13
  -2  -5   3    1.00    0.14
  -2  -5   3    0.90    0.18
   1   5  -3   10.61    0.39
  -1  -5   3   11.37    0.39
  -1  -5   3   11.60    0.43
  -1  -5   3   11.15    0.38
  -1  -5   3   11.06    0.39
  -1  -5   3   11.65    0.41
   0   5  -3   35.57    1.10
   0  -5   3   37.14    1.12
   0  -5   3   34.53    1.13
   0  -5   3   33.72    1.09
  -1   5  -3    0.50    0.08
   1  -5   3    0.60    0.11
   1  -5   3    0.77    0.10
   1  -5   3    0.61    0.09
   1  -5   3    0.62    0.09
  -2   5  -3    0.02    0.06
  -2   5  -3    0.03    0.07
   2  -5   3    0.10    0.05
   2  -5   3   -0.05    0.08
   2  -5   3    0.03    0.07
   2  -5   3    0.06    0.05
   2  -5   3   -0.06    0.08
   2  -5   3   -0.12    0.06
   2  -5   3    0.04    0.05
  -3   5  -3   31.44    0.99
   3  -5   3   32.84    1.03
   3  -5   3   29.43    0.99
   3  -5   3   32.26    0.99
   3  -5   3   33.01    0.99
   3  -5   3   31.05    0.99
   3  -5   3   31.59    1.00
  -4   5  -3    7.37    0.26
   4  -5   3    7.57    0.27
   4  -5   3    6.83    0.28
   4  -5   3    6.89    0.30
  -5   5  -3    0.65    0.07
   5  -5   3    0.51    0.08
   5  -5   3    0.52    0.12
   5  -5   3    0.54    0.09
  -6   5  -3    1.48    0.07
   6  -5   3    1.36    0.08
   6   4  -3    0.16    0.04
  -6  -4   3    0.31    0.05
   5   4  -3    0.02    0.05
  -5  -4   3    0.02    0.04
   4   4  -3    5.25    0.24
  -4  -4   3    5.44    0.25
  -4  -4   3    5.57    0.23
   3   4  -3    0.97    0.14
   3   4  -3    0.50    0.15
  -3  -4   3    0.65    0.15
  -3  -4   3    0.75    0.16
  -3  -4   3    0.49    0.11
  -3  -4   3    0.63    0.15
  -2  -4   3    0.30    0.08
  -2  -4   3    0.34    0.11
  -2  -4   3    0.51    0.13
  -2  -4   3    0.49    0.11
   1   4  -3   30.60    0.95
  -1  -4   3   29.77    0.98
  -1  -4   3   30.95    0.97
   0   4  -3   18.98    0.61
   0  -4   3   18.98    0.63
   0  -4   3   19.48    0.63
  -1   4  -3   12.51    0.41
   1  -4   3   12.53    0.43
   1  -4   3   12.63    0.43
   2  -4   3   23.03    0.75
   2  -4   3   22.71    0.73
   3  -4   3   13.35    0.46
   3  -4   3   12.77    0.46
   3  -4   3   13.61    0.47
   3  -4   3   14.63    0.49
   3  -4   3   13.71    0.45
   3  -4   3   13.91    0.45
   4  -4   3    1.61    0.12
   4  -4   3    2.00    0.13
   4  -4   3    2.00    0.12
   4  -4   3    1.90    0.15
   4  -4   3    1.88    0.14
  -5   4  -3   15.09    0.48
   5  -4   3   14.58    0.49
   5  -4   3   14.65    0.48
   5  -4   3   14.54    0.48
   5  -4   3   13.92    0.52
  -6   4  -3    2.04    0.10
   6  -4   3    2.16    0.11
   6   3  -3    4.46    0.19
   6   3  -3    4.62    0.18
  -6  -3   3    4.68    0.18
  -6  -3   3    4.88    0.18
   5   3  -3    0.15    0.07
  -5  -3   3    0.08    0.05
  -5  -3   3    0.20    0.07
  -4  -3   3    9.10    0.35
  -4  -3   3    8.71    0.33
  -4  -3   3    8.87    0.38
  -4  -3   3    8.52    0.33
   3   3  -3    0.13    0.10
   3   3  -3    0.12    0.07
  -3  -3   3    0.18    0.06
  -3  -3   3    0.27    0.14
  -3  -3   3    0.18    0.07
  -3  -3   3    0.12    0.08
  -3  -3   3    0.24    0.08
  -3  -3   3    0.09    0.09
   2   3  -3    0.19    0.05
  -2  -3   3    0.19    0.07
  -2  -3   3    0.16    0.06
   1   3  -3    1.10    0.07
  -1  -3   3    1.10    0.11
  -1  -3   3    1.07    0.08
   0   3  -3   22.15    0.68
   0  -3   3   21.08    0.69
   0  -3   3   22.02    0.69
   1  -3   3    0.53    0.06
   1  -3   3    0.68    0.08
   2  -3   3    6.52    0.23
   2  -3   3    6.14    0.24
   3  -3   3    2.65    0.15
   3  -3   3    2.80    0.15
   3  -3   3    2.42    0.14
   3  -3   3    2.38    0.13
   4  -3   3    2.06    0.18
   4  -3   3    2.11    0.13
   4  -3   3    2.02    0.14
   4  -3   3    2.12    0.14
   4  -3   3    2.06    0.15
   4  -3   3    2.02    0.14
   5  -3   3   20.80    0.68
   5  -3   3   20.77    0.67
   5  -3   3   19.81    0.70
   5  -3   3   21.45    0.66
  -6   3  -3    0.05    0.03
   6  -3   3   -0.01    0.04
   6  -3   3    0.03    0.05
  -7   3  -3    0.85    0.05
   7  -3   3    0.84    0.06
   6   2  -3   10.73    0.37
   6   2  -3   10.62    0.37
  -6  -2   3   10.99    0.36
  -6  -2   3   10.85    0.36
   5   2  -3   10.64    0.40
  -5  -2   3   11.02    0.38
  -5  -2   3   10.57    0.38
  -4  -2   3    3.10    0.19
  -4  -2   3    3.15    0.17
  -4  -2   3    2.39    0.29
  -4  -2   3    3.09    0.16
  -4  -2   3    3.09    0.20
   3   2  -3    0.31    0.09
  -3  -2   3    0.20    0.07
  -3  -2   3    0.29    0.08
  -3  -2   3    0.40    0.11
  -3  -2   3    0.05    0.11
   2   2  -3   12.69    0.44
  -2  -2   3   14.05    0.46
  -2  -2   3   13.84    0.46
   1   2  -3   27.91    0.85
  -1  -2   3   26.79    0.85
  -1  -2   3   27.24    0.86
   0   2  -3   15.89    0.48
   0  -2   3   14.76    0.49
   1  -2   3    0.06    0.04
   1  -2   3    0.10    0.03
  -2   2  -3    1.02    0.08
   2  -2   3    1.01    0.09
   2  -2   3    1.19    0.07
   2  -2   3    1.20    0.06
   3  -2   3   33.62    1.07
   3  -2   3   34.71    1.06
   4  -2   3    0.51    0.10
   4  -2   3    0.58    0.11
   4  -2   3    0.67    0.10
   4  -2   3    0.77    0.14
   4  -2   3    0.51    0.11
   4  -2   3    0.52    0.12
  -5   2  -3    1.02    0.13
   5  -2   3    1.11    0.11
   5  -2   3    1.12    0.11
   5  -2   3    0.97    0.16
   5  -2   3    1.11    0.11
  -6   2  -3   14.49    0.48
  -6   2  -3   14.41    0.48
   6  -2   3   14.86    0.48
   6  -2   3   14.91    0.50
  -7   2  -3    0.28    0.04
   7  -2   3    0.32    0.07
   7  -2   3    0.36    0.05
   6   1  -3   -0.03    0.05
   6   1  -3    0.05    0.05
  -6  -1   3    0.07    0.04
  -6  -1   3    0.07    0.04
   5   1  -3    2.86    0.18
  -5  -1   3    2.83    0.15
  -5  -1   3    2.81    0.15
   4   1  -3    0.76    0.15
  -4  -1   3    0.50    0.13
  -4  -1   3    0.40    0.11
  -4  -1   3    0.53    0.13
  -4  -1   3    0.56    0.15
  -4  -1   3    0.56    0.10
   3   1  -3    3.08    0.16
  -3  -1   3    4.14    0.19
  -3  -1   3    3.73    0.18
   2   1  -3   84.85    2.52
  -2  -1   3   84.41    2.53
  -2  -1   3   81.03    2.53
   1   1  -3   16.42    0.52
  -1  -1   3   16.52    0.53
   0   1  -3  114.42    3.56
   0  -1   3  120.06    3.54
  -1   1  -3    4.58    0.16
   1  -1   3    5.20    0.16
   1  -1   3    4.45    0.16
  -2   1  -3   49.95    1.50
   2  -1   3   47.90    1.52
   2  -1   3   52.58    1.50
   3  -1   3    0.12    0.04
   3  -1   3    0.09    0.06
  -4   1  -3    0.95    0.14
   4  -1   3    0.99    0.13
   4  -1   3    0.85    0.13
   4  -1   3    1.13    0.12
   4  -1   3    0.98    0.12
   4  -1   3    1.37    0.12
   4  -1   3    1.08    0.11
  -5   1  -3   26.07    0.83
   5  -1   3   25.61    0.82
   5  -1   3   25.91    0.84
   5  -1   3   26.12    0.83
  -6   1  -3    1.78    0.12
   6  -1   3    1.76    0.12
   6  -1   3    1.81    0.11
  -7   1  -3    0.01    0.03
  -7   1  -3    0.05    0.04
   7  -1   3    0.04    0.04
   7  -1   3    0.02    0.04
   7   0  -3    0.88    0.06
  -7   0   3    0.87    0.06
   6   0  -3    4.96    0.21
   6   0  -3    5.21    0.21
  -6   0   3    5.14    0.20
  -6   0   3    5.12    0.20
   5   0  -3   59.67    1.81
  -5   0   3   57.84    1.79
  -5   0   3   57.87    1.80
   4   0  -3    6.07    0.28
   4   0  -3    6.31    0.27
  -4   0   3    6.26    0.24
  -4   0   3    6.18    0.25
  -4   0   3    5.87    0.26
  -4   0   3    6.33    0.27
   3   0  -3   34.08    1.05
  -3   0   3   33.30    1.07
   2   0  -3   11.31    0.37
  -2   0   3   11.77    0.40
  -2   0   3   11.44    0.39
   1   0  -3    5.58    0.19
  -1   0   3    5.91    0.20
   0   0  -3  117.29    3.45
   0   0  -3  102.44    3.43
   0   0   3  123.80    3.50
  -1   0  -3   36.01    1.14
  -1   0  -3   38.28    1.13
   1   0   3   39.15    1.13
   1   0   3   36.47    1.13
   2   0   3   18.06    0.56
   3   0   3    4.75    0.18
   4   0   3    5.99    0.24
   4   0   3    5.59    0.25
   4   0   3    5.76    0.23
   4   0   3    5.75    0.24
  -5   0  -3    2.85    0.15
   5   0   3    2.92    0.17
   5   0   3    2.77    0.18
   5   0   3    2.85    0.16
   5   0   3    3.15    0.17
   5   0   3    2.81    0.16
  -6   0  -3    0.64    0.09
   6   0   3    0.30    0.09
   6   0   3    0.43    0.08
  -7   0  -3    0.10    0.03
  -7   0  -3    0.18    0.05
   7   0   3    0.15    0.05
   7   0   3    0.11    0.04
   7  -1  -3    1.75    0.08
  -7   1   3    1.56    0.08
   6  -1  -3    2.12    0.13
   6  -1  -3    2.25    0.13
  -6   1   3    2.28    0.12
  -6   1   3    2.23    0.12
   5  -1  -3   51.65    1.56
   5  -1  -3   48.99    1.58
  -5   1   3   51.22    1.55
  -5   1   3   50.31    1.54
  -5   1   3   48.97    1.55
   4  -1  -3    0.08    0.10
   4  -1  -3    0.18    0.09
  -4   1   3    0.22    0.06
  -4   1   3    0.15    0.06
  -4   1   3    0.11    0.08
   3  -1  -3    1.53    0.09
  -3   1   3    1.58    0.12
   2  -1  -3    3.79    0.14
  -2   1   3    3.46    0.17
   1  -1  -3  180.14    5.29
  -1   1   3  170.95    5.33
   0  -1  -3   52.48    1.62
   0  -1  -3   52.76    1.61
   0   1   3   56.13    1.62
  -1  -1  -3   56.76    1.81
  -1  -1  -3   58.65    1.81
   1   1   3   65.50    1.84
   2   1   3   73.11    2.20
   3   1   3   15.70    0.51
   4   1   3   13.18    0.44
   4   1   3   12.39    0.45
   4   1   3   12.49    0.44
   5   1   3   10.11    0.38
   5   1   3   10.33    0.38
   5   1   3   10.29    0.37
   5   1   3   10.91    0.38
  -6  -1  -3    7.69    0.29
   6   1   3    7.93    0.30
   6   1   3    7.86    0.30
  -7  -1  -3    2.17    0.10
  -7  -1  -3    2.28    0.11
   7   1   3    2.02    0.11
   7   1   3    2.27    0.11
   7  -2  -3    4.57    0.16
  -7   2   3    4.15    0.15
   6  -2  -3    2.12    0.12
  -6   2   3    1.93    0.11
   5  -2  -3    2.22    0.17
  -5   2   3    2.24    0.14
  -5   2   3    2.20    0.14
  -5   2   3    2.35    0.13
  -4   2   3   56.91    1.77
  -4   2   3   57.44    1.78
  -4   2   3   59.75    1.79
  -4   2   3   58.47    1.78
   3  -2  -3   21.37    0.69
   3  -2  -3   21.19    0.67
   2  -2  -3    2.46    0.10
  -2   2   3    2.39    0.13
   1  -2  -3    0.12    0.02
   0  -2  -3    2.15    0.10
   0  -2  -3    2.42    0.09
   0  -2  -3    2.25    0.08
  -1  -2  -3   24.78    0.79
  -1  -2  -3   26.59    0.79
   1   2   3   26.71    0.79
  -2  -2  -3    0.50    0.03
   2   2   3    0.38    0.04
   3   2   3    2.72    0.12
   4   2   3    4.94    0.24
   4   2   3    5.25    0.23
   4   2   3    5.42    0.23
   4   2   3    5.27    0.22
   5   2   3   14.12    0.48
   5   2   3   14.35    0.49
   5   2   3   14.24    0.50
  -6  -2  -3    0.02    0.04
   6   2   3   -0.12    0.06
   6   2   3    0.14    0.08
   6   2   3    0.04    0.05
  -7  -2  -3    1.58    0.09
   7   2   3    1.60    0.09
   6  -3  -3    0.14    0.09
   6  -3  -3    0.23    0.06
  -6   3   3    0.23    0.06
   5  -3  -3    5.44    0.23
   5  -3  -3    5.40    0.26
  -5   3   3    5.06    0.23
  -5   3   3    5.39    0.22
  -5   3   3    5.18    0.21
   4  -3  -3   40.20    1.21
  -4   3   3   37.95    1.18
  -4   3   3   37.86    1.17
  -4   3   3   36.32    1.17
  -4   3   3   36.22    1.17
   3  -3  -3   13.18    0.42
   3  -3  -3   12.41    0.45
   2  -3  -3   15.63    0.53
   2  -3  -3   17.00    0.50
   1  -3  -3    1.37    0.07
   0  -3  -3   61.80    1.87
  -1  -3  -3   66.78    2.07
  -1  -3  -3   70.17    2.08
   1   3   3   65.16    2.09
   1   3   3   74.42    2.09
  -2  -3  -3    7.15    0.23
   2   3   3    6.30    0.23
   2   3   3    6.73    0.23
  -3  -3  -3   20.79    0.63
   3   3   3   20.08    0.65
   4   3   3   21.28    0.69
   4   3   3   20.72    0.68
   4   3   3   20.95    0.68
   4   3   3   20.48    0.70
   4   3   3   21.30    0.69
  -5  -3  -3    9.70    0.36
   5   3   3    8.05    0.34
   5   3   3   10.07    0.36
   5   3   3    9.81    0.35
  -6  -3  -3    5.99    0.24
   6   3   3    5.82    0.24
   6   3   3    6.05    0.24
  -7  -3  -3    0.03    0.03
   7   3   3    0.00    0.04
   6  -4  -3    0.85    0.08
   6  -4  -3    0.83    0.08
   6  -4  -3    1.10    0.15
  -6   4   3    0.94    0.07
  -6   4   3    0.91    0.07
   5  -4  -3    3.53    0.20
   5  -4  -3    3.69    0.18
  -5   4   3    3.58    0.17
  -5   4   3    3.81    0.16
   4  -4  -3    0.16    0.07
   4  -4  -3    0.03    0.06
  -4   4   3   -0.02    0.04
  -4   4   3    0.06    0.08
  -4   4   3    0.05    0.05
  -4   4   3    0.06    0.06
   3  -4  -3    1.83    0.14
  -3   4   3    2.04    0.13
  -3   4   3    1.72    0.13
  -3   4   3    2.00    0.12
   2  -4  -3    0.81    0.07
   1  -4  -3    8.12    0.29
   0  -4  -3   20.60    0.65
  -1  -4  -3   27.53    0.89
  -1  -4  -3   27.75    0.87
   1   4   3   31.03    0.87
  -2  -4  -3   32.54    0.99
   2   4   3   31.74    0.99
  -3  -4  -3    0.20    0.06
   3   4   3    0.19    0.06
  -4  -4  -3   10.32    0.40
   4   4   3   11.04    0.39
   4   4   3   10.86    0.38
   4   4   3   10.90    0.40
   4   4   3   10.98    0.42
   4   4   3   11.57    0.39
   4   4   3   10.26    0.41
  -5  -4  -3   11.67    0.41
   5   4   3   11.34    0.41
   5   4   3   10.77    0.41
   5   4   3   11.26    0.40
  -6  -4  -3    0.15    0.08
  -6  -4  -3   -0.01    0.04
   6   4   3    0.04    0.05
   6   4   3    0.07    0.06
  -7  -4  -3    0.39    0.05
   7   4   3    0.44    0.06
   6  -5  -3    0.04    0.04
   6  -5  -3    0.10    0.08
   6  -5  -3    0.13    0.04
  -6   5   3    0.03    0.03
  -6   5   3    0.07    0.03
   5  -5  -3    0.35    0.09
   5  -5  -3    0.19    0.07
  -5   5   3    0.23    0.05
  -5   5   3    0.33    0.07
   4  -5  -3   13.79    0.51
   4  -5  -3   14.21    0.48
  -4   5   3   13.75    0.47
  -4   5   3   13.77    0.46
   3  -5  -3    0.16    0.09
   3  -5  -3    0.15    0.06
   3  -5  -3    0.13    0.09
  -3   5   3    0.11    0.05
  -3   5   3    0.18    0.07
  -3   5   3    0.05    0.06
   2  -5  -3   19.40    0.64
   2  -5  -3   19.13    0.64
   1  -5  -3    7.82    0.29
   1  -5  -3    7.84    0.29
   0  -5  -3  107.47    3.25
  -1  -5  -3   35.26    1.10
  -1  -5  -3   32.62    1.07
   1   5   3   38.64    1.07
  -2  -5  -3    1.61    0.10
   2   5   3    1.63    0.09
  -3  -5  -3    4.63    0.21
   3   5   3    4.64    0.19
   3   5   3    4.22    0.20
   4   5   3    1.47    0.12
   4   5   3    1.34    0.16
   4   5   3    1.56    0.19
   4   5   3    1.48    0.21
   4   5   3    1.20    0.13
   4   5   3    1.41    0.14
  -5  -5  -3    0.11    0.07
   5   5   3    0.08    0.06
   5   5   3    0.32    0.09
  -6  -5  -3   -0.01    0.04
  -6  -5  -3    0.04    0.06
   6   5   3    0.08    0.06
   6   5   3    0.07    0.05
  -7  -5  -3    0.34    0.05
   7   5   3    0.28    0.05
   6  -6  -3    0.04    0.04
   6  -6  -3   -0.02    0.03
  -6   6   3    0.19    0.05
  -6   6   3   -0.05    0.03
   5  -6  -3    1.15    0.08
   5  -6  -3    1.00    0.10
   5  -6  -3    1.11    0.12
  -5   6   3    1.09    0.09
  -5   6   3    1.10    0.08
   4  -6  -3    7.45    0.29
   4  -6  -3    7.27    0.31
  -4   6   3    7.17    0.27
  -4   6   3    7.65    0.28
   3  -6  -3    9.33    0.44
   3  -6  -3   10.92    0.40
   3  -6  -3   10.10    0.38
  -3   6   3   10.46    0.37
  -3   6   3   10.23    0.35
   2  -6  -3    2.74    0.17
   2  -6  -3    2.78    0.16
  -2   6   3    2.83    0.14
  -2   6   3    2.66    0.17
   1  -6  -3   10.19    0.37
   1  -6  -3    9.83    0.36
   0  -6  -3    4.15    0.19
   0  -6  -3    4.24    0.19
  -1  -6  -3   21.28    0.69
   1   6   3   20.82    0.64
  -2  -6  -3    1.32    0.11
   2   6   3    1.32    0.09
  -3  -6  -3    2.45    0.19
   3   6   3    2.48    0.14
   3   6   3    2.13    0.20
   3   6   3    2.31    0.18
   3   6   3    2.35    0.15
   3   6   3    2.39    0.17
   4   6   3    0.20    0.11
   4   6   3   -0.06    0.05
   4   6   3    0.02    0.08
   4   6   3    0.00    0.06
  -5  -6  -3    7.88    0.31
   5   6   3    8.00    0.31
   5   6   3    8.03    0.30
  -6  -6  -3    5.69    0.22
  -6  -6  -3    5.68    0.22
   6   6   3    5.58    0.22
   6   6   3    5.62    0.22
  -7  -6  -3    0.02    0.03
   7   6   3    0.09    0.03
   5  -7  -3    0.67    0.08
   5  -7  -3    0.86    0.07
   5  -7  -3    0.78    0.10
  -5   7   3    0.72    0.06
  -5   7   3    0.86    0.08
   4  -7  -3    5.69    0.23
   4  -7  -3    5.65    0.22
   4  -7  -3    5.49    0.26
  -4   7   3    5.70    0.22
  -4   7   3    5.90    0.23
   3  -7  -3   79.72    2.34
  -3   7   3   72.22    2.29
  -3   7   3   74.51    2.30
  -3   7   3   74.94    2.29
   2  -7  -3    1.86    0.13
   2  -7  -3    1.86    0.20
  -2   7   3    1.87    0.11
  -2   7   3    1.71    0.15
  -2   7   3    2.05    0.13
   1  -7  -3    6.49    0.26
   1  -7  -3    6.50    0.29
  -1   7   3    6.28    0.24
  -1   7   3    6.44    0.25
   0  -7  -3    0.27    0.07
   0  -7  -3    0.34    0.09
   0   7   3    0.19    0.06
  -1  -7  -3   29.69    0.95
   1   7   3   28.90    0.93
   1   7   3   28.60    0.92
  -2  -7  -3    1.55    0.15
   2   7   3    1.58    0.12
   2   7   3    1.27    0.17
   2   7   3    1.65    0.15
   2   7   3    1.59    0.14
   3   7   3    1.84    0.16
   3   7   3    1.70    0.16
   3   7   3    2.06    0.13
  -4  -7  -3    0.10    0.06
   4   7   3    0.09    0.10
   4   7   3    0.09    0.05
   4   7   3    0.09    0.07
   4   7   3    0.10    0.08
  -5  -7  -3    0.02    0.06
   5   7   3    0.03    0.05
   5   7   3    0.01    0.06
  -6  -7  -3    4.94    0.19
  -6  -7  -3    5.12    0.19
   6   7   3    5.07    0.19
   6   7   3    5.02    0.19
   5  -8  -3    5.39    0.22
   5  -8  -3    5.14    0.18
  -5   8   3    5.18    0.19
   4  -8  -3    1.28    0.09
   4  -8  -3    1.29    0.12
  -4   8   3    1.55    0.12
  -4   8   3    1.40    0.09
   3  -8  -3    3.20    0.15
   3  -8  -3    3.06    0.18
  -3   8   3    3.05    0.14
  -3   8   3    3.18    0.18
  -3   8   3    3.04    0.16
   2  -8  -3    4.82    0.19
   2  -8  -3    4.68    0.23
  -2   8   3    4.52    0.19
  -2   8   3    4.53    0.20
   1  -8  -3    0.42    0.09
   1  -8  -3    0.52    0.10
  -1   8   3    0.52    0.09
  -1   8   3    0.49    0.11
  -1   8   3    0.30    0.09
   0  -8  -3    1.53    0.14
   0  -8  -3    1.57    0.17
   0  -8  -3    1.65    0.15
   0   8   3    1.50    0.11
   0   8   3    1.66    0.13
   0   8   3    1.18    0.16
  -1  -8  -3    2.05    0.21
   1   8   3    2.07    0.16
   1   8   3    2.36    0.15
   1   8   3    2.17    0.18
   1   8   3    2.21    0.14
   2   8   3    9.06    0.35
   2   8   3    8.88    0.35
   2   8   3    9.24    0.33
   2   8   3    9.20    0.34
   3   8   3   37.03    1.18
   3   8   3   38.36    1.19
   3   8   3   38.07    1.19
  -4  -8  -3   10.36    0.37
   4   8   3    9.59    0.38
   4   8   3   10.32    0.36
   4   8   3   10.16    0.37
  -5  -8  -3    0.10    0.05
   5   8   3    0.07    0.05
   5   8   3    0.06    0.04
  -6  -8  -3   14.25    0.45
  -6  -8  -3   14.58    0.46
   6   8   3   14.71    0.46
   6   8   3   14.00    0.45
   5  -9  -3    2.13    0.08
  -5   9   3    1.99    0.09
   4  -9  -3    1.26    0.07
   4  -9  -3    1.30    0.12
  -4   9   3    1.17    0.07
   3  -9  -3    0.32    0.07
   3  -9  -3    0.35    0.09
  -3   9   3    0.33    0.06
  -3   9   3    0.32    0.09
   2  -9  -3   34.96    1.06
   2  -9  -3   33.80    1.10
  -2   9   3   34.09    1.07
  -2   9   3   33.64    1.07
   1  -9  -3    6.03    0.23
   1  -9  -3    6.14    0.27
  -1   9   3    5.95    0.24
  -1   9   3    6.10    0.24
   0  -9  -3    0.11    0.08
   0   9   3    0.01    0.09
   0   9   3    0.09    0.07
   0   9   3    0.03    0.05
   1   9   3    1.46    0.15
   1   9   3    1.38    0.12
   1   9   3    1.27    0.17
   1   9   3    1.36    0.12
   2   9   3    0.24    0.07
   2   9   3    0.19    0.06
   3   9   3   43.76    1.33
   3   9   3   41.18    1.32
  -4  -9  -3    1.00    0.10
   4   9   3    1.09    0.09
   4   9   3    0.90    0.14
  -5  -9  -3    0.27    0.06
   5   9   3    0.39    0.05
   4 -10  -3    1.47    0.14
   4 -10  -3    1.17    0.06
  -4  10   3    1.35    0.07
   3 -10  -3    1.44    0.08
   3 -10  -3    1.49    0.13
  -3  10   3    1.32    0.08
  -3  10   3    1.18    0.09
   2 -10  -3    1.47    0.09
   2 -10  -3    1.46    0.14
  -2  10   3    1.57    0.10
  -2  10   3    1.56    0.10
   1 -10  -3    0.87    0.09
   1 -10  -3    0.60    0.15
  -1  10   3    0.96    0.10
  -1  10   3    0.75    0.09
   0 -10  -3    7.99    0.30
   0  10   3    8.66    0.32
   0  10   3    8.83    0.31
   1  10   3   -0.01    0.05
   1  10   3    0.13    0.06
   2  10   3    0.82    0.10
   2  10   3    0.87    0.09
  -3 -10  -3   19.43    0.63
   3  10   3   19.35    0.62
   3  10   3   18.61    0.62
  -4 -10  -3    3.44    0.15
   4  10   3    3.34    0.14
  -5 -10  -3    0.42    0.05
   5  10   3    0.38    0.04
   3 -11  -3    0.04    0.03
  -3  11   3    0.08    0.05
  -3  11   3    0.00    0.03
   2 -11  -3    0.69    0.18
   2 -11  -3    0.93    0.07
  -2  11   3    0.87    0.07
  -2  11   3    0.84    0.08
   1 -11  -3    0.90    0.08
  -1  11   3    0.86    0.08
  -1  11   3    0.91    0.09
   0  11   3    4.81    0.20
   1  11   3    0.11    0.05
   1  11   3    0.27    0.07
  -2 -11  -3    2.63    0.14
   2  11   3    2.53    0.13
   2  11   3    2.83    0.14
  -3 -11  -3   -0.05    0.04
   3  11   3    0.02    0.05
   3  11   3    0.03    0.03
  -4 -11  -3    8.92    0.30
   4  11   3    8.82    0.29
   2 -12  -3    0.04    0.04
  -2  12   3   -0.02    0.03
  -1  12   3    4.23    0.16
   0  12   3    0.73    0.07
   1  12   3    5.67    0.21
  -2 -12  -3    0.61    0.08
   2  12   3    0.79    0.07
   2  12   3    0.65    0.07
  -3 -12  -3    0.10    0.04
   3  12   3    0.11    0.03
   1  10  -4    0.04    0.02
   0  10  -4    3.80    0.14
   0 -10   4    3.93    0.14
  -1  10  -4    8.22    0.27
  -1  10  -4    8.12    0.27
   1 -10   4    8.57    0.27
  -2  10  -4    1.60    0.08
   2 -10   4    1.75    0.08
   3   9  -4    0.19    0.04
   2   9  -4    2.68    0.12
   1   9  -4    0.32    0.06
  -1  -9   4    0.44    0.07
   0   9  -4   12.58    0.41
   0  -9   4   12.86    0.46
   0  -9   4   12.12    0.41
  -1   9  -4   -0.03    0.03
   1  -9   4    0.06    0.08
   1  -9   4    0.01    0.04
  -2   9  -4    2.83    0.12
   2  -9   4    2.88    0.12
   2  -9   4    2.96    0.17
  -3   9  -4    3.46    0.13
   3  -9   4    3.19    0.13
   3  -9   4    3.59    0.18
   4   8  -4    0.06    0.04
   4   8  -4   -0.03    0.04
  -4  -8   4    0.04    0.04
   3   8  -4    3.46    0.14
  -3  -8   4    3.25    0.15
   2   8  -4    2.28    0.12
  -2  -8   4    2.26    0.13
  -1  -8   4    1.56    0.16
  -1  -8   4    1.86    0.11
  -1  -8   4    1.83    0.13
   0   8  -4   12.70    0.41
   0  -8   4   12.46    0.41
   0  -8   4   12.22    0.42
   0  -8   4   11.21    0.45
  -1   8  -4    0.47    0.08
   1  -8   4    0.36    0.11
   1  -8   4    0.40    0.07
   1  -8   4    0.43    0.12
  -2   8  -4    2.36    0.12
   2  -8   4    2.30    0.15
   2  -8   4    1.92    0.13
   2  -8   4    2.33    0.12
  -3   8  -4    0.06    0.03
   3  -8   4    0.05    0.06
   3  -8   4   -0.03    0.05
   3  -8   4    0.01    0.03
  -4   8  -4    1.35    0.07
   4  -8   4    1.44    0.09
   4  -8   4    1.78    0.13
   4  -8   4    1.32    0.07
   4   7  -4    5.69    0.22
   4   7  -4    5.79    0.21
  -4  -7   4    5.87    0.21
   3   7  -4    6.92    0.25
  -3  -7   4    6.60    0.26
   2   7  -4    0.04    0.04
  -2  -7   4   -0.04    0.06
  -2  -7   4   -0.08    0.10
  -2  -7   4    0.44    0.13
  -2  -7   4    0.00    0.05
  -1  -7   4    9.86    0.40
  -1  -7   4   10.45    0.36
  -1  -7   4   10.56    0.37
   0   7  -4    7.40    0.27
   0  -7   4    6.78    0.30
   0  -7   4    6.97    0.26
   0  -7   4    6.99    0.29
   0  -7   4    7.00    0.27
  -1   7  -4    2.84    0.15
   1  -7   4    2.67    0.17
   1  -7   4    3.11    0.17
   1  -7   4    2.88    0.14
   1  -7   4    3.07    0.16
   1  -7   4    3.02    0.14
   2  -7   4   21.41    0.66
   2  -7   4   18.64    0.69
   2  -7   4   20.63    0.65
   2  -7   4   20.34    0.65
   3  -7   4   25.75    0.81
   3  -7   4   23.89    0.85
   3  -7   4   26.83    0.82
   3  -7   4   26.34    0.81
  -4   7  -4    1.55    0.09
   4  -7   4    1.68    0.14
   4  -7   4    1.57    0.09
   4  -7   4    1.58    0.10
  -5   7  -4    0.02    0.03
  -5   7  -4    0.07    0.03
   5  -7   4    0.06    0.03
   5  -7   4    0.01    0.04
   5   6  -4    1.46    0.09
  -5  -6   4    1.39    0.08
   4   6  -4    0.19    0.06
  -4  -6   4    0.32    0.07
   3   6  -4    0.09    0.05
  -3  -6   4    0.09    0.11
  -3  -6   4    0.23    0.09
  -3  -6   4   -0.08    0.06
  -2  -6   4    2.75    0.15
  -2  -6   4    2.79    0.15
  -2  -6   4    2.74    0.20
  -2  -6   4    3.07    0.18
  -2  -6   4    2.59    0.19
  -1  -6   4    0.86    0.11
  -1  -6   4    0.97    0.13
  -1  -6   4    0.93    0.14
  -1  -6   4    1.08    0.10
   0   6  -4    0.47    0.10
   0  -6   4    0.42    0.13
   0  -6   4    0.45    0.08
   0  -6   4    0.47    0.11
   0  -6   4    0.34    0.09
   0  -6   4    0.39    0.08
   1  -6   4    4.65    0.21
   1  -6   4    4.97    0.23
   1  -6   4    4.65    0.20
   1  -6   4    4.80    0.20
   1  -6   4    4.63    0.22
   2  -6   4    1.11    0.12
   2  -6   4    0.86    0.12
   2  -6   4    1.13    0.11
   2  -6   4    1.08    0.10
   2  -6   4    1.22    0.10
  -3   6  -4    0.37    0.10
   3  -6   4    0.33    0.09
   3  -6   4    0.17    0.07
   3  -6   4    0.29    0.08
   3  -6   4    0.14    0.06
   3  -6   4    0.19    0.06
  -4   6  -4    0.30    0.07
   4  -6   4    0.55    0.16
   4  -6   4    0.29    0.08
   4  -6   4    0.33    0.08
   4  -6   4    0.16    0.07
  -5   6  -4    0.06    0.03
   5  -6   4    0.08    0.04
   5  -6   4    0.03    0.04
   5  -6   4    0.10    0.08
  -6   6  -4    5.61    0.19
   5   5  -4    1.63    0.11
  -5  -5   4    1.71    0.10
   4   5  -4    0.37    0.08
  -4  -5   4    0.62    0.09
  -4  -5   4    0.53    0.13
   3   5  -4    6.08    0.25
  -3  -5   4    5.79    0.24
  -3  -5   4    5.52    0.25
  -3  -5   4    6.34    0.30
  -3  -5   4    5.75    0.26
  -2  -5   4    5.00    0.24
  -2  -5   4    5.49    0.23
  -2  -5   4    5.38    0.25
  -2  -5   4    5.00    0.22
  -2  -5   4    5.55    0.26
   1   5  -4    0.23    0.07
  -1  -5   4    0.41    0.10
  -1  -5   4    0.19    0.11
  -1  -5   4    0.25    0.07
  -1  -5   4    0.49    0.10
  -1  -5   4    0.27    0.06
   0   5  -4    9.82    0.36
   0  -5   4    9.96    0.37
   0  -5   4    9.30    0.36
   0  -5   4    9.56    0.35
   0  -5   4    9.76    0.40
   0  -5   4    9.98    0.34
   0  -5   4    9.75    0.34
  -1   5  -4    2.63    0.16
   1  -5   4    2.65    0.15
   1  -5   4    2.69    0.14
   1  -5   4    2.64    0.19
   1  -5   4    2.43    0.15
   1  -5   4    2.42    0.13
   1  -5   4    2.38    0.15
  -2   5  -4    0.92    0.15
   2  -5   4    0.80    0.10
   2  -5   4    0.69    0.11
   2  -5   4    0.88    0.10
   2  -5   4    0.83    0.09
   2  -5   4    0.87    0.11
   2  -5   4    0.77    0.12
  -3   5  -4    1.99    0.12
   3  -5   4    2.01    0.11
   3  -5   4    1.60    0.13
   3  -5   4    1.78    0.14
   3  -5   4    1.93    0.12
   3  -5   4    1.62    0.13
   3  -5   4    1.85    0.13
  -4   5  -4    9.43    0.32
   4  -5   4    9.35    0.34
   4  -5   4    9.38    0.33
   4  -5   4    9.35    0.33
   4  -5   4    9.44    0.33
   4  -5   4    8.84    0.37
  -5   5  -4    0.01    0.03
   5  -5   4    0.09    0.04
   5  -5   4    0.04    0.05
   5  -5   4    0.05    0.08
  -6   5  -4    6.01    0.21
  -6   5  -4    6.28    0.21
   6  -5   4    6.23    0.22
   6   4  -4    1.51    0.08
  -6  -4   4    1.52    0.07
   5   4  -4    0.78    0.09
  -5  -4   4    0.75    0.08
  -4  -4   4    5.35    0.24
  -4  -4   4    5.51    0.23
   3   4  -4    1.24    0.15
  -3  -4   4    1.05    0.16
  -3  -4   4    1.09    0.12
  -3  -4   4    1.23    0.11
  -3  -4   4    1.05    0.13
  -3  -4   4    0.94    0.14
   2   4  -4    2.06    0.15
  -2  -4   4    2.12    0.16
  -2  -4   4    2.07    0.17
  -2  -4   4    1.99    0.15
  -2  -4   4    1.88    0.13
  -2  -4   4    1.83    0.18
  -2  -4   4    2.05    0.14
   1   4  -4   33.76    1.00
  -1  -4   4   33.75    1.02
  -1  -4   4   30.65    0.98
  -1  -4   4   33.47    1.03
  -1  -4   4   27.21    0.98
  -1  -4   4   31.01    0.99
   0   4  -4   27.99    0.89
   0  -4   4   28.40    0.91
  -1   4  -4   17.08    0.62
   1  -4   4   21.02    0.65
   1  -4   4   20.03    0.64
   2  -4   4   14.77    0.48
   2  -4   4   14.21    0.47
   2  -4   4   14.35    0.47
   2  -4   4   14.96    0.47
   2  -4   4   12.01    0.52
   2  -4   4   14.26    0.47
   2  -4   4   14.97    0.50
   3  -4   4   19.21    0.63
   3  -4   4   19.36    0.62
   3  -4   4   18.84    0.62
   3  -4   4   19.62    0.62
   3  -4   4   18.53    0.62
   3  -4   4   19.39    0.65
   4  -4   4    2.65    0.15
   4  -4   4    2.77    0.18
   4  -4   4    2.65    0.15
   4  -4   4    2.67    0.15
   4  -4   4    2.74    0.14
   4  -4   4    2.72    0.15
  -5   4  -4    0.00    0.04
   5  -4   4   -0.03    0.05
   5  -4   4   -0.01    0.06
   5  -4   4    0.00    0.07
   5  -4   4    0.01    0.08
  -6   4  -4    1.39    0.08
   6  -4   4    1.33    0.09
   6   3  -4    9.29    0.30
   6   3  -4    8.94    0.31
  -6  -3   4    8.90    0.30
   5   3  -4    0.02    0.05
  -5  -3   4    0.00    0.04
  -5  -3   4    0.05    0.07
  -4  -3   4    0.49    0.10
  -4  -3   4    0.74    0.19
  -4  -3   4    0.83    0.13
  -4  -3   4    0.36    0.15
   3   3  -4   42.72    1.46
  -3  -3   4   48.14    1.47
  -3  -3   4   47.77    1.45
  -3  -3   4   46.06    1.43
  -3  -3   4   43.59    1.49
  -3  -3   4   47.29    1.43
  -3  -3   4   48.18    1.44
   2   3  -4    0.11    0.05
  -2  -3   4    0.13    0.08
  -2  -3   4   -0.03    0.12
  -2  -3   4    0.22    0.09
  -2  -3   4    0.49    0.11
  -2  -3   4    0.19    0.07
   1   3  -4    5.25    0.21
  -1  -3   4    5.27    0.22
  -1  -3   4    5.31    0.22
   0   3  -4    1.89    0.10
   0  -3   4    1.81    0.11
   0  -3   4    1.96    0.11
  -1   3  -4    7.98    0.29
   1  -3   4    8.54    0.30
   1  -3   4    8.46    0.31
   2  -3   4    4.35    0.18
   2  -3   4    4.07    0.19
   3  -3   4    1.33    0.12
   3  -3   4    1.36    0.11
   3  -3   4    1.34    0.12
   3  -3   4    1.35    0.11
   3  -3   4    1.42    0.13
   3  -3   4    1.26    0.12
   3  -3   4    1.48    0.12
   4  -3   4   17.47    0.57
   4  -3   4   18.25    0.60
   4  -3   4   17.69    0.57
   4  -3   4   17.44    0.58
   4  -3   4   17.15    0.57
   4  -3   4   16.58    0.57
   5  -3   4    0.28    0.07
   5  -3   4    0.11    0.09
   5  -3   4    0.36    0.08
  -6   3  -4    7.31    0.26
   6  -3   4    7.47    0.26
   6  -3   4    7.31    0.27
  -7   3  -4    0.60    0.04
   7  -3   4    0.77    0.06
   6   2  -4    2.61    0.12
   6   2  -4    2.51    0.12
  -6  -2   4    2.37    0.11
  -6  -2   4    2.37    0.11
   5   2  -4    0.03    0.06
  -5  -2   4    0.06    0.06
  -5  -2   4    0.02    0.04
  -4  -2   4    1.75    0.12
  -4  -2   4    1.51    0.15
  -4  -2   4    1.66    0.15
  -4  -2   4    1.71    0.17
  -4  -2   4    1.64    0.15
   3   2  -4   78.56    2.33
  -3  -2   4   72.36    2.29
  -3  -2   4   74.06    2.32
  -3  -2   4   77.43    2.33
  -3  -2   4   76.42    2.30
  -3  -2   4   76.23    2.34
  -3  -2   4   73.54    2.30
   2   2  -4    1.32    0.10
  -2  -2   4    1.27    0.10
  -2  -2   4    1.36    0.11
   1   2  -4   21.52    0.69
  -1  -2   4   21.83    0.70
  -1  -2   4   21.83    0.70
   0   2  -4   74.76    2.24
   0  -2   4   75.25    2.25
   0  -2   4   72.41    2.25
   1  -2   4    6.58    0.23
   1  -2   4    6.01    0.24
   2  -2   4    0.06    0.03
   2  -2   4    0.04    0.05
   2  -2   4    0.03    0.02
   3  -2   4   16.33    0.55
   3  -2   4   17.40    0.57
   4  -2   4   58.07    1.76
   4  -2   4   57.60    1.76
   4  -2   4   57.13    1.76
   4  -2   4   57.17    1.78
   4  -2   4   57.73    1.77
   4  -2   4   57.33    1.78
   5  -2   4   10.70    0.37
   5  -2   4   10.42    0.37
   5  -2   4   10.72    0.37
   5  -2   4   10.45    0.38
   6  -2   4    0.47    0.08
   6  -2   4    0.45    0.08
  -7   2  -4    0.51    0.04
   7  -2   4    0.59    0.06
   7  -2   4    0.60    0.07
   6   1  -4   16.29    0.55
   6   1  -4   16.94    0.54
  -6  -1   4   16.64    0.54
  -6  -1   4   17.01    0.53
   5   1  -4    4.10    0.20
  -5  -1   4    4.14    0.19
  -5  -1   4    4.10    0.18
  -4  -1   4    0.23    0.09
  -4  -1   4    0.21    0.08
  -4  -1   4    0.21    0.07
  -4  -1   4    0.32    0.08
  -4  -1   4    0.12    0.05
   3   1  -4    4.84    0.21
  -3  -1   4    4.51    0.22
  -3  -1   4    4.57    0.22
  -3  -1   4    4.13    0.20
  -3  -1   4    4.54    0.22
  -3  -1   4    3.76    0.20
   2   1  -4    2.51    0.12
  -2  -1   4    2.89    0.15
  -2  -1   4    2.72    0.14
   1   1  -4   10.41    0.34
  -1  -1   4   10.25    0.35
  -1  -1   4    9.74    0.35
   0   1  -4    3.97    0.15
   0  -1   4    4.09    0.15
   0  -1   4    3.99    0.17
   1  -1   4   69.15    2.08
  -2   1  -4   28.89    0.89
   2  -1   4   29.07    0.90
   2  -1   4   30.97    0.89
   2  -1   4   27.98    0.91
   3  -1   4    4.15    0.19
   3  -1   4    4.19    0.17
  -4   1  -4    1.21    0.17
   4  -1   4    1.35    0.14
   4  -1   4    1.55    0.13
   4  -1   4    1.27    0.11
   4  -1   4    1.08    0.12
   4  -1   4    1.33    0.12
   4  -1   4    1.46    0.12
   4  -1   4    0.92    0.13
  -5   1  -4    6.61    0.27
   5  -1   4    6.67    0.26
   5  -1   4    6.92    0.26
   5  -1   4    6.65    0.26
   5  -1   4    6.95    0.27
  -6   1  -4    2.29    0.13
   6  -1   4    2.25    0.13
   6  -1   4    2.30    0.13
   6  -1   4    2.26    0.13
  -7   1  -4    2.49    0.10
  -7   1  -4    2.41    0.12
   7  -1   4    2.66    0.11
   7  -1   4    2.53    0.11
   6   0  -4    6.72    0.24
   6   0  -4    6.66    0.25
  -6   0   4    6.62    0.24
  -6   0   4    6.65    0.24
   5   0  -4    0.51    0.12
  -5   0   4    0.41    0.08
  -5   0   4    0.31    0.09
  -5   0   4    0.53    0.11
   4   0  -4    3.27    0.19
   4   0  -4    2.88    0.22
  -4   0   4    2.74    0.17
  -4   0   4    3.15    0.19
  -4   0   4    2.92    0.16
  -4   0   4    3.17    0.18
  -4   0   4    3.04    0.15
   3   0  -4   31.45    0.97
  -3   0   4   30.94    0.98
  -3   0   4   30.02    0.96
  -3   0   4   29.44    0.97
   2   0  -4    0.11    0.03
  -2   0   4    0.05    0.03
  -2   0   4    0.04    0.05
   1   0  -4    0.12    0.03
  -1   0   4    0.11    0.05
  -1   0   4    0.09    0.04
   0   0  -4  148.61    4.75
   0   0   4  166.07    4.79
  -1   0  -4   19.09    0.62
   1   0   4   19.24    0.62
   1   0   4   21.52    0.62
   2   0   4    0.17    0.04
   3   0   4   13.95    0.51
   3   0   4   13.57    0.45
   4   0   4    9.97    0.36
   4   0   4   10.41    0.37
   4   0   4   10.48    0.37
   4   0   4   10.56    0.37
   4   0   4   10.15    0.37
   4   0   4    9.82    0.36
  -5   0  -4    2.34    0.15
   5   0   4    2.35    0.15
   5   0   4    2.67    0.15
   5   0   4    2.39    0.14
   5   0   4    2.30    0.15
   5   0   4    2.46    0.15
  -6   0  -4   27.40    0.86
   6   0   4   26.96    0.86
   6   0   4   27.03    0.86
  -7   0  -4    0.32    0.06
  -7   0  -4    0.33    0.05
   7   0   4    0.41    0.06
   7   0   4    0.41    0.07
   6  -1  -4    1.53    0.10
  -6   1   4    1.47    0.09
  -6   1   4    1.38    0.09
   5  -1  -4   37.46    1.16
  -5   1   4   36.55    1.15
  -5   1   4   36.97    1.16
  -5   1   4   37.24    1.15
   4  -1  -4    7.38    0.30
   4  -1  -4    6.88    0.33
  -4   1   4    6.99    0.27
  -4   1   4    7.45    0.28
  -4   1   4    7.26    0.27
  -4   1   4    7.30    0.30
   3  -1  -4    0.00    0.04
  -3   1   4    0.08    0.05
  -3   1   4   -0.05    0.08
  -3   1   4    0.15    0.09
   2  -1  -4    0.94    0.06
  -2   1   4    0.87    0.09
   1  -1  -4   69.07    2.03
  -1   1   4   68.47    2.05
  -1   1   4   65.20    2.05
   0  -1  -4    9.53    0.31
   0   1   4    9.63    0.31
  -1  -1  -4   11.84    0.38
   1   1   4   12.25    0.38
   2   1   4    2.83    0.11
   3   1   4    6.92    0.25
   4   1   4    9.69    0.35
   4   1   4   10.10    0.37
   4   1   4    9.99    0.36
   4   1   4    9.53    0.36
   4   1   4   10.26    0.36
   5   1   4    9.30    0.34
   5   1   4    9.13    0.34
   5   1   4    9.32    0.34
   5   1   4    8.73    0.33
   5   1   4    8.63    0.33
  -6  -1  -4    4.71    0.20
   6   1   4    5.05    0.21
   6   1   4    4.57    0.21
   6   1   4    4.51    0.20
  -7  -1  -4    4.17    0.16
  -7  -1  -4    3.99    0.15
   7   1   4    4.22    0.16
   7   1   4    4.19    0.17
   6  -2  -4    8.06    0.29
  -6   2   4    8.06    0.28
  -6   2   4    7.91    0.28
   5  -2  -4    0.64    0.12
  -5   2   4    0.57    0.08
  -5   2   4    0.33    0.09
  -5   2   4    0.70    0.10
  -4   2   4   30.18    0.97
  -4   2   4   31.65    0.98
  -4   2   4   30.68    0.97
   3  -2  -4    6.42    0.23
   3  -2  -4    6.35    0.26
  -3   2   4    6.03    0.27
  -3   2   4    6.09    0.24
  -3   2   4    6.24    0.26
   2  -2  -4   17.83    0.55
  -2   2   4   17.66    0.59
   1  -2  -4  100.74    2.83
  -1   2   4   86.48    2.83
   0  -2  -4   34.40    1.04
  -1  -2  -4    1.52    0.08
  -1  -2  -4    1.49    0.07
  -1  -2  -4    1.75    0.07
   1   2   4    1.72    0.07
  -2  -2  -4    8.49    0.28
  -2  -2  -4    9.34    0.28
   2   2   4    8.68    0.29
   3   2   4   40.70    1.25
   4   2   4    0.31    0.10
   4   2   4    0.30    0.09
   4   2   4    0.44    0.09
   4   2   4    0.35    0.08
   4   2   4    0.38    0.11
   4   2   4    0.37    0.11
   5   2   4    0.50    0.11
   5   2   4    0.28    0.07
   5   2   4    0.24    0.07
   5   2   4    0.50    0.13
   5   2   4    0.48    0.10
  -6  -2  -4    4.44    0.20
   6   2   4    4.35    0.20
   6   2   4    4.48    0.19
   6   2   4    4.60    0.20
  -7  -2  -4    2.79    0.12
  -7  -2  -4    2.83    0.12
   7   2   4    2.67    0.12
   6  -3  -4    1.06    0.08
   6  -3  -4    1.22    0.16
  -6   3   4    1.10    0.08
   5  -3  -4    0.05    0.07
   5  -3  -4    0.12    0.06
  -5   3   4   -0.04    0.06
  -5   3   4   -0.03    0.04
  -5   3   4   -0.01    0.05
  -4   3   4   43.62    1.35
  -4   3   4   42.56    1.34
  -4   3   4   42.80    1.35
  -4   3   4   45.24    1.35
   3  -3  -4    0.04    0.05
  -3   3   4    0.06    0.07
  -3   3   4    0.10    0.06
  -3   3   4   -0.02    0.06
   2  -3  -4   20.27    0.62
   2  -3  -4   19.89    0.66
  -2   3   4   20.44    0.67
   1  -3  -4   45.75    1.31
   1  -3  -4   44.15    1.31
   1  -3  -4   41.50    1.34
  -1   3   4   43.65    1.35
   0  -3  -4   44.59    1.42
   0  -3  -4   48.62    1.39
   0  -3  -4   46.54    1.39
  -1  -3  -4    0.02    0.03
  -1  -3  -4    0.04    0.02
   1   3   4    0.00    0.01
  -2  -3  -4    0.33    0.04
   2   3   4    0.26    0.04
   3   3   4   24.58    0.78
   4   3   4    0.04    0.06
   4   3   4    0.13    0.09
   4   3   4    0.00    0.05
   4   3   4    0.13    0.07
   4   3   4    0.00    0.06
   4   3   4   -0.06    0.09
   5   3   4    1.47    0.12
   5   3   4    1.28    0.14
   5   3   4    1.49    0.13
   5   3   4    1.95    0.16
  -6  -3  -4    3.89    0.18
   6   3   4    3.98    0.18
   6   3   4    3.92    0.19
   6   3   4    4.07    0.18
  -7  -3  -4    0.66    0.07
   7   3   4    0.64    0.06
   6  -4  -4    2.59    0.18
   6  -4  -4    2.42    0.12
   6  -4  -4    2.33    0.11
  -6   4   4    2.50    0.11
   5  -4  -4   11.30    0.39
   5  -4  -4   10.24    0.41
  -5   4   4   11.22    0.37
  -5   4   4   11.11    0.38
  -5   4   4   10.63    0.37
   4  -4  -4   56.86    1.71
  -4   4   4   55.23    1.67
  -4   4   4   55.14    1.66
  -4   4   4   48.69    1.66
  -4   4   4   54.89    1.66
   3  -4  -4    4.16    0.22
  -3   4   4    3.90    0.18
  -3   4   4    3.78    0.18
  -3   4   4    3.94    0.19
  -3   4   4    3.93    0.18
   2  -4  -4    6.76    0.26
   1  -4  -4    1.37    0.09
   0  -4  -4   32.44    1.01
  -1  -4  -4    0.15    0.03
   1   4   4    0.10    0.03
  -2  -4  -4    3.32    0.13
   2   4   4    3.09    0.13
  -3  -4  -4   13.42    0.43
   3   4   4   12.79    0.44
   4   4   4    8.26    0.31
   4   4   4    7.81    0.32
   4   4   4    7.93    0.33
   4   4   4    7.91    0.31
   4   4   4    7.70    0.32
   4   4   4    7.94    0.30
  -5  -4  -4    8.43    0.34
   5   4   4    9.23    0.33
   5   4   4    8.98    0.33
   5   4   4    8.32    0.34
   5   4   4    9.00    0.35
   6   4   4    0.80    0.09
   6   4   4    0.87    0.12
   6   4   4    0.88    0.10
  -7  -4  -4    0.93    0.07
   7   4   4    0.95    0.07
   6  -5  -4    8.43    0.28
   6  -5  -4    7.86    0.27
   6  -5  -4    8.00    0.32
  -6   5   4    8.51    0.28
   5  -5  -4    0.33    0.08
   5  -5  -4    0.37    0.10
  -5   5   4    0.36    0.07
  -5   5   4    0.54    0.08
   4  -5  -4    0.05    0.06
   4  -5  -4    0.06    0.06
  -4   5   4    0.08    0.04
  -4   5   4    0.05    0.07
  -4   5   4    0.04    0.04
   3  -5  -4   86.92    2.64
   3  -5  -4   82.75    2.66
   3  -5  -4   85.83    2.62
  -3   5   4   89.35    2.61
  -3   5   4   85.75    2.61
  -3   5   4   87.60    2.61
  -3   5   4   83.96    2.61
   2  -5  -4    0.16    0.06
   1  -5  -4    0.03    0.03
   0  -5  -4   28.27    0.90
  -1  -5  -4    0.37    0.06
   1   5   4    0.35    0.04
  -2  -5  -4    0.37    0.06
   2   5   4    0.29    0.05
  -3  -5  -4   12.76    0.43
   3   5   4   11.84    0.44
   3   5   4   12.28    0.43
   3   5   4   13.14    0.43
   4   5   4    1.51    0.13
   4   5   4    1.47    0.12
   4   5   4    1.38    0.16
   4   5   4    1.35    0.14
   4   5   4    1.66    0.18
   4   5   4    1.51    0.17
  -5  -5  -4    5.09    0.24
   5   5   4    5.00    0.25
   5   5   4    4.98    0.22
   5   5   4    5.49    0.23
   5   5   4    5.25    0.25
  -6  -5  -4   12.70    0.44
   6   5   4   13.11    0.44
   6   5   4   12.60    0.43
  -7  -5  -4    0.65    0.06
   7   5   4    0.74    0.06
   6  -6  -4    2.39    0.10
   6  -6  -4    2.29    0.09
  -6   6   4    2.24    0.10
  -6   6   4    2.33    0.10
   5  -6  -4    0.54    0.10
   5  -6  -4    0.56    0.08
  -5   6   4    0.56    0.07
  -5   6   4    0.50    0.06
   4  -6  -4   18.94    0.61
   4  -6  -4   17.95    0.64
  -4   6   4   18.49    0.60
  -4   6   4   18.34    0.61
   3  -6  -4   27.13    0.88
   3  -6  -4   29.32    0.91
  -3   6   4   26.58    0.88
  -3   6   4   27.25    0.87
  -3   6   4   27.14    0.87
   2  -6  -4    3.59    0.21
   2  -6  -4    3.74    0.19
  -2   6   4    3.80    0.16
  -2   6   4    3.56    0.18
  -2   6   4    3.33    0.20
  -2   6   4    3.74    0.17
   1  -6  -4    2.85    0.15
   1  -6  -4    2.62    0.15
   0  -6  -4   11.07    0.39
   0  -6  -4   11.33    0.40
  -1  -6  -4    0.80    0.09
  -2  -6  -4   20.04    0.66
   2   6   4   20.14    0.63
   3   6   4    0.91    0.10
   3   6   4    0.88    0.15
   3   6   4    0.59    0.14
   3   6   4    0.69    0.12
   3   6   4    0.76    0.12
   3   6   4    1.44    0.19
   4   6   4    5.23    0.24
   4   6   4    5.44    0.25
   4   6   4    5.24    0.28
   4   6   4    5.06    0.22
  -5  -6  -4    2.36    0.15
   5   6   4    2.17    0.13
   5   6   4    2.23    0.14
   5   6   4    1.88    0.18
  -6  -6  -4    7.98    0.29
  -6  -6  -4    8.04    0.29
   6   6   4    8.07    0.29
   6   6   4    8.01    0.29
  -7  -6  -4    0.20    0.04
   7   6   4    0.20    0.04
   5  -7  -4    0.77    0.11
   5  -7  -4    0.72    0.06
   5  -7  -4    0.75    0.08
  -5   7   4    0.64    0.07
  -5   7   4    0.71    0.06
   4  -7  -4    0.14    0.08
   4  -7  -4   -0.02    0.06
  -4   7   4    0.07    0.05
  -4   7   4    0.13    0.04
   3  -7  -4    8.85    0.35
  -3   7   4    8.07    0.30
  -3   7   4    8.28    0.31
   2  -7  -4    1.30    0.12
   2  -7  -4    1.01    0.20
  -2   7   4    1.46    0.15
  -2   7   4    1.02    0.13
  -2   7   4    1.26    0.12
  -2   7   4    1.32    0.10
   1  -7  -4    2.31    0.17
   1  -7  -4    2.26    0.14
  -1   7   4    2.29    0.16
  -1   7   4    2.16    0.15
  -1   7   4    2.02    0.14
  -1   7   4    2.31    0.13
   0  -7  -4    8.99    0.34
   0  -7  -4    9.21    0.36
   0   7   4    9.34    0.33
   0   7   4    9.12    0.34
   0   7   4    9.13    0.33
  -1  -7  -4    2.62    0.16
   1   7   4    2.68    0.15
   1   7   4    2.22    0.16
  -2  -7  -4    5.23    0.25
   2   7   4    5.04    0.24
   2   7   4    5.47    0.23
   2   7   4    5.34    0.24
   2   7   4    5.23    0.22
   2   7   4    5.35    0.27
   3   7   4   17.51    0.58
   3   7   4   17.16    0.56
   3   7   4   16.80    0.57
   3   7   4   16.46    0.60
   4   7   4    3.18    0.17
   4   7   4    3.66    0.36
   4   7   4    2.80    0.19
   4   7   4    2.94    0.18
   4   7   4    3.09    0.16
  -5  -7  -4    1.46    0.12
   5   7   4    1.45    0.12
   5   7   4    1.34    0.11
  -6  -7  -4    0.37    0.06
  -6  -7  -4    0.29    0.08
   6   7   4    0.31    0.06
   6   7   4    0.43    0.07
   5  -8  -4    0.43    0.05
   5  -8  -4    0.45    0.10
  -5   8   4    0.29    0.08
  -5   8   4    0.43    0.05
   4  -8  -4    0.05    0.04
   4  -8  -4    0.06    0.06
  -4   8   4   -0.01    0.03
  -4   8   4    0.01    0.05
   3  -8  -4    0.40    0.10
  -3   8   4    0.45    0.07
  -3   8   4    0.33    0.10
   2  -8  -4    8.84    0.35
  -2   8   4    9.02    0.31
  -2   8   4    8.39    0.31
  -2   8   4    8.37    0.32
  -2   8   4    8.22    0.33
   1  -8  -4    1.92    0.15
   1  -8  -4    2.20    0.13
  -1   8   4    2.03    0.13
  -1   8   4    1.95    0.16
  -1   8   4    1.85    0.16
  -1   8   4    1.96    0.12
   0  -8  -4    0.12    0.09
   0   8   4    0.09    0.08
   0   8   4    0.11    0.07
   0   8   4   -0.02    0.05
   0   8   4    0.18    0.09
  -1  -8  -4    5.97    0.30
   1   8   4    5.88    0.25
   1   8   4    6.17    0.24
   1   8   4    5.77    0.25
   1   8   4    5.87    0.25
  -2  -8  -4    0.06    0.12
   2   8   4    0.12    0.10
   2   8   4    0.11    0.06
   2   8   4    0.19    0.07
   2   8   4    0.20    0.08
   2   8   4    0.10    0.08
   3   8   4    1.71    0.15
   3   8   4    1.67    0.22
   3   8   4    1.75    0.14
   3   8   4    1.84    0.12
   4   8   4    0.64    0.11
   4   8   4    0.55    0.09
   4   8   4    0.56    0.13
  -5  -8  -4    0.12    0.05
   5   8   4    0.09    0.04
   5   8   4    0.09    0.06
  -6  -8  -4    0.24    0.06
  -6  -8  -4    0.18    0.04
   6   8   4    0.19    0.05
   6   8   4    0.19    0.05
   4  -9  -4    2.39    0.15
   4  -9  -4    2.29    0.10
  -4   9   4    2.28    0.11
   3  -9  -4    9.34    0.37
   3  -9  -4   10.27    0.34
  -3   9   4    9.94    0.34
  -3   9   4   10.03    0.35
  -3   9   4    9.93    0.34
   2  -9  -4    0.39    0.11
   2  -9  -4    0.30    0.07
  -2   9   4    0.33    0.07
  -2   9   4    0.25    0.08
  -2   9   4    0.47    0.09
   1  -9  -4    8.19    0.29
   1  -9  -4    8.60    0.33
  -1   9   4    8.07    0.30
  -1   9   4    8.04    0.32
  -1   9   4    8.02    0.30
  -1   9   4    7.96    0.32
   0   9   4    4.94    0.22
   0   9   4    5.52    0.26
   0   9   4    5.07    0.23
   0   9   4    5.13    0.22
   1   9   4    7.61    0.29
   1   9   4    7.60    0.31
   1   9   4    7.99    0.31
   1   9   4    7.91    0.30
   1   9   4    7.32    0.31
   2   9   4    1.04    0.10
   2   9   4    0.85    0.14
   2   9   4    0.63    0.17
   2   9   4    0.96    0.11
   3   9   4    4.47    0.21
   3   9   4    4.44    0.21
   3   9   4    4.47    0.19
  -4  -9  -4    8.43    0.32
   4   9   4    8.94    0.33
   4   9   4    8.78    0.31
  -5  -9  -4    0.02    0.04
   5   9   4   -0.01    0.03
   4 -10  -4    1.81    0.08
  -4  10   4    1.77    0.08
   3 -10  -4    3.49    0.19
   3 -10  -4    3.47    0.14
  -3  10   4    3.56    0.15
  -3  10   4    3.37    0.15
   2 -10  -4   13.63    0.50
   2 -10  -4   14.68    0.47
  -2  10   4   14.35    0.48
  -2  10   4   14.67    0.48
   1 -10  -4    6.41    0.30
   1 -10  -4    6.61    0.24
  -1  10   4    6.80    0.26
  -1  10   4    6.39    0.28
  -1  10   4    6.70    0.26
   0  10   4    2.81    0.17
   0  10   4    2.37    0.14
   0  10   4    2.41    0.15
   1  10   4    0.46    0.09
   1  10   4    0.48    0.12
   1  10   4    0.30    0.09
   2  10   4    5.25    0.21
   2  10   4    4.85    0.22
   3  10   4    1.02    0.10
   3  10   4    1.02    0.09
  -4 -10  -4    0.04    0.04
   4  10   4    0.04    0.03
   4  10   4    0.16    0.07
  -5 -10  -4    0.80    0.06
   5  10   4    0.84    0.06
   3 -11  -4    0.07    0.03
  -3  11   4    0.04    0.03
   2 -11  -4    8.29    0.28
  -2  11   4    8.18    0.28
  -2  11   4    8.09    0.28
   1 -11  -4    0.04    0.05
  -1  11   4    0.21    0.05
  -1  11   4    0.05    0.04
   0  11   4    0.34    0.09
   0  11   4    0.40    0.07
   1  11   4    0.82    0.09
   1  11   4    0.81    0.11
   2  11   4    0.08    0.05
   2  11   4    0.06    0.05
  -3 -11  -4    0.57    0.07
   3  11   4    0.55    0.07
   3  11   4    0.40    0.08
  -4 -11  -4    5.48    0.20
   4  11   4    5.55    0.19
   2 -12  -4    0.38    0.06
  -2  12   4    0.50    0.06
  -2  12   4    0.39    0.06
  -1  12   4    4.30    0.17
  -1  12   4    4.20    0.17
   0  12   4    2.62    0.12
  -1 -12  -4    0.06    0.06
   1  12   4   -0.01    0.03
  -2 -12  -4    0.12    0.05
   2  12   4    0.03    0.04
   2  12   4    0.09    0.04
  -3 -12  -4    0.04    0.04
   3  12   4    0.11    0.03
   3  12   4    0.11    0.05
   0  13   4    0.12    0.03
   2   9  -5    3.89    0.14
   1   9  -5    0.16    0.05
  -1  -9   5    0.06    0.04
   0   9  -5    5.82    0.21
   0  -9   5    5.84    0.21
   0  -9   5    6.12    0.27
  -1   9  -5    4.91    0.18
   1  -9   5    4.59    0.22
   1  -9   5    5.02    0.18
  -2   9  -5    1.53    0.08
   2  -9   5    1.45    0.08
   2  -9   5    1.45    0.13
  -3   9  -5    0.35    0.04
   3  -9   5    0.32    0.04
   3   8  -5    7.76    0.26
   3   8  -5    7.47    0.25
   2   8  -5    1.62    0.09
  -2  -8   5    1.60    0.10
   1   8  -5    0.03    0.04
  -1  -8   5    0.07    0.04
  -1  -8   5    0.07    0.09
  -1  -8   5    0.00    0.05
   0   8  -5    0.70    0.10
   0  -8   5    0.66    0.09
   0  -8   5    0.63    0.08
   0  -8   5    0.72    0.12
  -1   8  -5    5.12    0.20
   1  -8   5    5.03    0.22
   1  -8   5    4.94    0.24
   1  -8   5    5.00    0.21
   1  -8   5    5.50    0.20
  -2   8  -5    0.75    0.07
   2  -8   5    0.79    0.07
   2  -8   5    0.83    0.11
   2  -8   5    0.53    0.09
  -3   8  -5    0.58    0.05
   3  -8   5    0.50    0.06
   3  -8   5    0.69    0.11
   3  -8   5    0.63    0.07
  -4   8  -5    1.77    0.08
   4  -8   5    1.74    0.09
   4  -8   5    1.58    0.08
   4   7  -5    0.81    0.07
  -4  -7   5    0.88    0.07
   3   7  -5    4.17    0.17
  -3  -7   5    4.13    0.17
   2   7  -5    1.18    0.09
  -2  -7   5    1.00    0.10
  -2  -7   5    1.30    0.19
  -1  -7   5    0.13    0.08
  -1  -7   5    0.20    0.08
  -1  -7   5    0.16    0.06
  -1  -7   5    0.11    0.05
   0   7  -5    0.52    0.10
   0  -7   5    0.70    0.10
   0  -7   5    0.81    0.12
   0  -7   5    0.72    0.08
   0  -7   5    0.74    0.12
  -1   7  -5   20.98    0.64
   1  -7   5   20.31    0.65
   1  -7   5   19.78    0.64
   1  -7   5   20.32    0.65
   1  -7   5   20.14    0.65
   1  -7   5   18.30    0.68
   2  -7   5   39.31    1.23
   2  -7   5   37.84    1.28
   2  -7   5   41.43    1.24
   2  -7   5   40.26    1.24
   2  -7   5   40.62    1.23
   3  -7   5    0.08    0.04
   3  -7   5    0.09    0.04
   3  -7   5    0.04    0.05
   3  -7   5    0.09    0.06
  -4   7  -5    4.96    0.18
   4  -7   5    4.95    0.23
   4  -7   5    4.99    0.18
   4  -7   5    4.97    0.19
  -5   7  -5    0.90    0.05
   5  -7   5    0.83    0.06
   4   6  -5    1.20    0.09
  -4  -6   5    1.25    0.08
   3   6  -5    0.46    0.09
  -3  -6   5    0.48    0.10
  -3  -6   5    0.78    0.09
  -3  -6   5    0.73    0.13
  -2  -6   5    6.77    0.26
  -2  -6   5    6.84    0.27
  -2  -6   5    6.73    0.28
  -2  -6   5    6.71    0.26
  -2  -6   5    6.60    0.30
  -1  -6   5    2.73    0.17
  -1  -6   5    2.82    0.19
  -1  -6   5    2.87    0.15
  -1  -6   5    2.65    0.15
   0   6  -5    0.51    0.11
   0  -6   5    0.57    0.12
   0  -6   5    0.53    0.08
   0  -6   5    0.35    0.12
   0  -6   5    0.44    0.09
   0  -6   5    0.54    0.08
   1  -6   5   18.24    0.61
   1  -6   5   18.56    0.61
   1  -6   5   20.06    0.66
   1  -6   5   18.68    0.62
   1  -6   5   18.76    0.61
   2  -6   5    4.18    0.18
   2  -6   5    4.04    0.19
   2  -6   5    3.79    0.21
   2  -6   5    4.20    0.18
   2  -6   5    3.99    0.17
   3  -6   5    0.09    0.05
   3  -6   5    0.07    0.06
   3  -6   5    0.13    0.07
   3  -6   5    0.12    0.05
   3  -6   5    0.16    0.05
  -4   6  -5    5.65    0.20
   4  -6   5    5.49    0.21
   4  -6   5    5.50    0.21
   4  -6   5    5.06    0.25
   4  -6   5    5.36    0.20
  -5   6  -5    1.12    0.07
   5  -6   5    1.19    0.16
   5  -6   5    1.16    0.08
   5  -6   5    1.04    0.07
   5   5  -5    0.75    0.07
  -5  -5   5    0.87    0.06
  -4  -5   5    2.11    0.14
  -4  -5   5    2.38    0.12
   3   5  -5    9.20    0.32
  -3  -5   5    9.19    0.34
  -3  -5   5    8.51    0.31
  -3  -5   5    9.07    0.32
  -3  -5   5    8.23    0.37
  -2  -5   5    4.12    0.20
  -2  -5   5    3.71    0.20
  -2  -5   5    3.56    0.18
  -2  -5   5    4.02    0.19
  -2  -5   5    4.24    0.23
  -1  -5   5   18.62    0.62
  -1  -5   5   18.44    0.61
  -1  -5   5   18.70    0.63
  -1  -5   5   19.72    0.66
   0   5  -5   -0.03    0.10
   0  -5   5    0.08    0.06
   0  -5   5   -0.04    0.05
   0  -5   5    0.07    0.06
   0  -5   5   -0.01    0.07
   0  -5   5    0.02    0.06
   0  -5   5   -0.10    0.12
  -1   5  -5   18.54    0.65
   1  -5   5   19.20    0.62
   1  -5   5   19.21    0.62
   1  -5   5   19.25    0.62
   1  -5   5   19.67    0.63
   1  -5   5   17.99    0.70
   1  -5   5   19.50    0.66
   2  -5   5    1.47    0.14
   2  -5   5    1.29    0.11
   2  -5   5    1.46    0.12
   2  -5   5    1.40    0.11
   2  -5   5    1.49    0.12
  -3   5  -5    0.52    0.10
   3  -5   5    0.87    0.09
   3  -5   5    0.74    0.09
   3  -5   5    0.76    0.11
   3  -5   5    0.78    0.10
   3  -5   5    0.81    0.10
   3  -5   5    0.69    0.08
  -4   5  -5    2.84    0.13
   4  -5   5    2.63    0.14
   4  -5   5    2.81    0.14
   4  -5   5    2.65    0.17
   4  -5   5    2.85    0.14
   4  -5   5    2.74    0.15
  -5   5  -5    2.10    0.10
   5  -5   5    1.91    0.11
   5  -5   5    2.15    0.17
   5  -5   5    1.77    0.11
   5  -5   5    2.09    0.12
  -6   5  -5    0.35    0.05
  -6   5  -5    0.19    0.04
   6  -5   5    0.16    0.04
   5   4  -5    4.48    0.19
  -5  -4   5    4.56    0.17
  -4  -4   5    0.25    0.07
  -4  -4   5    0.23    0.08
   3   4  -5    3.38    0.19
  -3  -4   5    3.31    0.19
  -3  -4   5    3.55    0.17
  -3  -4   5    3.41    0.22
  -3  -4   5    3.58    0.17
  -3  -4   5    3.27    0.17
  -2  -4   5    5.53    0.23
  -2  -4   5    5.40    0.24
  -2  -4   5    5.54    0.26
  -2  -4   5    5.66    0.23
  -2  -4   5    5.42    0.25
   1   4  -5    0.10    0.07
  -1  -4   5    0.22    0.09
  -1  -4   5    0.18    0.06
  -1  -4   5    0.46    0.13
  -1  -4   5    0.24    0.06
  -1  -4   5    0.25    0.07
  -1  -4   5    0.22    0.06
   0   4  -5    9.22    0.34
   0  -4   5    8.65    0.32
   0  -4   5    8.78    0.35
   0  -4   5    9.17    0.32
   0  -4   5    9.10    0.32
   0  -4   5    8.97    0.36
   0  -4   5    9.51    0.34
  -1   4  -5   12.29    0.43
   1  -4   5   11.83    0.45
   1  -4   5   12.50    0.44
   1  -4   5   12.55    0.43
   1  -4   5   12.21    0.42
   1  -4   5   12.13    0.41
   1  -4   5   12.66    0.42
   1  -4   5   12.34    0.41
  -2   4  -5   -0.06    0.06
   2  -4   5    0.10    0.05
   2  -4   5    0.04    0.06
   2  -4   5    0.03    0.05
   2  -4   5    0.03    0.06
   2  -4   5    0.04    0.05
   2  -4   5    0.09    0.05
   3  -4   5   32.68    1.04
   3  -4   5   32.98    1.04
   3  -4   5   34.87    1.04
   3  -4   5   33.65    1.08
   3  -4   5   32.68    1.04
   3  -4   5   32.73    1.05
   4  -4   5   16.85    0.56
   4  -4   5   17.53    0.56
   4  -4   5   16.89    0.57
   4  -4   5   16.78    0.60
   4  -4   5   17.31    0.56
   4  -4   5   17.15    0.56
  -5   4  -5    0.04    0.04
   5  -4   5    0.25    0.07
   5  -4   5    0.04    0.05
   5  -4   5   -0.02    0.07
   5  -4   5   -0.09    0.08
  -6   4  -5    0.03    0.02
   6  -4   5   -0.01    0.03
   6   3  -5    0.61    0.06
  -6  -3   5    0.43    0.04
   5   3  -5    0.96    0.10
  -5  -3   5    0.98    0.08
  -4  -3   5    1.66    0.14
  -4  -3   5    1.65    0.11
  -4  -3   5    1.76    0.14
  -4  -3   5    1.28    0.18
  -3  -3   5    2.84    0.16
  -3  -3   5    2.98    0.15
  -3  -3   5    2.71    0.16
  -3  -3   5    2.82    0.18
  -3  -3   5    3.01    0.19
   2   3  -5    5.14    0.24
  -2  -3   5    4.96    0.21
  -2  -3   5    5.25    0.24
  -2  -3   5    5.06    0.23
  -2  -3   5    5.01    0.23
  -2  -3   5    5.33    0.22
  -2  -3   5    4.92    0.26
   1   3  -5    9.73    0.34
  -1  -3   5    8.99    0.33
  -1  -3   5    9.36    0.36
  -1  -3   5    9.23    0.33
  -1  -3   5    9.25    0.35
  -1  -3   5    9.67    0.36
   0   3  -5   13.84    0.46
   0  -3   5   13.62    0.48
   0  -3   5   13.74    0.48
  -1   3  -5    4.81    0.19
   1  -3   5    4.91    0.21
   1  -3   5    4.92    0.21
   2  -3   5   28.29    0.89
   2  -3   5   28.89    0.91
   2  -3   5   27.80    0.88
   2  -3   5   28.69    0.88
   2  -3   5   27.96    0.88
   2  -3   5   27.32    0.88
   3  -3   5    1.28    0.10
   3  -3   5    1.44    0.12
   3  -3   5    1.34    0.13
   3  -3   5    1.13    0.11
   3  -3   5    1.16    0.11
   3  -3   5    1.45    0.12
   4  -3   5    0.85    0.10
   4  -3   5    0.75    0.13
   4  -3   5    0.96    0.09
   4  -3   5    0.86    0.10
   4  -3   5    0.81    0.09
   4  -3   5    0.75    0.12
   5  -3   5    0.23    0.06
   5  -3   5    0.38    0.07
   5  -3   5    0.39    0.08
   5  -3   5    0.28    0.09
   5  -3   5    0.27    0.08
  -6   3  -5    0.18    0.04
   6  -3   5    0.11    0.04
   6  -3   5    0.12    0.04
   6   2  -5    0.22    0.06
   6   2  -5    0.20    0.06
  -6  -2   5    0.20    0.04
   5   2  -5    4.26    0.20
  -5  -2   5    4.03    0.18
  -5  -2   5    4.39    0.18
  -4  -2   5    3.47    0.22
  -4  -2   5    3.89    0.18
  -4  -2   5    3.97    0.19
  -4  -2   5    3.78    0.20
   3   2  -5    0.66    0.16
  -3  -2   5    0.85    0.13
  -3  -2   5    0.62    0.17
  -3  -2   5    0.77    0.10
  -3  -2   5    0.68    0.10
  -3  -2   5    0.73    0.13
  -3  -2   5    0.56    0.12
   2   2  -5    2.44    0.15
  -2  -2   5    2.59    0.17
  -2  -2   5    2.60    0.16
  -2  -2   5    2.81    0.16
  -2  -2   5    2.65    0.15
  -2  -2   5    2.74    0.17
  -2  -2   5    2.32    0.16
   1   2  -5    0.43    0.07
  -1  -2   5    0.34    0.08
  -1  -2   5    0.29    0.07
   0   2  -5    0.02    0.03
   0  -2   5    0.02    0.04
   0  -2   5    0.03    0.04
   1  -2   5    3.38    0.15
   1  -2   5    3.40    0.16
   2  -2   5    2.54    0.12
   2  -2   5    2.68    0.15
   3  -2   5   22.05    0.71
   3  -2   5   21.64    0.71
   3  -2   5   21.78    0.72
   3  -2   5   21.91    0.70
   3  -2   5   21.59    0.70
   3  -2   5   21.93    0.71
   3  -2   5   22.02    0.70
   4  -2   5    0.30    0.09
   4  -2   5    0.44    0.09
   4  -2   5    0.48    0.13
   4  -2   5    0.39    0.08
   4  -2   5    0.57    0.09
   5  -2   5    2.76    0.14
   5  -2   5    2.71    0.13
   5  -2   5    2.66    0.14
   5  -2   5    2.73    0.15
   6  -2   5    0.25    0.06
   6  -2   5    0.19    0.04
   6  -2   5    0.28    0.07
  -7   2  -5    4.53    0.16
   7  -2   5    4.84    0.17
   7  -2   5    4.42    0.16
   6   1  -5   -0.01    0.05
   6   1  -5    0.10    0.04
  -6  -1   5    0.10    0.04
  -6  -1   5    0.08    0.03
   5   1  -5    9.56    0.34
  -5  -1   5    9.31    0.33
  -5  -1   5    8.72    0.33
  -5  -1   5    9.29    0.33
  -4  -1   5   -0.10    0.07
  -4  -1   5   -0.05    0.05
  -4  -1   5   -0.04    0.07
  -4  -1   5    0.14    0.08
  -4  -1   5   -0.12    0.06
   3   1  -5    3.76    0.21
  -3  -1   5    3.13    0.21
  -3  -1   5    3.75    0.23
  -3  -1   5    3.80    0.19
  -3  -1   5    3.72    0.18
  -3  -1   5    3.74    0.20
  -3  -1   5    3.64    0.17
  -3  -1   5    4.06    0.21
   2   1  -5   10.93    0.39
  -2  -1   5   11.11    0.41
  -2  -1   5   11.35    0.41
   1   1  -5   21.01    0.68
  -1  -1   5   20.73    0.70
  -1  -1   5   22.66    0.70
   0   1  -5   47.20    1.45
   0  -1   5   46.75    1.47
   0  -1   5   49.03    1.47
   1  -1   5   24.85    0.77
   1  -1   5   24.48    0.78
   2  -1   5   13.28    0.46
   2  -1   5   13.39    0.45
   2  -1   5   14.61    0.44
   3  -1   5    3.38    0.17
   3  -1   5    3.02    0.15
   4  -1   5    8.85    0.33
   4  -1   5    9.03    0.33
   4  -1   5    8.35    0.35
   4  -1   5    8.66    0.32
   4  -1   5    9.01    0.32
   4  -1   5    8.89    0.32
   4  -1   5    9.16    0.35
  -5   1  -5    5.60    0.25
   5  -1   5    5.68    0.24
   5  -1   5    5.60    0.23
   5  -1   5    5.63    0.23
   5  -1   5    5.66    0.22
  -6   1  -5    0.74    0.11
   6  -1   5    0.81    0.09
   6  -1   5    0.42    0.07
   6  -1   5    0.60    0.08
  -7   1  -5    2.52    0.10
   7  -1   5    2.50    0.11
   7  -1   5    2.61    0.11
   6   0  -5    0.02    0.04
  -6   0   5    0.02    0.03
  -6   0   5   -0.02    0.03
   5   0  -5    2.93    0.17
  -5   0   5    3.18    0.16
  -5   0   5    3.14    0.16
  -5   0   5    3.16    0.15
  -4   0   5    0.20    0.07
  -4   0   5    0.21    0.08
  -4   0   5    0.33    0.08
  -4   0   5    0.26    0.09
  -4   0   5    0.19    0.07
   3   0  -5    5.66    0.25
  -3   0   5    5.53    0.24
  -3   0   5    5.56    0.22
  -3   0   5    5.29    0.23
  -3   0   5    5.79    0.26
  -3   0   5    5.30    0.24
   2   0  -5   65.44    1.98
  -2   0   5   62.13    2.00
  -2   0   5   67.36    2.01
   1   0  -5   14.31    0.47
  -1   0   5   15.01    0.49
  -1   0   5   14.62    0.49
   0   0  -5   46.22    1.43
   0   0   5   46.34    1.45
   0   0   5   49.22    1.46
   1   0   5    7.24    0.24
   1   0   5    6.65    0.25
  -2   0  -5   10.59    0.33
   2   0   5   10.57    0.36
   2   0   5    9.91    0.34
   3   0   5   23.30    0.79
   3   0   5   24.78    0.77
   4   0   5    8.92    0.34
   4   0   5    8.84    0.33
   4   0   5    9.06    0.33
   4   0   5    8.56    0.32
   4   0   5    9.35    0.34
   4   0   5    9.35    0.35
  -5   0  -5   19.68    0.65
   5   0   5   20.06    0.65
   5   0   5   20.46    0.65
   5   0   5   19.75    0.66
   5   0   5   19.39    0.65
   5   0   5   19.84    0.64
  -6   0  -5    4.69    0.20
   6   0   5    4.59    0.19
   6   0   5    4.80    0.19
   6   0   5    4.60    0.20
   6   0   5    4.63    0.20
  -7   0  -5    3.14    0.13
  -7   0  -5    3.34    0.13
   7   0   5    3.31    0.14
   7   0   5    3.32    0.13
   6  -1  -5    1.38    0.09
  -6   1   5    1.43    0.08
  -6   1   5    1.45    0.08
   5  -1  -5   13.38    0.48
  -5   1   5   14.11    0.47
  -5   1   5   14.17    0.47
  -5   1   5   14.20    0.47
   4  -1  -5    1.02    0.17
  -4   1   5    1.30    0.11
  -4   1   5    1.41    0.14
  -4   1   5    1.29    0.11
  -4   1   5    1.17    0.10
   3  -1  -5    2.30    0.14
  -3   1   5    2.19    0.14
  -3   1   5    2.27    0.15
  -3   1   5    2.28    0.16
  -3   1   5    2.33    0.15
  -3   1   5    2.21    0.14
   2  -1  -5  115.13    3.45
  -2   1   5  114.43    3.48
   1  -1  -5    3.70    0.14
  -1   1   5    3.86    0.17
  -1   1   5    3.87    0.16
   0  -1  -5    8.85    0.28
   0   1   5    7.30    0.30
   0   1   5    9.09    0.29
  -1  -1  -5   73.14    2.21
  -2  -1  -5    2.23    0.08
   2   1   5    2.10    0.10
   3   1   5    2.11    0.11
   4   1   5    5.14    0.22
   4   1   5    5.00    0.22
   4   1   5    4.82    0.23
   4   1   5    5.22    0.21
   4   1   5    5.19    0.23
   4   1   5    5.05    0.22
   5   1   5   20.62    0.67
   5   1   5   20.52    0.67
   5   1   5   20.19    0.67
   5   1   5   20.01    0.66
   5   1   5   21.02    0.68
  -6  -1  -5    1.09    0.10
   6   1   5    1.44    0.10
   6   1   5    1.09    0.11
   6   1   5    1.03    0.11
   6   1   5    1.28    0.11
  -7  -1  -5    0.09    0.04
   7   1   5    0.05    0.03
   6  -2  -5    4.04    0.16
  -6   2   5    3.88    0.16
  -6   2   5    3.95    0.15
   5  -2  -5    7.07    0.31
  -5   2   5    7.15    0.27
  -5   2   5    7.45    0.27
  -5   2   5    7.37    0.27
  -4   2   5    0.59    0.09
  -4   2   5    0.73    0.10
  -4   2   5    0.55    0.09
   3  -2  -5    2.51    0.15
   3  -2  -5    2.64    0.17
  -3   2   5    2.73    0.15
  -3   2   5    2.46    0.17
  -3   2   5    2.36    0.14
  -3   2   5    2.56    0.15
  -3   2   5    2.64    0.16
   2  -2  -5    4.43    0.17
  -2   2   5    4.33    0.20
   1  -2  -5   12.22    0.38
  -1   2   5   11.54    0.41
   0  -2  -5   10.63    0.34
  -1  -2  -5   44.80    1.34
   1   2   5   43.30    1.33
  -2  -2  -5   14.24    0.46
  -2  -2  -5   16.19    0.46
   2   2   5   13.83    0.47
   3   2   5   25.02    0.79
   4   2   5    7.99    0.30
   4   2   5    7.39    0.30
   4   2   5    8.22    0.32
   4   2   5    7.53    0.30
   4   2   5    7.69    0.29
   4   2   5    7.50    0.29
   5   2   5    8.04    0.31
   5   2   5    7.94    0.29
   5   2   5    7.40    0.31
   5   2   5    7.82    0.30
   5   2   5    8.05    0.30
  -6  -2  -5    3.59    0.17
   6   2   5    3.53    0.17
   6   2   5    3.32    0.16
   6   2   5    3.50    0.17
   6   2   5    3.44    0.16
  -7  -2  -5    4.82    0.18
   7   2   5    4.95    0.18
   6  -3  -5    6.96    0.25
  -6   3   5    6.55    0.24
   5  -3  -5    5.53    0.27
  -5   3   5    5.96    0.23
  -5   3   5    6.11    0.23
  -5   3   5    6.02    0.23
  -4   3   5    9.42    0.34
  -4   3   5    9.14    0.33
  -4   3   5    9.25    0.33
   3  -3  -5    2.27    0.17
  -3   3   5    2.32    0.13
  -3   3   5    2.24    0.17
  -3   3   5    2.07    0.13
  -3   3   5    2.16    0.13
   2  -3  -5   37.47    1.18
   2  -3  -5   36.73    1.13
  -2   3   5   37.29    1.18
   1  -3  -5    0.08    0.04
   1  -3  -5    0.03    0.03
   1  -3  -5    0.02    0.02
  -1   3   5    0.05    0.05
   0  -3  -5    0.11    0.03
   0  -3  -5    0.15    0.04
   0  -3  -5    0.14    0.03
  -1  -3  -5   24.82    0.77
   1   3   5   24.66    0.76
  -2  -3  -5   13.66    0.40
  -2  -3  -5   11.57    0.41
   2   3   5   12.58    0.41
   3   3   5    4.64    0.19
   4   3   5    5.73    0.24
   4   3   5    5.75    0.24
   4   3   5    5.64    0.26
   4   3   5    5.59    0.23
   4   3   5    5.67    0.25
   4   3   5    5.41    0.24
   5   3   5    0.53    0.10
   5   3   5    0.60    0.12
   5   3   5    0.55    0.10
   6   3   5    0.12    0.06
   6   3   5    0.01    0.05
   6   3   5    0.00    0.05
  -7  -3  -5    6.95    0.24
   7   3   5    6.78    0.24
   6  -4  -5    3.29    0.13
   6  -4  -5    3.55    0.14
  -6   4   5    3.63    0.14
   5  -4  -5    0.17    0.06
   5  -4  -5    0.23    0.08
  -5   4   5    0.21    0.05
  -5   4   5    0.23    0.07
  -4   4   5   27.02    0.84
  -4   4   5   26.38    0.85
  -4   4   5   26.16    0.84
  -4   4   5   26.24    0.83
   3  -4  -5   29.14    0.97
  -3   4   5   29.82    0.93
  -3   4   5   28.36    0.92
  -3   4   5   28.88    0.92
  -3   4   5   30.35    0.93
   2  -4  -5    0.09    0.05
   1  -4  -5    0.92    0.08
  -1   4   5    1.07    0.11
   0  -4  -5   33.45    1.04
  -1  -4  -5   14.01    0.46
  -1  -4  -5   12.95    0.44
   1   4   5   15.45    0.44
  -2  -4  -5    3.10    0.13
   2   4   5    3.14    0.13
   3   4   5    1.93    0.12
   4   4   5   17.91    0.59
   4   4   5   17.71    0.59
   4   4   5   17.78    0.58
   4   4   5   16.96    0.60
   4   4   5   17.55    0.60
   4   4   5   17.59    0.59
   5   4   5    3.28    0.17
   5   4   5    3.14    0.17
   5   4   5    3.35    0.19
   5   4   5    3.28    0.18
   6   4   5    0.15    0.05
   6   4   5    0.15    0.05
   6   4   5    0.22    0.07
  -7  -4  -5    6.11    0.23
   7   4   5    7.58    0.27
   7   4   5    6.13    0.23
   6  -5  -5    0.41    0.05
   6  -5  -5    0.50    0.05
  -6   5   5    0.48    0.05
   5  -5  -5    5.17    0.24
   5  -5  -5    5.28    0.22
  -5   5   5    5.18    0.20
  -5   5   5    5.54    0.21
  -5   5   5    5.66    0.24
   4  -5  -5    0.58    0.11
   4  -5  -5    0.72    0.11
  -4   5   5    0.56    0.08
  -4   5   5    0.59    0.09
  -4   5   5    0.62    0.09
  -4   5   5    0.69    0.10
   3  -5  -5   20.74    0.78
  -3   5   5   22.79    0.70
  -3   5   5   21.64    0.70
  -3   5   5   21.97    0.71
  -3   5   5   21.76    0.70
   2  -5  -5    0.04    0.06
  -2   5   5    0.03    0.05
  -2   5   5    0.04    0.07
  -2   5   5    0.18    0.07
  -2   5   5    0.06    0.06
   1  -5  -5   24.00    0.78
   0  -5  -5  125.87    3.81
  -1  -5  -5    0.15    0.06
   1   5   5    0.14    0.03
  -2  -5  -5    6.49    0.24
   2   5   5    6.21    0.22
   3   5   5    0.01    0.10
   3   5   5    0.13    0.10
   3   5   5    0.18    0.06
   3   5   5    0.22    0.07
   3   5   5    0.17    0.06
   3   5   5    0.14    0.08
   4   5   5    7.37    0.31
   4   5   5    7.47    0.28
   4   5   5    7.25    0.29
   4   5   5    7.47    0.30
   4   5   5    7.29    0.34
   4   5   5    7.39    0.29
  -5  -5  -5    1.19    0.14
   5   5   5    0.90    0.14
   5   5   5    1.21    0.14
   5   5   5    1.11    0.11
   5   5   5    1.04    0.11
   6   5   5    2.40    0.13
   6   5   5    2.62    0.13
   6   5   5    2.31    0.15
  -7  -5  -5    3.50    0.14
   7   5   5    3.63    0.14
   7   5   5    3.39    0.14
   6  -6  -5    0.23    0.06
   5  -6  -5    6.29    0.23
   5  -6  -5    6.27    0.26
  -5   6   5    6.23    0.23
  -5   6   5    6.00    0.22
   4  -6  -5    0.00    0.07
   4  -6  -5    0.01    0.06
  -4   6   5    0.10    0.05
  -4   6   5    0.05    0.07
  -4   6   5   -0.03    0.04
   3  -6  -5   30.52    1.01
   3  -6  -5   32.25    1.04
  -3   6   5   32.01    0.99
  -3   6   5   32.83    1.00
  -3   6   5   30.99    1.00
   2  -6  -5   11.19    0.40
   2  -6  -5   10.76    0.43
  -2   6   5   10.44    0.38
  -2   6   5   10.71    0.37
  -2   6   5   10.20    0.38
  -2   6   5   10.82    0.37
   1  -6  -5    4.41    0.20
   1  -6  -5    4.14    0.21
  -1   6   5    3.94    0.19
  -1   6   5    3.90    0.18
   0  -6  -5    7.46    0.31
   0  -6  -5    8.66    0.32
  -1  -6  -5   26.87    0.86
  -2  -6  -5    4.82    0.21
   2   6   5    4.58    0.21
   2   6   5    4.37    0.21
   2   6   5    4.62    0.22
   3   6   5   -0.07    0.08
   3   6   5    0.21    0.11
   3   6   5    0.52    0.15
   3   6   5    0.09    0.06
   3   6   5    0.11    0.06
   3   6   5    0.11    0.08
   4   6   5   18.10    0.58
   4   6   5   17.44    0.61
   4   6   5   18.02    0.58
   4   6   5   17.38    0.59
   4   6   5   16.47    0.59
  -5  -6  -5    0.40    0.12
   5   6   5    0.46    0.08
   5   6   5    0.31    0.09
   5   6   5    0.49    0.13
   5   6   5    0.42    0.10
  -6  -6  -5    0.00    0.06
   6   6   5   -0.03    0.04
   6   6   5    0.09    0.04
  -7  -6  -5    0.42    0.05
   7   6   5    0.41    0.05
   5  -7  -5    1.68    0.10
   5  -7  -5    1.63    0.13
   5  -7  -5    1.64    0.08
  -5   7   5    1.67    0.09
  -5   7   5    1.61    0.09
   4  -7  -5    1.24    0.12
   4  -7  -5    1.42    0.13
  -4   7   5    1.45    0.10
  -4   7   5    1.49    0.09
   3  -7  -5   49.64    1.60
  -3   7   5   51.54    1.56
  -3   7   5   51.76    1.56
  -3   7   5   49.05    1.56
   2  -7  -5    0.16    0.07
  -2   7   5    0.14    0.05
  -2   7   5    0.21    0.06
  -2   7   5    0.23    0.08
   1  -7  -5    1.63    0.13
   1  -7  -5    1.51    0.15
  -1   7   5    1.43    0.13
  -1   7   5    1.41    0.13
  -1   7   5    1.36    0.11
  -1   7   5    1.55    0.14
   0  -7  -5    0.79    0.12
   0  -7  -5    0.72    0.16
   0   7   5    0.70    0.12
   0   7   5    0.87    0.11
   0   7   5    0.68    0.10
   0   7   5    0.51    0.12
  -1  -7  -5   31.33    1.02
   1   7   5   31.19    1.00
   1   7   5   31.71    1.00
   1   7   5   31.03    1.00
   1   7   5   32.40    1.00
  -2  -7  -5    1.20    0.15
   2   7   5    0.97    0.12
   2   7   5    0.77    0.15
   2   7   5    1.02    0.12
   2   7   5    0.99    0.12
   2   7   5    0.92    0.13
   3   7   5   18.84    0.64
   3   7   5   19.04    0.64
   3   7   5   19.85    0.63
   3   7   5   18.78    0.66
   3   7   5   19.56    0.64
   4   7   5    4.28    0.19
   4   7   5    4.20    0.24
   4   7   5    4.17    0.20
   4   7   5    4.06    0.21
   4   7   5    4.05    0.21
  -5  -7  -5    1.82    0.13
   5   7   5    1.70    0.15
   5   7   5    1.83    0.13
   5   7   5    1.98    0.17
   5   7   5    1.90    0.12
  -6  -7  -5    2.07    0.12
   6   7   5    2.03    0.10
   6   7   5    2.07    0.11
   5  -8  -5    7.08    0.24
   5  -8  -5    7.45    0.28
  -5   8   5    7.48    0.25
  -5   8   5    7.63    0.25
   4  -8  -5    0.01    0.03
   4  -8  -5    0.13    0.06
  -4   8   5    0.04    0.04
  -4   8   5    0.08    0.04
   3  -8  -5    1.25    0.13
  -3   8   5    1.20    0.10
  -3   8   5    1.32    0.14
  -3   8   5    1.37    0.11
   2  -8  -5   95.57    2.83
  -2   8   5   91.14    2.79
  -2   8   5   91.31    2.79
  -2   8   5   91.89    2.80
  -2   8   5   90.34    2.79
   1  -8  -5    0.77    0.12
  -1   8   5    0.83    0.12
  -1   8   5    0.68    0.09
  -1   8   5    0.75    0.11
  -1   8   5    0.81    0.11
   0  -8  -5    0.20    0.11
   0   8   5    0.21    0.07
   0   8   5    0.14    0.07
   0   8   5    0.12    0.06
   0   8   5    0.35    0.08
  -1  -8  -5    2.18    0.20
   1   8   5    1.90    0.15
   1   8   5    2.36    0.17
   1   8   5    2.03    0.16
   1   8   5    2.60    0.15
   1   8   5    2.16    0.14
  -2  -8  -5    0.56    0.22
   2   8   5    0.37    0.12
   2   8   5    0.39    0.10
   2   8   5    0.47    0.10
   2   8   5    0.30    0.07
   2   8   5    0.54    0.13
   3   8   5    1.88    0.18
   3   8   5    1.94    0.14
   3   8   5    1.87    0.13
   3   8   5    1.79    0.14
   4   8   5    0.23    0.06
   4   8   5    0.41    0.08
   4   8   5    0.37    0.12
   4   8   5    0.56    0.12
  -5  -8  -5    3.13    0.16
   5   8   5    3.33    0.15
   5   8   5    2.82    0.19
   5   8   5    3.11    0.17
  -6  -8  -5    0.19    0.05
  -6  -8  -5    0.16    0.05
   6   8   5    0.17    0.05
   4  -9  -5    0.02    0.03
   4  -9  -5    0.00    0.05
  -4   9   5    0.01    0.03
  -4   9   5   -0.02    0.05
   3  -9  -5    3.97    0.16
   3  -9  -5    4.06    0.21
  -3   9   5    4.23    0.17
  -3   9   5    4.05    0.18
   2  -9  -5   33.31    1.02
   2  -9  -5   32.11    1.05
  -2   9   5   32.53    1.02
  -2   9   5   32.58    1.03
  -2   9   5   32.43    1.02
  -2   9   5   32.82    1.03
   1  -9  -5   17.31    0.55
   1  -9  -5   17.65    0.59
  -1   9   5   16.74    0.57
  -1   9   5   16.57    0.57
  -1   9   5   16.97    0.57
  -1   9   5   17.09    0.57
   0   9   5    1.40    0.11
   0   9   5    1.43    0.14
   0   9   5    1.46    0.13
   0   9   5    1.43    0.12
   1   9   5   -0.08    0.05
   1   9   5    0.00    0.06
   1   9   5    0.11    0.07
   1   9   5    0.11    0.07
   1   9   5    0.03    0.08
   2   9   5    0.59    0.14
   2   9   5    0.65    0.10
   2   9   5    0.65    0.11
   2   9   5    0.81    0.10
   2   9   5    0.90    0.12
   3   9   5   11.11    0.42
   3   9   5   11.23    0.39
   3   9   5   11.00    0.40
   3   9   5   10.88    0.40
   4   9   5    4.68    0.19
   4   9   5    4.60    0.20
   4   9   5    4.83    0.21
  -5  -9  -5    0.96    0.08
   5   9   5    0.94    0.07
  -6  -9  -5    0.68    0.06
   4 -10  -5    0.16    0.03
  -4  10   5    0.15    0.04
   3 -10  -5    0.06    0.03
   3 -10  -5    0.11    0.07
  -3  10   5    0.05    0.03
   2 -10  -5    0.22    0.08
   2 -10  -5    0.14    0.05
  -2  10   5    0.26    0.08
  -2  10   5    0.16    0.05
  -2  10   5    0.17    0.05
   1 -10  -5    0.75    0.09
  -1  10   5    0.90    0.09
  -1  10   5    0.65    0.12
  -1  10   5    0.63    0.12
  -1  10   5    0.78    0.09
   0  10   5    0.21    0.07
   0  10   5    0.25    0.08
   0  10   5    0.13    0.05
   0  10   5    0.25    0.07
   1  10   5    1.57    0.13
   1  10   5    1.68    0.12
   1  10   5    1.72    0.16
   1  10   5    1.71    0.14
   2  10   5    0.06    0.06
   2  10   5    0.03    0.09
   2  10   5    0.04    0.06
   2  10   5    0.04    0.07
   3  10   5   -0.03    0.04
   3  10   5   -0.03    0.06
   3  10   5    0.07    0.05
  -4 -10  -5    0.05    0.04
   4  10   5    0.01    0.03
   4  10   5    0.07    0.06
  -5 -10  -5    0.47    0.06
   5  10   5    0.53    0.05
   3 -11  -5    0.00    0.03
  -3  11   5   -0.02    0.03
   2 -11  -5    2.66    0.11
  -2  11   5    2.51    0.12
  -2  11   5    2.51    0.12
   1 -11  -5    5.63    0.21
  -1  11   5    5.48    0.22
  -1  11   5    5.71    0.22
   0  11   5    5.05    0.21
   0  11   5    5.00    0.21
   0  11   5    4.69    0.21
   1  11   5    1.60    0.13
   1  11   5    1.85    0.11
   2  11   5    0.90    0.09
   2  11   5    1.05    0.09
   3  11   5    0.61    0.07
   3  11   5    0.82    0.08
  -4 -11  -5    3.26    0.14
   4  11   5    3.32    0.13
   4  11   5    3.28    0.14
   2 -12  -5    0.98    0.08
  -2  12   5    0.89    0.07
  -2  12   5    0.88    0.08
  -1  12   5    0.34    0.06
  -1  12   5    0.37    0.07
   0  12   5    3.35    0.15
   0  12   5    3.41    0.15
   1  12   5    0.57    0.07
  -2 -12  -5    1.58    0.09
   2  12   5    1.47    0.10
   2  12   5    1.65    0.09
  -3 -12  -5    2.45    0.11
   3  12   5    2.56    0.10
   3  12   5    2.45    0.11
   0  13   5    5.31    0.19
   1  13   5    1.31    0.07
   1   9  -6    0.29    0.04
  -1  -9   6    0.30    0.06
   0   9  -6    0.70    0.05
   0  -9   6    0.70    0.05
  -1   9  -6    7.80    0.26
   1  -9   6    7.87    0.26
  -2   9  -6    0.17    0.05
  -2   9  -6    0.13    0.04
   2  -9   6    0.10    0.03
   2   8  -6    1.21    0.07
  -2  -8   6    1.04    0.08
   1   8  -6    4.03    0.16
  -1  -8   6    3.83    0.23
  -1  -8   6    4.15    0.16
   0  -8   6    1.09    0.08
   0  -8   6    1.08    0.09
   0  -8   6    1.13    0.13
  -1   8  -6   15.62    0.48
   1  -8   6   14.60    0.48
   1  -8   6   14.88    0.49
   1  -8   6   15.02    0.48
   1  -8   6   14.75    0.52
  -2   8  -6    3.56    0.14
   2  -8   6    3.39    0.15
   2  -8   6    3.38    0.14
   2  -8   6    3.58    0.19
  -3   8  -6    0.39    0.04
   3  -8   6    0.45    0.07
   3  -8   6    0.50    0.11
   3  -8   6    0.41    0.05
   3   7  -6    1.31    0.08
   2   7  -6    6.21    0.22
  -2  -7   6    5.89    0.30
  -2  -7   6    5.84    0.22
  -1  -7   6    3.12    0.15
  -1  -7   6    2.89    0.18
  -1  -7   6    2.73    0.16
  -1  -7   6    3.19    0.14
   0  -7   6    0.31    0.07
   0  -7   6    0.02    0.06
   0  -7   6    0.13    0.07
   0  -7   6    0.15    0.05
  -1   7  -6    6.00    0.23
   1  -7   6    6.03    0.23
   1  -7   6    5.65    0.27
   1  -7   6    5.92    0.23
   1  -7   6    6.12    0.24
  -2   7  -6    0.04    0.04
   2  -7   6    0.07    0.05
   2  -7   6    0.07    0.05
   2  -7   6    0.02    0.03
   2  -7   6    0.16    0.04
   2  -7   6    0.05    0.06
  -3   7  -6    3.00    0.13
   3  -7   6    3.15    0.13
   3  -7   6    3.12    0.13
   3  -7   6    2.95    0.18
   3  -7   6    3.08    0.14
  -4   7  -6    2.35    0.10
   4  -7   6    2.35    0.17
   4  -7   6    2.46    0.10
   4  -7   6    2.49    0.11
   4   6  -6    1.45    0.09
  -4  -6   6    1.49    0.08
   3   6  -6   10.67    0.36
  -3  -6   6   10.41    0.35
  -3  -6   6   10.47    0.35
  -3  -6   6   10.73    0.37
   2   6  -6    5.81    0.22
  -2  -6   6    5.31    0.26
  -2  -6   6    5.79    0.22
  -2  -6   6    5.84    0.24
  -2  -6   6    5.56    0.23
  -1  -6   6   10.03    0.41
  -1  -6   6   10.45    0.38
  -1  -6   6   10.90    0.37
  -1  -6   6   10.78    0.37
   0  -6   6    2.29    0.14
   0  -6   6    1.86    0.15
   0  -6   6    2.07    0.13
   0  -6   6    2.02    0.12
   0  -6   6    2.03    0.11
   1  -6   6    9.91    0.34
   1  -6   6    9.51    0.35
   1  -6   6    9.66    0.34
   1  -6   6    9.97    0.35
   1  -6   6    9.65    0.39
   2  -6   6    1.37    0.10
   2  -6   6    1.26    0.10
   2  -6   6    1.39    0.11
   2  -6   6    1.41    0.11
   2  -6   6    1.29    0.13
   3  -6   6    7.11    0.25
   3  -6   6    7.35    0.26
   3  -6   6    6.90    0.27
   3  -6   6    7.12    0.26
   3  -6   6    6.56    0.30
   4  -6   6    1.76    0.10
   4  -6   6    1.79    0.11
   4  -6   6    1.66    0.10
   4  -6   6    1.76    0.15
   4  -6   6    1.93    0.10
  -5   6  -6    4.54    0.16
   5  -6   6    4.34    0.16
  -4  -5   6    2.33    0.11
  -4  -5   6    2.34    0.13
   3   5  -6    0.29    0.07
  -3  -5   6    0.48    0.10
  -3  -5   6    0.37    0.09
  -3  -5   6    0.39    0.09
  -3  -5   6    0.28    0.11
  -2  -5   6    9.98    0.37
  -2  -5   6    9.87    0.41
  -2  -5   6   11.65    0.39
  -2  -5   6   10.21    0.37
  -2  -5   6   10.42    0.37
  -1  -5   6    1.16    0.11
  -1  -5   6    1.51    0.14
  -1  -5   6    1.44    0.11
  -1  -5   6    1.23    0.13
   0  -5   6    0.33    0.08
   0  -5   6    0.20    0.05
   0  -5   6    0.32    0.08
   0  -5   6    0.30    0.06
   0  -5   6    0.21    0.07
   1  -5   6    0.61    0.08
   1  -5   6    0.65    0.09
   1  -5   6    0.68    0.09
   1  -5   6    0.81    0.10
   1  -5   6    0.79    0.12
   2  -5   6    3.65    0.18
   2  -5   6    3.62    0.17
   2  -5   6    3.67    0.16
   2  -5   6    2.92    0.19
   2  -5   6    3.75    0.16
   3  -5   6    3.56    0.20
   3  -5   6    3.74    0.17
   3  -5   6    3.68    0.16
   3  -5   6    3.86    0.17
   3  -5   6    3.77    0.18
  -4   5  -6    0.73    0.09
   4  -5   6    0.57    0.08
   4  -5   6    0.75    0.12
   4  -5   6    0.47    0.08
   4  -5   6    0.61    0.08
   4  -5   6    0.61    0.08
  -5   5  -6    1.20    0.08
   5  -5   6    1.17    0.08
   5  -5   6    0.99    0.20
   5  -5   6    1.17    0.09
   5   4  -6    1.05    0.08
  -5  -4   6    1.15    0.07
  -4  -4   6    1.08    0.09
  -4  -4   6    0.94    0.10
  -4  -4   6    1.07    0.11
   3   4  -6    0.03    0.12
  -3  -4   6   -0.11    0.05
  -3  -4   6    0.09    0.05
  -3  -4   6   -0.07    0.06
  -3  -4   6   -0.01    0.08
  -2  -4   6   25.02    0.81
  -2  -4   6   25.24    0.83
  -2  -4   6   26.39    0.86
  -2  -4   6   24.47    0.80
  -2  -4   6   25.16    0.81
  -1  -4   6   -0.06    0.05
  -1  -4   6    0.03    0.06
  -1  -4   6    0.04    0.05
  -1  -4   6    0.01    0.06
  -1  -4   6    0.15    0.06
   0   4  -6    0.14    0.09
   0  -4   6    0.01    0.05
   0  -4   6    0.09    0.07
   0  -4   6    0.12    0.06
   0  -4   6    0.11    0.06
   0  -4   6    0.03    0.06
   0  -4   6   -0.10    0.10
  -1   4  -6    5.42    0.26
   1  -4   6    4.90    0.29
   1  -4   6    5.53    0.22
   1  -4   6    5.59    0.23
   1  -4   6    5.38    0.22
   1  -4   6    5.61    0.22
   1  -4   6    5.56    0.22
   1  -4   6    5.52    0.25
   2  -4   6   25.09    0.80
   2  -4   6   24.96    0.80
   2  -4   6   25.04    0.80
   2  -4   6   26.56    0.85
   2  -4   6   24.88    0.81
   2  -4   6   25.70    0.82
  -3   4  -6   44.90    1.38
   3  -4   6   43.43    1.38
   3  -4   6   45.18    1.40
   3  -4   6   44.78    1.39
   3  -4   6   45.50    1.39
   3  -4   6   43.87    1.39
   3  -4   6   46.80    1.43
  -4   4  -6    1.69    0.11
   4  -4   6    1.51    0.15
   4  -4   6    1.65    0.11
   4  -4   6    1.76    0.12
   4  -4   6    1.87    0.12
   4  -4   6    1.66    0.10
   4  -4   6    1.73    0.11
  -5   4  -6    7.54    0.26
   5  -4   6    7.57    0.27
   5  -4   6    7.60    0.27
   5  -4   6    7.63    0.28
   5  -4   6    7.77    0.33
  -6   4  -6    1.98    0.08
   6  -4   6    1.97    0.09
   5   3  -6    2.09    0.12
  -5  -3   6    2.06    0.10
  -4  -3   6    2.26    0.15
  -4  -3   6    2.17    0.19
  -4  -3   6    2.39    0.13
  -4  -3   6    2.44    0.13
  -3  -3   6    0.24    0.06
  -3  -3   6    0.33    0.09
  -3  -3   6    0.20    0.06
  -3  -3   6    0.20    0.07
  -3  -3   6    0.28    0.09
  -2  -3   6    1.88    0.15
  -2  -3   6    1.98    0.16
  -2  -3   6    1.73    0.13
  -2  -3   6    1.82    0.12
  -2  -3   6    1.74    0.13
   1   3  -6    7.03    0.29
  -1  -3   6    6.93    0.29
  -1  -3   6    6.83    0.28
  -1  -3   6    6.87    0.26
  -1  -3   6    6.75    0.26
  -1  -3   6    7.00    0.32
  -1  -3   6    6.51    0.26
   0   3  -6   24.36    0.81
   0  -3   6   24.40    0.83
   0  -3   6   25.08    0.79
   0  -3   6   25.00    0.79
   0  -3   6   25.42    0.79
   0  -3   6   25.55    0.81
  -1   3  -6    0.04    0.06
   1  -3   6    0.08    0.06
   1  -3   6    0.04    0.06
   1  -3   6    0.10    0.07
   1  -3   6   -0.01    0.04
   1  -3   6   -0.03    0.06
   1  -3   6    0.09    0.06
   1  -3   6    0.13    0.06
   2  -3   6   33.75    1.08
   2  -3   6   34.56    1.10
   2  -3   6   34.65    1.07
   2  -3   6   34.20    1.07
   2  -3   6   34.97    1.07
   2  -3   6   33.53    1.07
   3  -3   6   24.28    0.79
   3  -3   6   24.66    0.79
   3  -3   6   24.08    0.79
   3  -3   6   24.51    0.79
   3  -3   6   24.93    0.80
   3  -3   6   25.99    0.82
   4  -3   6    1.43    0.11
   4  -3   6    1.50    0.10
   4  -3   6    1.30    0.13
   4  -3   6    1.55    0.10
   4  -3   6    1.54    0.12
   4  -3   6    1.28    0.15
   5  -3   6   11.47    0.41
   5  -3   6   12.05    0.40
   5  -3   6   12.32    0.40
   5  -3   6   11.87    0.40
  -6   3  -6    0.09    0.03
   6  -3   6    0.13    0.04
   6  -3   6    0.20    0.05
   5   2  -6    2.93    0.15
  -5  -2   6    2.89    0.13
  -4  -2   6    0.90    0.14
  -4  -2   6    1.23    0.10
  -4  -2   6    1.02    0.11
  -4  -2   6    0.97    0.12
  -3  -2   6    4.72    0.20
  -3  -2   6    4.28    0.19
  -3  -2   6    5.05    0.25
  -3  -2   6    4.29    0.21
  -3  -2   6    4.19    0.22
   2   2  -6   11.87    0.44
  -2  -2   6   12.07    0.41
  -2  -2   6   11.71    0.43
  -2  -2   6   11.99    0.42
  -2  -2   6   12.02    0.45
  -2  -2   6   11.70    0.47
  -2  -2   6   11.79    0.41
   1   2  -6    5.52    0.23
  -1  -2   6    5.25    0.25
  -1  -2   6    5.25    0.24
  -1  -2   6    5.54    0.24
  -1  -2   6    5.64    0.23
  -1  -2   6    5.54    0.22
   0   2  -6   10.37    0.36
   0  -2   6   10.37    0.37
   0  -2   6    9.70    0.37
  -1   2  -6    1.43    0.10
   1  -2   6    1.37    0.11
   1  -2   6    1.54    0.11
   2  -2   6   14.42    0.49
   2  -2   6   14.60    0.49
   2  -2   6   14.91    0.51
   2  -2   6   15.03    0.49
   2  -2   6   14.60    0.50
   3  -2   6    1.69    0.14
   3  -2   6    1.70    0.14
   3  -2   6    1.88    0.14
   3  -2   6    1.88    0.12
   3  -2   6    2.09    0.15
   3  -2   6    1.86    0.12
   3  -2   6    1.82    0.12
   4  -2   6    0.13    0.05
   4  -2   6    0.15    0.05
   4  -2   6    0.21    0.09
   4  -2   6    0.16    0.07
   4  -2   6    0.15    0.05
   5  -2   6    0.19    0.05
   5  -2   6    0.29    0.07
   5  -2   6    0.15    0.04
   5  -2   6    0.08    0.06
   6  -2   6    2.61    0.12
   6  -2   6    2.84    0.12
   6  -2   6    2.82    0.13
   6   1  -6    1.41    0.08
  -6  -1   6    1.36    0.07
   5   1  -6    0.84    0.10
  -5  -1   6    0.70    0.07
  -5  -1   6    0.89    0.10
  -5  -1   6    0.76    0.10
  -4  -1   6    7.34    0.28
  -4  -1   6    7.35    0.30
  -4  -1   6    7.31    0.33
  -4  -1   6    7.24    0.28
  -4  -1   6    7.18    0.28
  -3  -1   6    0.24    0.07
  -3  -1   6    0.21    0.07
  -3  -1   6    0.20    0.07
  -3  -1   6    0.38    0.12
  -3  -1   6    0.25    0.06
   2   1  -6   12.44    0.44
  -2  -1   6   11.93    0.43
  -2  -1   6   12.69    0.45
  -2  -1   6   12.32    0.44
  -2  -1   6   11.97    0.42
  -2  -1   6   12.65    0.47
  -2  -1   6   12.31    0.42
   1   1  -6    7.97    0.32
  -1  -1   6    9.98    0.35
  -1  -1   6    9.48    0.35
   0   1  -6    6.49    0.23
   0  -1   6    5.81    0.24
   0  -1   6    6.50    0.25
   1  -1   6   48.44    1.48
   1  -1   6   47.76    1.49
   2  -1   6    8.82    0.32
   3  -1   6    2.53    0.16
   3  -1   6    2.50    0.15
   3  -1   6    2.81    0.15
   3  -1   6    2.52    0.14
   3  -1   6    2.50    0.14
   3  -1   6    2.78    0.16
   3  -1   6    2.48    0.17
   4  -1   6   15.09    0.51
   4  -1   6   15.64    0.51
   4  -1   6   15.66    0.52
   4  -1   6   15.10    0.52
   4  -1   6   15.20    0.51
   5  -1   6   30.79    0.98
   5  -1   6   31.11    0.97
   5  -1   6   30.95    0.97
   5  -1   6   31.10    0.98
   6  -1   6    0.18    0.05
   6  -1   6    0.24    0.06
   6  -1   6    0.39    0.08
   6  -1   6    0.20    0.04
  -7   1  -6    0.25    0.03
   7  -1   6    0.25    0.05
   7  -1   6    0.30    0.06
   6   0  -6    0.16    0.05
  -6   0   6    0.04    0.03
  -6   0   6    0.00    0.04
   5   0  -6    0.10    0.07
  -5   0   6    0.20    0.05
  -5   0   6    0.19    0.05
  -5   0   6    0.09    0.05
  -4   0   6    7.73    0.29
  -4   0   6    8.17    0.30
  -4   0   6    8.10    0.29
  -4   0   6    7.78    0.34
  -4   0   6    7.85    0.32
   3   0  -6    0.25    0.11
  -3   0   6    0.11    0.07
  -3   0   6    0.16    0.07
  -3   0   6    0.24    0.07
  -3   0   6    0.29    0.07
  -3   0   6    0.43    0.13
   2   0  -6    0.10    0.05
  -2   0   6    0.03    0.05
  -2   0   6    0.26    0.10
  -2   0   6    0.11    0.08
  -2   0   6    0.03    0.06
  -2   0   6    0.19    0.06
   1   0  -6    2.08    0.11
  -1   0   6    2.00    0.13
  -1   0   6    2.10    0.13
   0   0  -6   12.63    0.41
   0   0   6   12.04    0.42
   0   0   6   12.35    0.42
   1   0   6    2.26    0.14
   1   0   6    2.14    0.11
   2   0   6    7.33    0.28
   2   0   6    7.46    0.27
   3   0   6   12.41    0.43
   3   0   6   12.56    0.44
   3   0   6   13.06    0.44
   3   0   6   12.29    0.43
   3   0   6   13.20    0.45
   3   0   6   12.80    0.46
   4   0   6    3.50    0.18
   4   0   6    3.17    0.16
   4   0   6    3.08    0.21
   4   0   6    3.46    0.17
   4   0   6    3.32    0.16
   4   0   6    3.30    0.17
  -5   0  -6    2.66    0.16
   5   0   6    2.71    0.14
   5   0   6    2.86    0.15
   5   0   6    2.72    0.16
   5   0   6    2.81    0.15
   5   0   6    2.71    0.14
  -6   0  -6    1.75    0.13
   6   0   6    1.65    0.12
   6   0   6    1.79    0.11
   6   0   6    1.66    0.10
   6   0   6    2.02    0.11
  -7   0  -6   -0.02    0.02
   7   0   6   -0.01    0.03
   7   0   6   -0.04    0.05
   6  -1  -6    2.91    0.13
  -6   1   6    2.93    0.12
  -6   1   6    2.86    0.11
  -5   1   6    2.62    0.14
  -5   1   6    2.91    0.14
  -5   1   6    2.90    0.14
   4  -1  -6    1.00    0.16
  -4   1   6    1.10    0.10
  -4   1   6    1.18    0.11
  -4   1   6    1.03    0.11
  -4   1   6    1.15    0.12
  -4   1   6    1.05    0.13
   3  -1  -6    8.22    0.36
  -3   1   6    9.44    0.33
  -3   1   6    8.96    0.33
  -3   1   6    9.21    0.35
  -3   1   6    9.61    0.37
  -3   1   6    9.15    0.33
   2  -1  -6    5.17    0.21
  -2   1   6    5.16    0.21
  -2   1   6    5.41    0.23
  -2   1   6    4.89    0.21
  -2   1   6    4.98    0.23
   1  -1  -6   21.60    0.67
  -1   1   6   20.86    0.69
   0  -1  -6    9.46    0.31
   0   1   6    9.24    0.33
   1   1   6   36.23    1.13
  -2  -1  -6    5.99    0.19
   2   1   6    5.29    0.24
   2   1   6    5.73    0.21
   3   1   6   12.88    0.44
   4   1   6   17.42    0.58
   4   1   6   16.39    0.56
   4   1   6   17.13    0.59
   4   1   6   16.63    0.56
   4   1   6   17.24    0.56
   4   1   6   16.55    0.56
   5   1   6    4.14    0.19
   5   1   6    4.40    0.20
   5   1   6    4.42    0.19
   5   1   6    4.42    0.21
   5   1   6    4.34    0.20
  -6  -1  -6   17.70    0.56
   6   1   6   15.21    0.55
   6   1   6   17.30    0.55
   6   1   6   17.20    0.56
   6   1   6   17.71    0.55
  -7  -1  -6    0.26    0.07
   7   1   6    0.37    0.05
   6  -2  -6    0.52    0.06
  -6   2   6    0.57    0.05
  -6   2   6    0.37    0.06
   5  -2  -6    1.56    0.15
  -5   2   6    1.80    0.11
  -5   2   6    1.68    0.11
  -5   2   6    1.75    0.11
  -4   2   6   11.02    0.39
  -4   2   6   11.24    0.39
  -4   2   6   11.07    0.39
   3  -2  -6    0.15    0.11
  -3   2   6    0.23    0.08
  -3   2   6    0.17    0.06
  -3   2   6    0.13    0.06
  -3   2   6    0.04    0.06
  -3   2   6    0.22    0.08
   2  -2  -6    0.10    0.05
  -2   2   6    0.27    0.09
  -2   2   6    0.08    0.06
  -2   2   6    0.18    0.06
   1  -2  -6   13.44    0.43
  -1   2   6   13.56    0.47
   0  -2  -6    4.03    0.15
   0   2   6    3.79    0.18
  -1  -2  -6   12.32    0.40
  -2  -2  -6   51.47    1.47
   2   2   6   45.78    1.48
   3   2   6    0.02    0.04
   4   2   6    7.90    0.30
   4   2   6    7.78    0.29
   4   2   6    7.75    0.31
   4   2   6    7.68    0.30
   4   2   6    7.88    0.32
   4   2   6    7.74    0.29
   5   2   6   10.40    0.36
   5   2   6   10.03    0.38
   5   2   6   10.19    0.37
   5   2   6   10.17    0.37
  -6  -2  -6    0.06    0.04
   6   2   6   -0.01    0.05
   6   2   6    0.07    0.05
   6   2   6    0.06    0.05
   6   2   6    0.11    0.05
  -7  -2  -6    0.62    0.06
   7   2   6    0.54    0.05
   6  -3  -6    2.48    0.11
  -6   3   6    2.59    0.12
  -6   3   6    2.58    0.11
   5  -3  -6    3.53    0.20
  -5   3   6    3.68    0.16
  -5   3   6    3.08    0.15
  -5   3   6    3.55    0.15
  -4   3   6    8.49    0.31
  -4   3   6    8.46    0.31
  -4   3   6    8.26    0.31
   3  -3  -6    0.00    0.13
  -3   3   6    0.11    0.06
  -3   3   6    0.17    0.08
  -3   3   6    0.13    0.06
  -3   3   6    0.17    0.06
  -3   3   6    0.13    0.06
   2  -3  -6   31.87    1.01
  -2   3   6   32.83    1.01
  -2   3   6   30.36    0.97
  -2   3   6   30.35    0.97
  -2   3   6   29.48    0.97
   1  -3  -6   62.57    1.90
   1  -3  -6   61.68    1.94
  -1   3   6   65.11    1.94
   0  -3  -6    0.01    0.02
   0  -3  -6    0.01    0.03
   0   3   6   -0.02    0.06
  -1  -3  -6   19.03    0.61
  -2  -3  -6    0.68    0.06
   2   3   6    0.70    0.06
   3   3   6   17.13    0.56
   4   3   6    8.59    0.34
   4   3   6    8.46    0.31
   4   3   6    8.82    0.32
   4   3   6    8.16    0.34
   4   3   6    8.76    0.33
   4   3   6    8.51    0.32
   5   3   6    1.99    0.14
   5   3   6    1.80    0.12
   5   3   6    1.82    0.14
   5   3   6    1.75    0.13
   6   3   6   15.33    0.50
   6   3   6   15.18    0.50
   6   3   6   14.74    0.50
   6   3   6   14.78    0.51
  -7  -3  -6    0.13    0.04
   7   3   6    0.15    0.05
   7   3   6    0.26    0.08
   6  -4  -6    1.52    0.08
   6  -4  -6    1.46    0.08
  -6   4   6    1.64    0.08
   5  -4  -6    2.08    0.12
   5  -4  -6    2.19    0.15
  -5   4   6    1.99    0.11
  -5   4   6    1.98    0.11
  -4   4   6    1.17    0.10
  -4   4   6    1.18    0.10
  -4   4   6    1.26    0.11
  -3   4   6    0.46    0.09
  -3   4   6    0.58    0.09
  -3   4   6    0.36    0.10
  -3   4   6    0.37    0.08
   2  -4  -6    0.33    0.10
  -2   4   6    0.43    0.09
  -2   4   6    0.30    0.10
  -2   4   6    0.38    0.08
   1  -4  -6   77.20    2.50
  -1   4   6   86.76    2.51
   0  -4  -6   18.42    0.62
   0  -4  -6   20.00    0.57
   0   4   6   18.12    0.62
  -1  -4  -6    1.59    0.09
  -2  -4  -6   64.42    1.95
   2   4   6   63.73    1.94
   3   4   6    4.91    0.23
   3   4   6    5.39    0.25
   3   4   6    5.20    0.22
   3   4   6    5.20    0.21
   3   4   6    5.12    0.23
   4   4   6    0.17    0.06
   4   4   6    0.20    0.07
   4   4   6    0.07    0.07
   4   4   6    0.14    0.08
   4   4   6    0.05    0.10
   4   4   6    0.08    0.06
   5   4   6   10.03    0.39
   5   4   6   10.09    0.36
   5   4   6   10.13    0.37
   5   4   6    9.99    0.36
   6   4   6   16.12    0.53
   6   4   6   14.45    0.51
   6   4   6   16.85    0.52
   6   4   6   15.50    0.52
  -7  -4  -6    3.53    0.14
   7   4   6    3.72    0.14
   7   4   6    3.66    0.14
   5  -5  -6    3.10    0.14
   5  -5  -6    2.86    0.17
  -5   5   6    3.11    0.14
  -5   5   6    2.97    0.14
   4  -5  -6    9.68    0.39
   4  -5  -6   10.04    0.37
  -4   5   6   10.41    0.36
  -4   5   6    9.89    0.36
  -4   5   6   10.41    0.36
  -4   5   6   10.45    0.35
  -3   5   6    7.90    0.29
  -3   5   6    7.66    0.29
  -3   5   6    7.50    0.29
   2  -5  -6    5.71    0.28
  -2   5   6    5.77    0.23
  -2   5   6    5.67    0.23
  -2   5   6    5.70    0.23
  -2   5   6    5.79    0.23
   1  -5  -6    9.87    0.37
   0  -5  -6   10.90    0.39
  -1  -5  -6    2.37    0.13
  -2  -5  -6   25.21    0.79
   2   5   6   24.55    0.77
   3   5   6    5.03    0.25
   3   5   6    4.93    0.22
   3   5   6    5.28    0.25
   3   5   6    5.24    0.23
   3   5   6    4.94    0.22
   3   5   6    5.09    0.22
   4   5   6    1.49    0.13
   4   5   6    1.49    0.13
   4   5   6    1.37    0.11
   4   5   6    1.65    0.16
   4   5   6    1.06    0.13
  -5  -5  -6    2.86    0.20
   5   5   6    2.81    0.17
   5   5   6    3.00    0.17
   5   5   6    3.07    0.18
   5   5   6    3.00    0.16
   5   5   6    2.88    0.16
   6   5   6    0.03    0.04
   6   5   6    0.03    0.04
   6   5   6    0.07    0.07
   6   5   6    0.02    0.06
  -7  -5  -6    0.01    0.03
   7   5   6    0.03    0.03
   7   5   6    0.00    0.04
   5  -6  -6   12.24    0.40
   5  -6  -6   11.98    0.43
  -5   6   6   12.04    0.40
  -5   6   6   12.52    0.40
   4  -6  -6    1.90    0.15
   4  -6  -6    1.97    0.14
  -4   6   6    2.30    0.13
  -4   6   6    2.30    0.14
  -4   6   6    2.18    0.12
   3  -6  -6    1.22    0.13
   3  -6  -6    1.35    0.16
  -3   6   6    1.15    0.12
  -3   6   6    1.20    0.10
  -3   6   6    1.30    0.11
  -3   6   6    1.17    0.10
   2  -6  -6   15.69    0.53
   2  -6  -6   14.66    0.57
  -2   6   6   14.92    0.50
  -2   6   6   14.53    0.50
  -2   6   6   15.05    0.50
  -2   6   6   14.24    0.50
   1  -6  -6    7.21    0.31
  -1   6   6    7.21    0.27
  -1   6   6    7.09    0.27
  -1   6   6    7.18    0.28
  -1   6   6    6.94    0.27
   0  -6  -6    5.09    0.23
   0  -6  -6    5.44    0.24
   0   6   6    5.18    0.22
   0   6   6    5.29    0.22
   0   6   6    4.98    0.22
  -1  -6  -6   24.54    0.74
   1   6   6   20.56    0.72
   1   6   6   21.66    0.72
  -2  -6  -6   23.43    0.78
   2   6   6   25.30    0.78
   2   6   6   24.27    0.79
   2   6   6   24.08    0.78
   2   6   6   23.58    0.78
   2   6   6   22.97    0.77
   3   6   6    6.39    0.29
   3   6   6    6.20    0.27
   3   6   6    6.62    0.26
   3   6   6    6.50    0.28
   3   6   6    6.49    0.27
   4   6   6    0.11    0.08
   4   6   6    0.11    0.06
   4   6   6    0.13    0.06
   4   6   6    0.18    0.08
   4   6   6   -0.04    0.09
  -5  -6  -6    2.89    0.19
   5   6   6    3.22    0.19
   5   6   6    3.27    0.17
   5   6   6    3.05    0.17
   5   6   6    3.06    0.16
   5   6   6    3.47    0.18
   6   6   6    3.62    0.16
   6   6   6    3.56    0.17
   6   6   6    3.58    0.15
  -7  -6  -6    0.19    0.04
   7   6   6    0.21    0.05
   7   6   6    0.23    0.06
   5  -7  -6    1.41    0.07
   5  -7  -6    1.60    0.12
  -5   7   6    1.45    0.08
  -5   7   6    1.41    0.08
   4  -7  -6    0.61    0.10
  -4   7   6    0.74    0.11
  -4   7   6    0.64    0.08
  -4   7   6    0.76    0.08
   3  -7  -6   31.18    1.04
  -3   7   6   32.39    1.01
  -3   7   6   32.15    1.01
  -3   7   6   31.92    1.00
   2  -7  -6    3.93    0.20
  -2   7   6    3.54    0.18
  -2   7   6    3.66    0.18
  -2   7   6    3.62    0.17
   1  -7  -6    1.32    0.18
   1  -7  -6    1.79    0.14
  -1   7   6    1.44    0.15
  -1   7   6    1.50    0.13
  -1   7   6    1.60    0.12
  -1   7   6    1.66    0.13
   0  -7  -6    2.52    0.18
   0   7   6    2.82    0.15
   0   7   6    2.65    0.15
   0   7   6    2.67    0.16
   0   7   6    2.74    0.17
  -1  -7  -6    5.56    0.26
   1   7   6    5.45    0.23
   1   7   6    5.52    0.24
   1   7   6    5.57    0.23
   1   7   6    5.38    0.24
  -2  -7  -6    0.49    0.15
   2   7   6    0.20    0.09
   2   7   6    0.19    0.07
   2   7   6    0.23    0.07
   2   7   6    0.13    0.05
   2   7   6    0.23    0.08
   3   7   6    9.18    0.35
   3   7   6    9.39    0.35
   3   7   6    9.32    0.34
   3   7   6    9.50    0.36
   3   7   6    9.31    0.37
   4   7   6    5.83    0.24
   4   7   6    5.73    0.26
   4   7   6    6.01    0.25
   4   7   6    5.55    0.27
  -5  -7  -6    9.38    0.35
   5   7   6    9.84    0.34
   5   7   6    9.29    0.36
   5   7   6    9.24    0.35
   5   7   6    9.40    0.35
   5   7   6    9.54    0.34
  -6  -7  -6    0.13    0.06
   6   7   6    0.04    0.03
   6   7   6    0.15    0.04
   5  -8  -6    0.65    0.04
  -5   8   6    0.57    0.06
  -5   8   6    0.67    0.06
   4  -8  -6   10.96    0.40
  -4   8   6   10.72    0.36
  -4   8   6   10.73    0.36
   3  -8  -6    0.08    0.06
  -3   8   6    0.05    0.05
  -3   8   6    0.04    0.04
  -3   8   6    0.03    0.06
   2  -8  -6   47.19    1.52
  -2   8   6   47.70    1.49
  -2   8   6   48.59    1.49
  -2   8   6   49.29    1.49
   1  -8  -6    0.63    0.12
  -1   8   6    0.61    0.11
  -1   8   6    0.69    0.09
  -1   8   6    0.76    0.11
  -1   8   6    0.60    0.11
   0   8   6   11.70    0.41
   0   8   6   11.54    0.42
   0   8   6   11.91    0.41
   0   8   6   11.77    0.41
  -1  -8  -6   53.77    1.79
   1   8   6   56.25    1.74
   1   8   6   57.19    1.75
   1   8   6   57.22    1.75
   1   8   6   58.26    1.75
   2   8   6    4.20    0.23
   2   8   6    5.66    0.23
   2   8   6    5.79    0.24
   2   8   6    5.72    0.25
   3   8   6    3.08    0.17
   3   8   6    3.28    0.18
   3   8   6    2.97    0.18
   3   8   6    3.01    0.20
   3   8   6    3.52    0.17
   4   8   6    0.34    0.07
   4   8   6    0.59    0.11
   4   8   6    0.37    0.08
   4   8   6    0.39    0.10
  -5  -8  -6    3.20    0.16
   5   8   6    3.04    0.15
   5   8   6    2.86    0.17
   5   8   6    2.33    0.13
  -6  -8  -6    0.86    0.09
   6   8   6    0.84    0.06
   4  -9  -6    3.22    0.13
   4  -9  -6    3.44    0.17
  -4   9   6    3.28    0.13
  -4   9   6    3.32    0.13
   3  -9  -6    1.16    0.08
   3  -9  -6    1.42    0.13
  -3   9   6    1.18    0.09
  -3   9   6    1.10    0.09
   2  -9  -6    2.65    0.18
  -2   9   6    2.93    0.16
  -2   9   6    2.72    0.17
  -2   9   6    2.83    0.14
  -2   9   6    2.75    0.15
   1  -9  -6    0.37    0.10
   1  -9  -6    0.78    0.16
  -1   9   6    0.35    0.10
  -1   9   6    0.55    0.10
  -1   9   6    0.46    0.09
  -1   9   6    0.67    0.11
   0   9   6    0.35    0.09
   0   9   6    0.58    0.11
   0   9   6    0.40    0.10
   0   9   6    0.47    0.09
   1   9   6   10.50    0.39
   1   9   6   10.37    0.38
   1   9   6   10.67    0.39
   2   9   6    7.57    0.30
   2   9   6    7.71    0.29
   2   9   6    7.75    0.30
   2   9   6    7.68    0.30
   2   9   6    7.68    0.31
   3   9   6    1.76    0.12
   3   9   6    1.80    0.16
   3   9   6    1.68    0.13
   3   9   6    1.95    0.13
   4   9   6    4.24    0.19
   4   9   6    4.09    0.18
   4   9   6    3.41    0.21
   4   9   6    4.00    0.17
  -5  -9  -6    2.82    0.13
   5   9   6    2.74    0.12
   5   9   6    2.74    0.14
  -6  -9  -6    0.18    0.08
  -6  -9  -6    0.09    0.03
   4 -10  -6    1.98    0.08
  -4  10   6    1.82    0.08
   3 -10  -6    1.80    0.15
   3 -10  -6    1.65    0.08
  -3  10   6    1.61    0.09
  -3  10   6    1.69    0.10
   2 -10  -6   24.16    0.82
   2 -10  -6   25.28    0.78
  -2  10   6   25.41    0.79
  -2  10   6   25.32    0.79
  -2  10   6   24.33    0.79
  -2  10   6   25.03    0.79
   1 -10  -6   16.18    0.53
  -1  10   6   16.95    0.55
  -1  10   6   16.91    0.56
  -1  10   6   16.62    0.55
  -1  10   6   16.41    0.55
   0  10   6    0.28    0.07
   0  10   6    0.30    0.07
   0  10   6    0.33    0.07
   0  10   6    0.33    0.09
   1  10   6    0.16    0.07
   1  10   6   -0.06    0.06
   1  10   6    0.09    0.07
   1  10   6    0.07    0.05
   2  10   6   14.12    0.48
   2  10   6   13.60    0.47
   2  10   6   13.91    0.48
   2  10   6   13.80    0.49
   2  10   6   14.21    0.48
   3  10   6    0.44    0.12
   3  10   6    0.46    0.08
   3  10   6    0.46    0.10
   3  10   6    0.33    0.08
  -4 -10  -6    0.83    0.08
   4  10   6    0.79    0.09
   4  10   6    0.75    0.07
   4  10   6    0.72    0.08
  -5 -10  -6    1.89    0.09
   5  10   6    1.79    0.09
   3 -11  -6    0.72    0.05
  -3  11   6    0.83    0.06
   2 -11  -6    0.28    0.06
  -2  11   6    0.21    0.06
  -2  11   6    0.25    0.06
   1 -11  -6   27.62    0.88
  -1  11   6   28.03    0.88
  -1  11   6   28.46    0.88
  -1  11   6   27.70    0.88
   0  11   6    0.89    0.10
   0  11   6    0.92    0.12
   0  11   6    0.93    0.09
   0  11   6    0.71    0.09
   1  11   6    1.22    0.11
   1  11   6    1.43    0.11
   1  11   6    1.31    0.13
   1  11   6    1.30    0.10
   2  11   6    1.48    0.11
   2  11   6    1.81    0.12
   2  11   6    1.77    0.13
   2  11   6    1.92    0.14
   3  11   6    0.17    0.05
   3  11   6    0.04    0.06
   3  11   6    0.10    0.04
  -4 -11  -6    1.61    0.09
   4  11   6    1.57    0.09
   4  11   6    1.58    0.08
  -2  12   6    5.80    0.20
  -1  12   6   21.56    0.68
  -1  12   6   21.58    0.68
   0  12   6    3.00    0.14
   0  12   6    2.80    0.13
   1  12   6    0.02    0.04
   1  12   6   -0.02    0.06
   2  12   6    0.16    0.04
  -3 -12  -6    0.36    0.06
   3  12   6    0.37    0.06
   3  12   6    0.41    0.06
   0  13   6    0.01    0.03
   1  13   6    1.28    0.07
   1   8  -7    3.13    0.12
  -1  -8   7    2.91    0.11
   0   8  -7    1.47    0.08
   0  -8   7    1.19    0.15
   0  -8   7    1.51    0.08
   1  -8   7    1.73    0.11
   1  -8   7    1.82    0.11
   1  -8   7    1.58    0.14
   1  -8   7    1.89    0.09
  -2   8  -7    0.89    0.06
   2  -8   7    0.87    0.06
   2  -8   7    0.59    0.15
   2  -8   7    0.91    0.09
   3   7  -7    6.10    0.21
   2   7  -7    0.09    0.03
  -2  -7   7    0.04    0.03
   1   7  -7    8.76    0.30
  -1  -7   7    8.57    0.31
  -1  -7   7    8.69    0.30
  -1  -7   7    9.12    0.31
  -1  -7   7    9.11    0.35
   0  -7   7    3.70    0.17
   0  -7   7    3.77    0.16
   0  -7   7    3.71    0.20
   0  -7   7    3.84    0.16
  -1   7  -7    3.60    0.15
   1  -7   7    3.18    0.18
   1  -7   7    3.30    0.14
   1  -7   7    3.32    0.15
   1  -7   7    3.39    0.15
  -2   7  -7    0.50    0.06
   2  -7   7    0.42    0.10
   2  -7   7    0.53    0.06
   2  -7   7    0.56    0.07
   2  -7   7    0.56    0.07
  -3   7  -7    4.06    0.16
   3  -7   7    4.44    0.21
   3  -7   7    4.21    0.16
   3  -7   7    4.11    0.16
  -4   7  -7    0.10    0.03
   4  -7   7    0.08    0.03
   4  -7   7    0.12    0.04
  -3  -6   7    2.72    0.13
  -3  -6   7    2.64    0.12
   2   6  -7    0.71    0.08
  -2  -6   7    0.58    0.07
  -2  -6   7    0.55    0.09
  -2  -6   7    0.79    0.14
  -2  -6   7    0.58    0.07
  -1  -6   7    1.87    0.12
  -1  -6   7    1.88    0.13
  -1  -6   7    1.84    0.15
  -1  -6   7    1.96    0.11
   0  -6   7    0.04    0.04
   0  -6   7    0.03    0.06
   0  -6   7   -0.01    0.05
   0  -6   7   -0.02    0.04
  -1   6  -7    1.32    0.10
   1  -6   7    1.24    0.10
   1  -6   7    1.05    0.12
   1  -6   7    1.40    0.10
   1  -6   7    1.08    0.11
   1  -6   7    1.28    0.09
   2  -6   7   31.35    1.08
   2  -6   7   33.08    1.04
   2  -6   7   34.53    1.04
   2  -6   7   33.80    1.03
   2  -6   7   33.54    1.04
   3  -6   7    0.10    0.05
   3  -6   7    0.14    0.04
   3  -6   7    0.11    0.07
   3  -6   7    0.01    0.04
   3  -6   7    0.03    0.04
   4  -6   7   -0.04    0.03
   4  -6   7   -0.07    0.05
   4  -6   7    0.13    0.09
   4  -6   7   -0.02    0.04
   4  -6   7    0.02    0.03
   4   5  -7    3.84    0.15
  -4  -5   7    3.72    0.14
  -3  -5   7    0.31    0.08
  -3  -5   7    0.24    0.12
  -3  -5   7    0.40    0.08
  -3  -5   7    0.34    0.07
   2   5  -7    3.88    0.17
  -2  -5   7    3.75    0.17
  -2  -5   7    3.96    0.17
  -2  -5   7    3.41    0.21
  -2  -5   7    4.02    0.19
  -1  -5   7    2.01    0.12
  -1  -5   7    1.73    0.16
  -1  -5   7    1.96    0.12
  -1  -5   7    1.89    0.13
   0  -5   7   22.98    0.75
   0  -5   7   23.95    0.76
   0  -5   7   22.98    0.74
   0  -5   7   23.25    0.74
   0  -5   7   22.88    0.79
   1  -5   7    4.77    0.20
   1  -5   7    5.03    0.22
   1  -5   7    4.91    0.20
   1  -5   7    4.82    0.21
   2  -5   7   14.74    0.49
   2  -5   7   13.88    0.53
   2  -5   7   14.76    0.48
   2  -5   7   14.15    0.48
   2  -5   7   14.61    0.48
   3  -5   7    1.00    0.08
   3  -5   7    0.91    0.09
   3  -5   7    0.90    0.10
   3  -5   7    1.02    0.09
   3  -5   7    0.94    0.13
   4  -5   7    1.83    0.10
   4  -5   7    1.69    0.10
   4  -5   7    1.67    0.10
   4  -5   7    1.79    0.15
   4  -5   7    1.76    0.10
   5  -5   7    2.41    0.11
   5  -5   7    2.64    0.11
  -4  -4   7    2.82    0.13
  -4  -4   7    3.01    0.14
  -4  -4   7    2.98    0.13
  -3  -4   7    2.26    0.14
  -3  -4   7    2.04    0.18
  -3  -4   7    2.11    0.12
  -3  -4   7    2.22    0.13
  -2  -4   7    0.00    0.05
  -2  -4   7    0.08    0.06
  -2  -4   7   -0.10    0.07
  -2  -4   7   -0.01    0.07
  -2  -4   7   -0.02    0.05
  -1  -4   7   23.68    0.73
  -1  -4   7   23.63    0.72
  -1  -4   7   19.12    0.76
  -1  -4   7   23.57    0.74
   0  -4   7    1.66    0.11
   0  -4   7    1.64    0.11
   0  -4   7    1.46    0.14
   0  -4   7    1.55    0.13
   0  -4   7    1.55    0.11
   1  -4   7    1.94    0.11
   1  -4   7    1.96    0.12
   1  -4   7    1.85    0.13
   1  -4   7    1.92    0.16
   1  -4   7    2.08    0.12
   2  -4   7   12.02    0.41
   2  -4   7   11.63    0.42
   2  -4   7   11.70    0.40
   2  -4   7   11.41    0.40
   2  -4   7   12.30    0.45
   2  -4   7   11.78    0.41
   3  -4   7    9.27    0.32
   3  -4   7    9.27    0.33
   3  -4   7    9.18    0.32
   3  -4   7    9.20    0.34
   3  -4   7    8.93    0.32
   3  -4   7    8.89    0.37
  -4   4  -7    2.07    0.11
   4  -4   7    1.72    0.10
   4  -4   7    2.09    0.11
   4  -4   7    2.00    0.11
   4  -4   7    1.81    0.12
   4  -4   7    1.90    0.12
   4  -4   7    1.98    0.16
  -5   4  -7    7.30    0.25
   5  -4   7    7.43    0.25
   5  -4   7    7.01    0.26
   5  -4   7    7.32    0.25
  -6   4  -7    0.65    0.05
   6  -4   7    0.66    0.05
   5   3  -7    0.99    0.07
  -5  -3   7    0.94    0.06
  -4  -3   7    5.77    0.22
  -4  -3   7    5.78    0.23
  -4  -3   7    5.62    0.28
  -4  -3   7    5.95    0.22
  -3  -3   7    0.80    0.14
  -3  -3   7    0.61    0.11
  -3  -3   7    0.73    0.10
  -3  -3   7    0.63    0.09
  -2  -3   7   14.46    0.49
  -2  -3   7   14.31    0.48
  -2  -3   7   14.25    0.50
  -2  -3   7   13.74    0.52
  -2  -3   7   13.82    0.47
  -1  -3   7    1.72    0.13
  -1  -3   7    1.70    0.14
  -1  -3   7    1.49    0.12
  -1  -3   7    1.50    0.11
   0   3  -7    8.45    0.38
   0  -3   7    9.68    0.35
   0  -3   7    9.54    0.33
   0  -3   7    9.67    0.43
   0  -3   7    9.85    0.38
   0  -3   7    9.63    0.34
   0  -3   7    9.39    0.33
  -1   3  -7    0.04    0.09
   1  -3   7   -0.03    0.06
   1  -3   7    0.02    0.06
   1  -3   7    0.07    0.06
   1  -3   7    0.03    0.05
   1  -3   7    0.08    0.05
   1  -3   7    0.01    0.05
   2  -3   7   19.40    0.64
   2  -3   7   19.97    0.66
   2  -3   7   20.06    0.64
   2  -3   7   20.23    0.64
   2  -3   7   19.58    0.64
   2  -3   7   20.21    0.68
   3  -3   7    7.18    0.31
   3  -3   7    7.02    0.27
   3  -3   7    7.18    0.26
   3  -3   7    7.11    0.28
   3  -3   7    7.20    0.27
   3  -3   7    7.00    0.27
   4  -3   7    2.02    0.12
   4  -3   7    2.22    0.12
   4  -3   7    1.89    0.17
   4  -3   7    2.09    0.12
   4  -3   7    2.09    0.13
  -5   3  -7    0.72    0.07
   5  -3   7    0.54    0.06
   5  -3   7    0.81    0.08
   5  -3   7    0.75    0.07
   5  -3   7    0.59    0.07
  -6   3  -7    1.62    0.08
   6  -3   7    1.69    0.08
   6  -3   7    1.70    0.09
   5   2  -7    3.11    0.14
  -5  -2   7    3.04    0.12
  -4  -2   7    3.47    0.16
  -4  -2   7    3.06    0.21
  -4  -2   7    3.62    0.16
  -4  -2   7    3.75    0.18
  -3  -2   7    7.59    0.30
  -3  -2   7    7.33    0.33
  -3  -2   7    7.27    0.28
  -3  -2   7    7.46    0.28
  -2  -2   7    3.25    0.20
  -2  -2   7    3.21    0.17
  -2  -2   7    3.13    0.16
  -2  -2   7    3.53    0.19
   1   2  -7   41.45    1.29
  -1  -2   7   40.79    1.26
  -1  -2   7   38.88    1.25
  -1  -2   7   40.09    1.32
  -1  -2   7   41.08    1.28
  -1  -2   7   41.47    1.30
   0   2  -7   19.39    0.63
   0  -2   7   17.99    0.61
   0  -2   7   18.42    0.64
   0  -2   7   18.89    0.60
   0  -2   7   18.70    0.62
   0  -2   7   17.91    0.60
   0  -2   7   19.12    0.65
  -1   2  -7    2.65    0.16
   1  -2   7    2.51    0.14
   1  -2   7    2.32    0.14
   1  -2   7    2.42    0.15
   1  -2   7    2.18    0.18
   1  -2   7    2.38    0.15
   1  -2   7    2.72    0.16
   1  -2   7    2.59    0.14
   2  -2   7    0.09    0.05
   2  -2   7    0.10    0.07
   2  -2   7    0.14    0.06
   2  -2   7    0.12    0.06
   2  -2   7    0.27    0.07
   2  -2   7    0.14    0.05
   3  -2   7   -0.04    0.05
   3  -2   7    0.03    0.04
   3  -2   7    0.04    0.07
   3  -2   7    0.05    0.07
   3  -2   7    0.06    0.06
   3  -2   7    0.06    0.05
   4  -2   7    0.94    0.09
   4  -2   7    1.08    0.11
   4  -2   7    0.92    0.16
   4  -2   7    0.91    0.09
   4  -2   7    1.08    0.09
   5  -2   7    0.03    0.04
   5  -2   7    0.06    0.05
   5  -2   7    0.10    0.04
   5  -2   7    0.04    0.04
  -6   2  -7    5.74    0.20
   6  -2   7    5.77    0.21
   6  -2   7    5.44    0.20
   6  -2   7    5.53    0.20
   6  -2   7    5.38    0.20
   5   1  -7    4.21    0.18
  -5  -1   7    4.25    0.16
  -5  -1   7    4.08    0.17
  -4  -1   7    1.32    0.12
  -4  -1   7    1.43    0.10
  -4  -1   7    1.29    0.10
  -4  -1   7    1.36    0.15
  -3  -1   7    0.57    0.11
  -3  -1   7    0.60    0.10
  -3  -1   7    0.88    0.10
  -3  -1   7    0.52    0.13
   2   1  -7    0.18    0.11
  -2  -1   7    0.31    0.07
  -2  -1   7    0.27    0.06
  -2  -1   7    0.45    0.09
  -2  -1   7    0.14    0.07
  -2  -1   7    0.13    0.07
   1   1  -7   48.44    1.45
  -1  -1   7   44.53    1.43
  -1  -1   7   47.45    1.43
  -1  -1   7   45.75    1.48
  -1  -1   7   46.52    1.43
  -1  -1   7   46.29    1.44
  -1  -1   7   45.78    1.46
   0   1  -7   21.53    0.68
   0  -1   7   20.10    0.69
   0  -1   7   20.11    0.67
   0  -1   7   20.68    0.66
   0  -1   7   20.74    0.68
   0  -1   7   21.24    0.69
  -1   1  -7    1.18    0.09
   1  -1   7    1.13    0.11
   1  -1   7    1.03    0.12
   1  -1   7    1.20    0.10
   1  -1   7    1.04    0.11
   1  -1   7    1.11    0.10
   2  -1   7   11.71    0.40
   2  -1   7   10.67    0.39
   2  -1   7   11.50    0.40
   2  -1   7   11.60    0.41
   2  -1   7   11.65    0.39
   2  -1   7   11.43    0.39
   3  -1   7   25.73    0.82
   3  -1   7   26.13    0.82
   3  -1   7   26.04    0.83
   3  -1   7   25.96    0.82
   3  -1   7   25.58    0.83
   3  -1   7   25.14    0.84
   4  -1   7   87.47    2.65
   4  -1   7   86.16    2.65
   4  -1   7   90.21    2.66
   4  -1   7   86.56    2.66
   4  -1   7   85.82    2.65
   5  -1   7    0.26    0.05
   5  -1   7    0.13    0.05
   5  -1   7    0.31    0.07
   5  -1   7    0.15    0.05
   6  -1   7    3.21    0.13
   6  -1   7    3.08    0.13
   6  -1   7    3.01    0.14
   6  -1   7    3.10    0.13
   5   0  -7    8.00    0.29
  -5   0   7    7.82    0.27
  -5   0   7    7.89    0.28
  -5   0   7    8.09    0.28
   4   0  -7    8.06    0.31
  -4   0   7    7.71    0.34
  -4   0   7    8.46    0.30
  -4   0   7    8.28    0.31
  -4   0   7    8.10    0.30
  -4   0   7    8.00    0.32
  -3   0   7    7.52    0.32
  -3   0   7    6.49    0.28
  -3   0   7    6.73    0.26
  -3   0   7    6.94    0.27
   2   0  -7    1.34    0.15
  -2   0   7    1.62    0.13
  -2   0   7    1.71    0.11
  -2   0   7    1.60    0.14
  -2   0   7    1.41    0.15
  -2   0   7    1.69    0.13
   1   0  -7    0.42    0.09
  -1   0   7    0.49    0.09
  -1   0   7    0.64    0.11
  -1   0   7    0.62    0.12
  -1   0   7    0.63    0.10
   0   0  -7   54.31    1.69
   0   0   7   55.25    1.71
   0   0   7   56.25    1.71
   1   0   7   11.64    0.40
   2   0   7    1.17    0.11
   2   0   7    1.29    0.11
   2   0   7    1.35    0.13
   3   0   7   14.03    0.49
   3   0   7   14.76    0.51
   3   0   7   15.48    0.49
   3   0   7   14.80    0.52
   3   0   7   14.34    0.48
   3   0   7   14.81    0.50
   3   0   7   14.12    0.51
   4   0   7   21.71    0.70
   4   0   7   20.92    0.70
   4   0   7   21.72    0.71
   4   0   7   21.58    0.70
   4   0   7   22.68    0.71
   5   0   7    0.64    0.09
   5   0   7    0.57    0.09
   5   0   7    0.71    0.09
   5   0   7    0.85    0.09
   5   0   7    0.60    0.10
   6   0   7    6.08    0.23
   6   0   7    6.47    0.23
   6   0   7    6.27    0.23
   6   0   7    6.18    0.23
  -7   0  -7    0.02    0.02
   7   0   7    0.00    0.02
  -5   1   7    0.37    0.06
  -5   1   7    0.35    0.07
  -5   1   7    0.39    0.07
   4  -1  -7    0.36    0.11
  -4   1   7    0.31    0.06
  -4   1   7    0.34    0.11
  -4   1   7    0.41    0.07
  -4   1   7    0.39    0.10
  -4   1   7    0.58    0.10
  -3   1   7    0.06    0.07
  -3   1   7    0.11    0.06
  -3   1   7    0.05    0.05
  -3   1   7    0.10    0.07
  -3   1   7    0.13    0.07
   2  -1  -7    0.32    0.09
  -2   1   7    0.39    0.07
  -2   1   7    0.39    0.10
  -2   1   7    0.40    0.11
  -2   1   7    0.27    0.06
  -2   1   7    0.35    0.11
  -2   1   7    0.37    0.10
   1  -1  -7   34.00    1.08
  -1   1   7   35.24    1.11
   0  -1  -7    1.25    0.09
   0   1   7    1.33    0.11
   1   1   7   82.35    2.51
   2   1   7    3.99    0.20
   3   1   7   15.99    0.52
   3   1   7   15.24    0.53
   3   1   7   16.07    0.54
   3   1   7   14.85    0.53
   3   1   7   15.71    0.52
   3   1   7   15.69    0.52
   4   1   7    2.00    0.13
   4   1   7    1.87    0.12
   4   1   7    2.03    0.15
   4   1   7    1.76    0.15
   4   1   7    1.99    0.13
   5   1   7    8.36    0.30
   5   1   7    8.15    0.30
   5   1   7    8.31    0.30
   5   1   7    8.19    0.32
   5   1   7    8.22    0.31
  -6  -1  -7    4.79    0.20
   6   1   7    5.06    0.19
   6   1   7    4.71    0.19
   6   1   7    4.67    0.19
   6   1   7    4.32    0.19
   7   1   7    0.27    0.04
   5  -2  -7    0.06    0.07
  -5   2   7   -0.05    0.04
  -5   2   7   -0.03    0.04
  -5   2   7   -0.04    0.03
  -4   2   7    0.37    0.08
  -4   2   7    0.48    0.09
  -4   2   7    0.38    0.07
  -3   2   7   20.94    0.70
  -3   2   7   21.70    0.69
  -3   2   7   21.29    0.74
  -3   2   7   21.55    0.69
  -3   2   7   20.80    0.69
  -2   2   7    0.43    0.11
  -2   2   7    0.41    0.09
  -2   2   7    0.32    0.08
  -2   2   7    0.47    0.09
  -2   2   7    0.34    0.07
   1  -2  -7    3.43    0.15
  -1   2   7    3.73    0.18
   0  -2  -7    0.05    0.03
   0   2   7    0.02    0.05
  -1  -2  -7    7.24    0.26
   1   2   7    6.72    0.27
  -2  -2  -7   28.44    0.98
   2   2   7   32.89    0.96
   3   2   7    0.51    0.11
   3   2   7    0.56    0.11
   3   2   7    0.51    0.10
   3   2   7    0.71    0.10
   3   2   7    0.65    0.12
   4   2   7    2.50    0.15
   4   2   7    2.31    0.16
   4   2   7    2.34    0.14
   4   2   7    2.42    0.16
   4   2   7    2.32    0.14
   5   2   7    4.70    0.22
   5   2   7    4.72    0.20
   5   2   7    4.54    0.20
   5   2   7    4.76    0.20
  -6  -2  -7    2.00    0.12
   6   2   7    2.02    0.12
   6   2   7    2.03    0.11
   6   2   7    2.00    0.12
   6   2   7    2.08    0.12
  -7  -2  -7    0.20    0.06
   7   2   7    0.19    0.04
   7   2   7    0.07    0.05
   5  -3  -7    4.40    0.22
  -5   3   7    4.47    0.18
  -5   3   7    4.38    0.17
  -5   3   7    4.39    0.17
  -4   3   7    0.42    0.08
  -4   3   7    0.56    0.09
  -4   3   7    0.40    0.09
  -3   3   7    2.37    0.17
  -3   3   7    2.56    0.14
  -3   3   7    2.34    0.14
  -3   3   7    2.23    0.16
  -3   3   7    2.34    0.13
   2  -3  -7    7.26    0.32
  -2   3   7    7.08    0.27
  -2   3   7    7.43    0.31
  -2   3   7    7.17    0.27
  -2   3   7    7.11    0.28
  -2   3   7    7.12    0.30
   1  -3  -7   -0.01    0.04
   1  -3  -7    0.04    0.04
  -1   3   7    0.06    0.06
   0  -3  -7   39.77    1.23
   0  -3  -7   40.20    1.27
   0   3   7   41.37    1.27
  -1  -3  -7    1.67    0.10
  -2  -3  -7   22.86    0.72
   2   3   7   22.75    0.72
   3   3   7    0.18    0.08
   3   3   7   -0.01    0.06
   3   3   7    0.03    0.08
   3   3   7    0.01    0.08
   3   3   7    0.01    0.06
   3   3   7   -0.06    0.06
   4   3   7    5.02    0.22
   4   3   7    5.41    0.24
   4   3   7    5.14    0.23
   4   3   7    5.10    0.22
   4   3   7    5.16    0.22
   5   3   7    0.16    0.05
   5   3   7    0.28    0.07
   5   3   7    0.54    0.10
   5   3   7    0.37    0.09
   6   3   7    0.13    0.05
   6   3   7    0.01    0.04
   6   3   7    0.11    0.05
   6   3   7    0.16    0.05
  -7  -3  -7   -0.01    0.03
   7   3   7    0.01    0.03
   7   3   7   -0.03    0.04
   5  -4  -7    1.19    0.12
   5  -4  -7    1.06    0.08
  -5   4   7    1.00    0.08
  -5   4   7    0.96    0.08
  -4   4   7    1.09    0.09
  -4   4   7    1.07    0.09
  -4   4   7    1.25    0.10
  -3   4   7    0.50    0.09
  -3   4   7    0.45    0.09
  -3   4   7    0.59    0.09
   2  -4  -7    0.11    0.08
  -2   4   7    0.23    0.07
  -2   4   7    0.27    0.10
  -2   4   7    0.25    0.06
  -2   4   7    0.15    0.06
  -2   4   7    0.15    0.11
   1  -4  -7    4.98    0.22
  -1   4   7    4.66    0.20
  -1   4   7    5.01    0.22
  -1   4   7    4.55    0.21
   0  -4  -7    1.13    0.10
   0   4   7    1.21    0.13
  -1  -4  -7    1.62    0.11
  -2  -4  -7    7.04    0.26
   2   4   7    6.59    0.25
   3   4   7    0.26    0.07
   3   4   7    0.12    0.06
   3   4   7    0.29    0.08
   3   4   7    0.24    0.09
   3   4   7    0.39    0.10
   3   4   7    0.30    0.09
   4   4   7    4.44    0.20
   4   4   7    4.56    0.21
   4   4   7    4.11    0.21
   4   4   7    4.60    0.20
   4   4   7    4.30    0.23
   5   4   7   22.30    0.72
   5   4   7   21.52    0.71
   5   4   7   22.25    0.73
   5   4   7   21.62    0.72
   5   4   7   21.55    0.71
   6   4   7   11.01    0.36
   6   4   7    9.37    0.37
   6   4   7   10.72    0.36
   6   4   7   10.75    0.36
  -7  -4  -7    3.32    0.13
   7   4   7    3.22    0.13
   7   4   7    3.40    0.13
   5  -5  -7    2.08    0.14
   5  -5  -7    1.95    0.11
  -5   5   7    1.94    0.10
  -5   5   7    1.96    0.11
   4  -5  -7    1.14    0.11
   4  -5  -7    0.97    0.12
  -4   5   7    1.13    0.09
  -4   5   7    1.28    0.09
  -4   5   7    1.00    0.10
  -3   5   7   14.81    0.49
  -3   5   7   14.57    0.49
  -3   5   7   14.32    0.49
  -3   5   7   14.42    0.49
   2  -5  -7    2.18    0.21
  -2   5   7    2.35    0.13
  -2   5   7    2.20    0.14
  -2   5   7    2.13    0.15
  -2   5   7    2.26    0.14
   1  -5  -7    1.38    0.14
  -1   5   7    1.34    0.12
  -1   5   7    1.25    0.13
  -1   5   7    1.42    0.12
  -1   5   7    1.19    0.14
   0  -5  -7   31.85    0.96
   0   5   7   28.50    0.93
   0   5   7   28.55    0.93
  -1  -5  -7    0.10    0.05
  -2  -5  -7    8.79    0.33
   2   5   7    8.92    0.33
   2   5   7    8.25    0.34
   2   5   7    8.42    0.35
   2   5   7    9.07    0.33
   3   5   7    3.68    0.20
   3   5   7    3.91    0.21
   3   5   7    4.04    0.20
   3   5   7    3.95    0.20
   3   5   7    3.87    0.22
   3   5   7    4.00    0.19
   4   5   7   -0.03    0.07
   4   5   7    0.12    0.06
   4   5   7    0.03    0.06
   4   5   7    0.08    0.07
   4   5   7    0.00    0.08
   5   5   7    1.59    0.15
   5   5   7    1.91    0.12
   5   5   7    1.73    0.13
   5   5   7    1.79    0.12
   5   5   7    2.04    0.13
   6   5   7    1.61    0.10
   6   5   7    1.43    0.10
   6   5   7    1.61    0.11
   6   5   7    1.46    0.11
  -7  -5  -7    0.44    0.05
   7   5   7    0.55    0.06
   7   5   7    0.39    0.05
   5  -6  -7    1.82    0.13
   5  -6  -7    1.64    0.10
  -5   6   7    1.78    0.09
   4  -6  -7    0.91    0.12
   4  -6  -7    0.89    0.11
  -4   6   7    1.00    0.10
  -4   6   7    1.04    0.10
  -4   6   7    0.91    0.09
   3  -6  -7    0.27    0.11
   3  -6  -7    0.03    0.09
  -3   6   7    0.15    0.05
  -3   6   7    0.18    0.06
  -3   6   7    0.20    0.06
  -3   6   7    0.32    0.08
  -2   6   7    0.15    0.06
  -2   6   7    0.10    0.05
  -2   6   7    0.10    0.06
  -2   6   7    0.12    0.06
   1  -6  -7   18.60    0.68
  -1   6   7   18.76    0.62
  -1   6   7   19.78    0.62
  -1   6   7   18.66    0.62
  -1   6   7   18.60    0.62
   0  -6  -7   22.64    0.75
   0   6   7   20.71    0.72
   0   6   7   21.83    0.71
   0   6   7   22.47    0.71
   0   6   7   22.45    0.72
  -1  -6  -7   14.09    0.51
   1   6   7   14.53    0.49
   1   6   7   14.76    0.50
   1   6   7   14.62    0.50
   1   6   7   14.55    0.50
  -2  -6  -7   12.00    0.44
   2   6   7   11.49    0.42
   2   6   7   11.92    0.42
   2   6   7   12.62    0.44
   2   6   7   11.64    0.41
   2   6   7   11.38    0.42
   3   6   7    0.18    0.06
   3   6   7    0.06    0.06
   3   6   7    0.11    0.08
   3   6   7    0.03    0.06
   3   6   7    0.06    0.09
   4   6   7    0.51    0.13
   4   6   7    0.57    0.11
   4   6   7    0.52    0.12
   4   6   7    0.49    0.08
   4   6   7    0.66    0.10
  -5  -6  -7    4.20    0.22
   5   6   7    4.16    0.19
   5   6   7    4.13    0.20
   5   6   7    3.89    0.19
   5   6   7    4.21    0.19
   5   6   7    4.24    0.21
   6   6   7    7.57    0.27
   6   6   7    7.41    0.26
   6   6   7    7.29    0.26
   6   6   7    7.31    0.26
   5  -7  -7    3.24    0.12
  -5   7   7    3.33    0.13
   4  -7  -7    4.56    0.22
  -4   7   7    4.76    0.19
  -4   7   7    4.60    0.18
  -4   7   7    4.52    0.18
   3  -7  -7    5.10    0.25
  -3   7   7    5.40    0.22
  -3   7   7    5.45    0.22
  -3   7   7    5.32    0.22
   2  -7  -7    6.39    0.28
  -2   7   7    6.50    0.25
  -2   7   7    6.35    0.25
  -2   7   7    6.23    0.25
  -2   7   7    6.14    0.24
   1  -7  -7    5.88    0.26
  -1   7   7    5.43    0.23
  -1   7   7    5.45    0.23
  -1   7   7    5.52    0.23
  -1   7   7    5.54    0.23
   0  -7  -7   21.91    0.82
   0   7   7   24.12    0.78
   0   7   7   24.69    0.77
   0   7   7   24.20    0.77
   0   7   7   24.39    0.77
  -1  -7  -7    0.21    0.10
   1   7   7    0.25    0.07
   1   7   7    0.33    0.08
   1   7   7    0.39    0.08
   1   7   7    0.22    0.07
   2   7   7    0.25    0.08
   2   7   7    0.40    0.11
   2   7   7    0.06    0.07
   2   7   7    0.17    0.08
   2   7   7    0.35    0.09
   3   7   7   20.87    0.66
   3   7   7   20.07    0.67
   3   7   7   20.23    0.67
   3   7   7   19.70    0.67
   3   7   7   19.46    0.68
   4   7   7    0.20    0.07
   4   7   7    0.33    0.09
   4   7   7    0.34    0.08
   4   7   7    0.16    0.07
  -5  -7  -7    0.22    0.08
   5   7   7    0.40    0.11
   5   7   7    0.55    0.10
   5   7   7    0.33    0.09
   5   7   7    0.52    0.08
   5   7   7    0.45    0.10
   6   7   7    0.79    0.09
   6   7   7    0.78    0.09
   6   7   7    0.74    0.07
   6   7   7    0.86    0.08
   4  -8  -7    2.24    0.14
  -4   8   7    2.19    0.10
  -4   8   7    2.05    0.11
   3  -8  -7    0.40    0.11
  -3   8   7    0.51    0.10
  -3   8   7    0.69    0.08
  -3   8   7    0.70    0.08
   2  -8  -7    0.21    0.08
  -2   8   7    0.24    0.06
  -2   8   7    0.31    0.08
  -2   8   7    0.32    0.08
   1  -8  -7    3.13    0.19
  -1   8   7    2.92    0.16
  -1   8   7    2.99    0.19
  -1   8   7    3.12    0.16
  -1   8   7    3.16    0.16
   0   8   7    7.06    0.28
   0   8   7    7.11    0.28
   0   8   7    6.78    0.28
   0   8   7    7.35    0.28
   1   8   7    1.44    0.12
   1   8   7    1.07    0.12
   1   8   7    1.14    0.12
   1   8   7    1.37    0.12
   2   8   7    4.69    0.21
   2   8   7    4.81    0.22
   2   8   7    4.07    0.22
   2   8   7    4.52    0.21
   2   8   7    4.55    0.21
   3   8   7   23.75    0.77
   3   8   7   23.37    0.78
   3   8   7   23.44    0.75
   3   8   7   23.58    0.77
   3   8   7   22.96    0.77
   4   8   7    0.37    0.09
   4   8   7    0.41    0.08
   4   8   7    0.26    0.07
   4   8   7    0.27    0.09
  -5  -8  -7    0.37    0.09
   5   8   7    0.26    0.07
   5   8   7    0.33    0.07
   5   8   7    0.32    0.08
   6   8   7    3.27    0.13
   4  -9  -7    5.60    0.20
   4  -9  -7    6.69    0.28
  -4   9   7    5.81    0.21
  -4   9   7    5.93    0.21
   3  -9  -7    1.09    0.13
  -3   9   7    1.07    0.10
  -3   9   7    1.22    0.09
  -3   9   7    1.22    0.09
   2  -9  -7   11.38    0.43
  -2   9   7   11.90    0.41
  -2   9   7   11.79    0.41
  -2   9   7   11.88    0.40
  -1   9   7    7.02    0.27
  -1   9   7    6.38    0.26
  -1   9   7    6.51    0.27
  -1   9   7    6.87    0.26
   0   9   7    1.46    0.12
   0   9   7    1.50    0.12
   0   9   7    1.32    0.12
   0   9   7    1.32    0.12
   1   9   7    4.92    0.22
   1   9   7    5.07    0.22
   1   9   7    4.79    0.22
   1   9   7    4.99    0.22
   2   9   7    5.41    0.23
   2   9   7    5.07    0.24
   2   9   7    5.19    0.23
   2   9   7    5.59    0.23
   2   9   7    5.17    0.23
   3   9   7    0.36    0.08
   3   9   7    0.56    0.12
   3   9   7    0.45    0.09
   3   9   7    0.36    0.08
   4   9   7    3.24    0.16
   4   9   7    3.42    0.17
   4   9   7    3.14    0.15
  -5  -9  -7    0.26    0.07
   5   9   7    0.19    0.06
   5   9   7    0.09    0.05
   3 -10  -7    2.89    0.12
   3 -10  -7    2.85    0.19
  -3  10   7    3.14    0.13
  -3  10   7    2.98    0.13
   2 -10  -7    4.80    0.18
   2 -10  -7    4.95    0.29
  -2  10   7    5.05    0.20
  -2  10   7    4.84    0.20
  -2  10   7    4.93    0.20
   1 -10  -7   10.23    0.35
  -1  10   7   10.30    0.37
  -1  10   7   11.03    0.37
  -1  10   7   10.59    0.37
  -1  10   7   10.27    0.37
   0  10   7    1.14    0.11
   0  10   7    1.27    0.11
   0  10   7    1.31    0.11
   0  10   7    1.21    0.11
   1  10   7    0.48    0.10
   1  10   7    0.77    0.10
   1  10   7    0.44    0.10
   1  10   7    0.77    0.10
   2  10   7    4.82    0.21
   2  10   7    4.78    0.20
   2  10   7    4.67    0.21
   2  10   7    4.66    0.22
   2  10   7    4.71    0.21
   3  10   7    1.61    0.13
   3  10   7    1.74    0.12
   3  10   7    1.69    0.12
   3  10   7    1.45    0.10
   4  10   7    0.89    0.08
   4  10   7    0.83    0.12
   4  10   7    0.98    0.08
   4  10   7    0.97    0.09
  -5 -10  -7    0.76    0.07
   5  10   7    0.87    0.07
   5  10   7    0.66    0.05
   3 -11  -7    4.75    0.16
  -3  11   7    4.99    0.17
   2 -11  -7    0.01    0.04
  -2  11   7    0.04    0.03
  -2  11   7   -0.01    0.05
  -1  11   7    6.56    0.24
  -1  11   7    6.78    0.25
  -1  11   7    6.72    0.25
  -1  11   7    6.90    0.25
   0  11   7    0.32    0.08
   0  11   7    0.38    0.08
   0  11   7    0.43    0.08
   0  11   7    0.20    0.06
   1  11   7    1.06    0.11
   1  11   7    1.24    0.11
   1  11   7    1.13    0.10
   1  11   7    0.96    0.10
   2  11   7   16.31    0.54
   2  11   7   16.38    0.53
   2  11   7   16.16    0.54
   3  11   7    0.70    0.08
   3  11   7    0.63    0.08
   3  11   7    0.99    0.12
   3  11   7    0.71    0.08
  -4 -11  -7    0.05    0.03
   4  11   7    0.22    0.05
   4  11   7    0.11    0.04
  -2  12   7   -0.01    0.03
  -1  12   7    3.30    0.14
  -1  12   7    3.27    0.14
   0  12   7    2.06    0.11
   0  12   7    2.12    0.11
   1  12   7    0.21    0.06
   1  12   7    0.26    0.07
   2  12   7    3.19    0.16
   2  12   7    3.64    0.15
  -3 -12  -7    2.20    0.10
   3  12   7    2.38    0.10
   1  13   7    0.34    0.05
   1   7  -8    3.43    0.13
  -1  -7   8    3.17    0.12
  -1  -7   8    3.15    0.14
   0  -7   8    1.13    0.08
   0  -7   8    1.16    0.07
   0  -7   8    1.24    0.13
   0  -7   8    1.11    0.07
   1  -7   8    3.02    0.13
   1  -7   8    3.07    0.13
   1  -7   8    2.97    0.12
   1  -7   8    3.21    0.18
  -2   7  -8    0.10    0.04
   2  -7   8    0.06    0.04
   2  -7   8    0.07    0.03
   2  -7   8    0.06    0.04
   2  -7   8    0.03    0.07
  -3   7  -8    6.12    0.20
   3  -7   8    5.76    0.20
   3  -7   8    5.92    0.20
   2   6  -8    5.45    0.19
  -2  -6   8    5.29    0.26
  -2  -6   8    5.44    0.19
  -2  -6   8    5.22    0.20
  -1  -6   8    0.25    0.08
  -1  -6   8    0.40    0.06
  -1  -6   8    0.32    0.06
  -1  -6   8    0.46    0.08
   0  -6   8    9.28    0.36
   0  -6   8    9.46    0.33
   0  -6   8    9.01    0.32
   0  -6   8    9.08    0.31
   1  -6   8    0.14    0.04
   1  -6   8    0.16    0.07
   1  -6   8    0.10    0.04
   1  -6   8    0.30    0.08
   1  -6   8    0.15    0.04
  -2   6  -8    0.04    0.04
   2  -6   8    0.02    0.03
   2  -6   8    0.03    0.04
   2  -6   8    0.03    0.04
   2  -6   8    0.04    0.03
   2  -6   8   -0.05    0.06
   3  -6   8    2.55    0.11
   3  -6   8    2.62    0.12
   3  -6   8    2.65    0.11
   3  -6   8    2.77    0.17
   3  -6   8    2.51    0.11
  -4   6  -8    0.02    0.02
   4  -6   8    0.03    0.03
   4  -6   8   -0.14    0.06
  -3  -5   8    3.97    0.15
  -3  -5   8    4.01    0.16
   2   5  -8    0.81    0.09
  -2  -5   8    0.75    0.07
  -2  -5   8    0.64    0.13
  -2  -5   8    0.79    0.09
  -2  -5   8    0.84    0.08
  -1  -5   8    1.14    0.09
  -1  -5   8    1.02    0.09
  -1  -5   8    1.11    0.13
  -1  -5   8    0.94    0.10
   0  -5   8   12.34    0.42
   0  -5   8   11.95    0.46
   0  -5   8   12.19    0.43
   0  -5   8   12.23    0.41
   0  -5   8   12.13    0.41
   1  -5   8    1.71    0.11
   1  -5   8    1.63    0.10
   1  -5   8    1.73    0.12
   1  -5   8    1.70    0.11
   1  -5   8    1.59    0.14
   2  -5   8   -0.03    0.04
   2  -5   8    0.11    0.05
   2  -5   8    0.00    0.05
   2  -5   8   -0.03    0.04
   2  -5   8    0.01    0.06
   3  -5   8    3.09    0.14
   3  -5   8    3.03    0.13
   3  -5   8    3.01    0.18
   3  -5   8    2.95    0.14
   3  -5   8    2.93    0.13
   4  -5   8    1.34    0.08
   4  -5   8    1.35    0.09
   4  -5   8    1.19    0.15
   4  -5   8    1.34    0.07
   4  -5   8    1.25    0.08
   5  -5   8    0.87    0.06
   4   4  -8    1.99    0.10
  -4  -4   8    2.07    0.09
  -3  -4   8   14.26    0.52
  -3  -4   8   14.50    0.46
  -3  -4   8   14.55    0.48
  -3  -4   8   14.45    0.47
   2   4  -8    1.52    0.12
  -2  -4   8    1.56    0.10
  -2  -4   8    1.50    0.15
  -2  -4   8    1.62    0.11
  -2  -4   8    1.64    0.12
  -1  -4   8   -0.01    0.06
  -1  -4   8    0.01    0.06
  -1  -4   8    0.09    0.05
  -1  -4   8   -0.02    0.04
   0  -4   8    7.16    0.26
   0  -4   8    6.44    0.30
   0  -4   8    7.12    0.28
   0  -4   8    6.73    0.26
   0  -4   8    6.94    0.26
   1  -4   8    8.90    0.31
   1  -4   8    8.62    0.31
   1  -4   8    8.68    0.33
   1  -4   8    8.72    0.32
   1  -4   8    8.51    0.36
   2  -4   8   11.57    0.38
   2  -4   8   11.38    0.38
   2  -4   8   10.92    0.40
   2  -4   8   10.35    0.42
   2  -4   8   11.46    0.39
   3  -4   8    0.04    0.04
   3  -4   8    0.02    0.05
   3  -4   8    0.13    0.08
   3  -4   8    0.03    0.04
   3  -4   8   -0.02    0.05
   3  -4   8    0.07    0.04
   4  -4   8    2.16    0.17
   4  -4   8    2.42    0.11
   4  -4   8    2.41    0.12
   4  -4   8    2.28    0.12
   4  -4   8    2.45    0.12
   5  -4   8    0.35    0.05
   5  -4   8    0.32    0.05
   5  -4   8    0.31    0.05
   4   3  -8    1.06    0.09
  -4  -3   8    1.07    0.08
  -4  -3   8    1.17    0.08
  -4  -3   8    1.23    0.08
  -3  -3   8   11.14    0.38
  -3  -3   8   11.18    0.44
  -3  -3   8   11.82    0.41
  -3  -3   8   11.38    0.39
  -2  -3   8   10.60    0.38
  -2  -3   8   10.96    0.38
  -2  -3   8   10.81    0.37
  -2  -3   8   10.60    0.39
  -1  -3   8    0.08    0.06
  -1  -3   8   -0.07    0.04
  -1  -3   8    0.14    0.07
  -1  -3   8    0.04    0.05
   0  -3   8    8.76    0.34
   0  -3   8    9.08    0.37
   0  -3   8    8.77    0.32
   0  -3   8    8.82    0.32
   0  -3   8    9.11    0.32
   1  -3   8    0.70    0.10
   1  -3   8    0.59    0.09
   1  -3   8    0.55    0.09
   1  -3   8    0.51    0.08
   1  -3   8    0.54    0.11
   2  -3   8    1.93    0.11
   2  -3   8    1.65    0.16
   2  -3   8    1.92    0.12
   2  -3   8    1.85    0.11
   2  -3   8    2.00    0.12
   2  -3   8    1.84    0.13
   3  -3   8   18.33    0.66
   3  -3   8   18.82    0.61
   3  -3   8   18.95    0.62
   3  -3   8   19.80    0.62
   3  -3   8   18.89    0.62
   3  -3   8   19.17    0.63
  -4   3  -8    0.53    0.09
   4  -3   8    0.61    0.08
   4  -3   8    0.56    0.07
   4  -3   8    0.45    0.16
   4  -3   8    0.69    0.07
   4  -3   8    0.50    0.08
  -5   3  -8    0.18    0.05
   5  -3   8    0.17    0.04
   5  -3   8    0.11    0.04
   5  -3   8    0.14    0.04
   5  -3   8    0.18    0.05
  -6   3  -8    8.34    0.27
   6  -3   8    8.47    0.27
  -5  -2   8   -0.05    0.02
   4   2  -8    0.39    0.08
  -4  -2   8    0.31    0.10
  -4  -2   8    0.24    0.07
  -4  -2   8    0.29    0.08
  -4  -2   8    0.37    0.06
  -3  -2   8   18.45    0.58
  -3  -2   8   16.82    0.63
  -3  -2   8   17.77    0.60
  -3  -2   8   17.59    0.58
  -2  -2   8    0.21    0.06
  -2  -2   8    0.14    0.06
  -2  -2   8    0.24    0.06
  -2  -2   8    0.19    0.07
  -2  -2   8    0.12    0.08
  -1  -2   8    1.20    0.13
  -1  -2   8    1.33    0.13
  -1  -2   8    1.54    0.14
  -1  -2   8    1.34    0.10
  -1  -2   8    1.52    0.12
   0  -2   8    3.86    0.21
   0  -2   8    3.93    0.18
   0  -2   8    3.61    0.17
   0  -2   8    3.73    0.17
   0  -2   8    3.66    0.19
   1  -2   8   22.16    0.73
   1  -2   8   23.31    0.76
   1  -2   8   22.89    0.72
   1  -2   8   22.12    0.72
   1  -2   8   22.19    0.72
   2  -2   8    6.56    0.28
   2  -2   8    5.77    0.23
   2  -2   8    5.81    0.23
   2  -2   8    6.06    0.25
   2  -2   8    5.85    0.23
   2  -2   8    5.90    0.23
   3  -2   8   35.02    1.11
   3  -2   8   38.06    1.15
   3  -2   8   35.29    1.10
   3  -2   8   35.03    1.11
   3  -2   8   35.10    1.11
   3  -2   8   34.44    1.12
   4  -2   8    1.79    0.11
   4  -2   8    1.97    0.12
   4  -2   8    1.39    0.26
   4  -2   8    1.92    0.12
   4  -2   8    1.79    0.11
   5  -2   8    0.10    0.04
   5  -2   8    0.10    0.04
   5  -2   8    0.11    0.04
   5  -2   8    0.13    0.04
  -6   2  -8    4.68    0.17
   6  -2   8    4.63    0.17
   6  -2   8    4.79    0.18
   6  -2   8    4.70    0.17
  -5  -1   8    0.22    0.04
   4   1  -8    0.07    0.06
  -4  -1   8    0.10    0.04
  -4  -1   8    0.01    0.05
  -4  -1   8    0.34    0.12
  -4  -1   8    0.06    0.04
  -3  -1   8    2.25    0.15
  -3  -1   8    2.17    0.17
  -3  -1   8    2.23    0.13
  -3  -1   8    2.41    0.13
  -2  -1   8    4.74    0.20
  -2  -1   8    4.64    0.21
  -2  -1   8    4.68    0.22
  -2  -1   8    4.66    0.20
  -2  -1   8    4.69    0.24
  -1  -1   8    3.45    0.16
  -1  -1   8    3.77    0.17
  -1  -1   8    3.52    0.18
  -1  -1   8    3.29    0.19
  -1  -1   8    3.65    0.20
   0   1  -8   13.23    0.49
   0  -1   8   13.96    0.47
   0  -1   8   14.43    0.50
   0  -1   8   13.86    0.53
   0  -1   8   13.73    0.46
   0  -1   8   13.45    0.46
   0  -1   8   14.54    0.48
  -1   1  -8    8.75    0.33
   1  -1   8    8.20    0.33
   1  -1   8    8.57    0.32
   1  -1   8    8.55    0.31
   1  -1   8    8.34    0.31
   1  -1   8    8.30    0.30
   2  -1   8   13.66    0.47
   2  -1   8   13.61    0.49
   2  -1   8   13.53    0.46
   2  -1   8   13.97    0.46
   2  -1   8   13.24    0.46
   3  -1   8    5.81    0.23
   3  -1   8    6.19    0.28
   3  -1   8    5.97    0.24
   3  -1   8    5.98    0.24
   3  -1   8    5.90    0.26
   3  -1   8    5.77    0.24
   4  -1   8    5.06    0.21
   4  -1   8    4.89    0.20
   4  -1   8    5.05    0.22
   4  -1   8    4.98    0.21
   4  -1   8    5.18    0.21
   5  -1   8    0.16    0.05
   5  -1   8    0.27    0.07
   5  -1   8    0.12    0.04
   5  -1   8    0.16    0.05
   6  -1   8    1.20    0.08
   6  -1   8    1.29    0.07
   6  -1   8    1.19    0.07
   6  -1   8    1.27    0.07
  -5   0   8    2.68    0.11
  -5   0   8    2.72    0.11
   4   0  -8    0.59    0.12
  -4   0   8    0.61    0.08
  -4   0   8    0.61    0.07
  -4   0   8    0.66    0.10
  -4   0   8    0.55    0.12
  -3   0   8   12.83    0.45
  -3   0   8   12.60    0.43
  -3   0   8   11.86    0.47
  -3   0   8   12.60    0.43
  -2   0   8    1.99    0.15
  -2   0   8    2.22    0.13
  -2   0   8    1.83    0.15
  -2   0   8    2.22    0.16
  -2   0   8    2.06    0.13
   1   0  -8   28.27    0.95
  -1   0   8   28.93    0.92
  -1   0   8   30.54    0.96
  -1   0   8   28.60    0.93
  -1   0   8   29.31    0.92
  -1   0   8   30.06    0.94
   0   0  -8   28.07    0.89
   0   0   8   27.87    0.87
   0   0   8   27.28    0.88
   0   0   8   24.96    0.87
   0   0   8   28.91    0.89
   0   0   8   29.58    0.91
  -1   0  -8    1.81    0.13
   1   0   8    2.07    0.14
   1   0   8    1.85    0.13
   1   0   8    1.89    0.14
   1   0   8    1.89    0.13
   1   0   8    2.01    0.15
   2   0   8    0.47    0.09
   2   0   8    0.47    0.09
   2   0   8    0.44    0.11
   2   0   8    0.62    0.09
   2   0   8    0.46    0.11
   3   0   8   23.43    0.78
   3   0   8   23.90    0.77
   3   0   8   24.61    0.76
   3   0   8   23.86    0.77
   3   0   8   23.39    0.76
   4   0   8    0.48    0.08
   4   0   8    0.39    0.10
   4   0   8    0.35    0.07
   4   0   8    0.36    0.08
   4   0   8    0.38    0.08
   5   0   8    5.18    0.21
   5   0   8    5.08    0.20
   5   0   8    5.23    0.22
   5   0   8    5.19    0.21
   5   0   8    5.02    0.20
   6   0   8    2.77    0.12
   6   0   8    2.81    0.13
   6   0   8    2.88    0.12
   6   0   8    2.77    0.12
   5  -1  -8    0.79    0.15
  -5   1   8    0.81    0.08
  -5   1   8    0.83    0.07
  -5   1   8    0.81    0.06
  -4   1   8    4.28    0.18
  -4   1   8    4.00    0.19
  -4   1   8    4.33    0.20
  -4   1   8    4.54    0.18
  -3   1   8    3.10    0.18
  -3   1   8    3.09    0.15
  -3   1   8    3.32    0.16
  -3   1   8    3.00    0.19
  -3   1   8    3.20    0.17
  -2   1   8    5.79    0.27
  -2   1   8    5.79    0.25
  -2   1   8    5.10    0.25
  -2   1   8    5.49    0.22
  -2   1   8    5.53    0.23
   1  -1  -8   17.89    0.61
  -1   1   8   18.13    0.60
  -1   1   8   19.81    0.64
  -1   1   8   17.09    0.60
  -1   1   8   18.87    0.61
  -1   1   8   18.34    0.60
   0  -1  -8   12.48    0.42
   0   1   8   12.52    0.44
   0   1   8   11.61    0.41
   0   1   8   12.12    0.43
  -1  -1  -8    9.47    0.34
   1   1   8    9.48    0.35
   2   1   8    1.28    0.14
   2   1   8    1.05    0.14
   2   1   8    1.21    0.11
   2   1   8    1.29    0.13
   2   1   8    0.74    0.19
   2   1   8    1.20    0.11
   3   1   8    1.30    0.11
   3   1   8    1.26    0.13
   3   1   8    1.39    0.12
   3   1   8    1.25    0.11
   3   1   8    0.98    0.15
   4   1   8   -0.03    0.04
   4   1   8    0.02    0.05
   4   1   8   -0.02    0.05
   4   1   8    0.03    0.06
   4   1   8    0.18    0.07
   5   1   8   10.62    0.37
   5   1   8   10.30    0.37
   5   1   8   10.30    0.38
   5   1   8   10.57    0.37
   5   1   8   10.47    0.36
   6   1   8    0.09    0.03
   6   1   8    0.07    0.04
   6   1   8    0.09    0.08
   6   1   8    0.08    0.03
   7   1   8    1.62    0.07
   5  -2  -8    0.46    0.12
  -5   2   8    0.56    0.05
  -5   2   8    0.51    0.07
  -5   2   8    0.52    0.06
  -4   2   8   27.31    0.86
  -4   2   8   27.20    0.86
  -4   2   8   26.94    0.86
  -3   2   8    1.44    0.13
  -3   2   8    1.25    0.12
  -3   2   8    1.46    0.10
  -3   2   8    1.54    0.11
  -3   2   8    1.19    0.14
  -2   2   8    2.64    0.18
  -2   2   8    2.33    0.14
  -2   2   8    2.73    0.17
  -2   2   8    2.52    0.17
  -2   2   8    2.46    0.14
   1  -2  -8    0.82    0.12
  -1   2   8    0.79    0.11
  -1   2   8    0.75    0.11
  -1   2   8    0.84    0.16
  -1   2   8    0.72    0.14
  -1   2   8    0.79    0.11
   0  -2  -8   87.14    2.68
   0   2   8   90.17    2.71
  -1  -2  -8    0.12    0.06
  -1  -2  -8    0.10    0.05
   1   2   8    0.07    0.07
   2   2   8    0.39    0.11
   2   2   8    0.47    0.12
   2   2   8    0.36    0.08
   2   2   8    0.30    0.11
   3   2   8   14.37    0.51
   3   2   8   14.50    0.50
   3   2   8   14.75    0.49
   3   2   8   15.02    0.52
   3   2   8   14.90    0.49
   4   2   8   14.05    0.48
   4   2   8   14.85    0.48
   4   2   8   14.18    0.48
   4   2   8   12.16    0.48
   4   2   8   15.08    0.50
   5   2   8   46.97    1.46
   5   2   8   47.09    1.48
   5   2   8   46.37    1.46
   5   2   8   48.87    1.46
  -6  -2  -8    0.64    0.09
   6   2   8    0.68    0.07
   6   2   8    0.60    0.07
   6   2   8    0.62    0.07
   6   2   8    0.70    0.07
   7   2   8    4.30    0.15
   7   2   8    4.00    0.15
   5  -3  -8    0.73    0.12
   5  -3  -8    0.75    0.07
  -5   3   8    0.87    0.06
  -5   3   8    0.73    0.06
  -5   3   8    0.73    0.07
  -4   3   8    8.18    0.29
  -4   3   8    7.75    0.29
  -4   3   8    8.11    0.29
  -3   3   8    2.93    0.15
  -3   3   8    2.74    0.18
  -3   3   8    2.91    0.17
  -3   3   8    3.04    0.15
  -3   3   8    2.90    0.16
  -2   3   8    7.74    0.29
  -2   3   8    7.75    0.31
  -2   3   8    8.00    0.33
  -2   3   8    7.49    0.29
  -2   3   8    7.82    0.30
   1  -3  -8    0.09    0.07
  -1   3   8   -0.11    0.07
  -1   3   8    0.06    0.06
  -1   3   8    0.10    0.07
  -1   3   8    0.08    0.06
  -1   3   8    0.19    0.10
   0  -3  -8    4.85    0.22
   0  -3  -8    5.13    0.20
   0   3   8    4.99    0.23
  -1  -3  -8    8.31    0.29
  -1  -3  -8    7.99    0.31
   1   3   8    8.44    0.32
   2   3   8   14.04    0.49
   2   3   8   13.48    0.47
   2   3   8   13.28    0.46
   3   3   8    3.50    0.20
   3   3   8    3.18    0.19
   3   3   8    3.09    0.17
   3   3   8    3.14    0.16
   3   3   8    3.25    0.17
   3   3   8    3.02    0.19
   4   3   8    3.67    0.18
   4   3   8    3.50    0.17
   4   3   8    3.56    0.19
   4   3   8    3.47    0.17
   4   3   8    3.55    0.19
   5   3   8   17.70    0.58
   5   3   8   17.60    0.60
   5   3   8   17.36    0.58
   5   3   8   17.56    0.58
  -6  -3  -8    2.61    0.13
   6   3   8    2.57    0.12
   6   3   8    2.49    0.13
   6   3   8    2.48    0.12
   6   3   8    2.64    0.13
  -7  -3  -8    1.71    0.09
   7   3   8    1.62    0.08
   7   3   8    1.66    0.08
   5  -4  -8    0.38    0.06
   5  -4  -8    0.39    0.11
  -5   4   8    0.36    0.06
  -5   4   8    0.31    0.05
  -4   4   8    1.31    0.10
  -4   4   8    1.29    0.10
  -4   4   8    1.48    0.10
  -3   4   8    4.34    0.19
  -3   4   8    4.31    0.19
  -3   4   8    4.09    0.19
  -2   4   8    2.31    0.14
  -2   4   8    2.27    0.16
  -2   4   8    2.32    0.18
  -2   4   8    2.21    0.13
  -2   4   8    2.25    0.14
   1  -4  -8    1.32    0.15
  -1   4   8    1.00    0.10
  -1   4   8    0.87    0.12
  -1   4   8    1.07    0.12
  -1   4   8    1.07    0.11
   0  -4  -8    3.91    0.20
   0   4   8    3.78    0.19
   0   4   8    4.13    0.21
   0   4   8    3.94    0.19
  -1  -4  -8   14.08    0.46
  -1  -4  -8   13.28    0.46
   1   4   8   12.11    0.45
   1   4   8   11.89    0.46
   2   4   8   32.76    1.04
   2   4   8   31.96    1.03
   2   4   8   33.05    1.04
   2   4   8   33.19    1.05
   3   4   8    2.27    0.16
   3   4   8    2.23    0.15
   3   4   8    2.23    0.18
   3   4   8    2.34    0.14
   3   4   8    2.30    0.17
   3   4   8    2.28    0.16
   4   4   8   11.09    0.40
   4   4   8   11.13    0.39
   4   4   8   11.22    0.42
   4   4   8   10.99    0.39
   4   4   8   11.74    0.40
   5   4   8    0.04    0.04
   5   4   8    0.17    0.06
   5   4   8    0.09    0.06
   5   4   8    0.07    0.05
   6   4   8    1.75    0.10
   6   4   8    1.50    0.11
   6   4   8    1.66    0.10
   6   4   8    1.61    0.10
  -7  -4  -8    1.61    0.08
   7   4   8    1.64    0.08
   7   4   8    1.57    0.07
   5  -5  -8    0.71    0.07
   5  -5  -8    0.50    0.11
  -5   5   8    0.52    0.05
  -5   5   8    0.66    0.06
   4  -5  -8    0.80    0.10
   4  -5  -8    0.80    0.11
  -4   5   8    0.76    0.08
  -4   5   8    0.80    0.08
  -4   5   8    0.84    0.07
  -3   5   8    0.56    0.08
  -3   5   8    0.55    0.08
  -3   5   8    0.62    0.08
  -2   5   8    5.70    0.25
  -2   5   8    5.70    0.23
  -2   5   8    5.78    0.24
  -2   5   8    6.00    0.23
   1  -5  -8    0.88    0.17
  -1   5   8    0.78    0.10
  -1   5   8    0.80    0.10
  -1   5   8    0.63    0.13
  -1   5   8    0.76    0.11
   0  -5  -8   13.91    0.51
   0   5   8   14.04    0.49
   0   5   8   13.92    0.47
   0   5   8   13.48    0.47
   0   5   8   13.87    0.48
  -1  -5  -8    0.46    0.11
   1   5   8    0.43    0.12
   1   5   8    0.45    0.12
   1   5   8    0.54    0.14
   1   5   8    0.71    0.15
   2   5   8    0.44    0.11
   2   5   8    0.46    0.12
   2   5   8    0.43    0.13
   2   5   8    0.41    0.11
   2   5   8    0.48    0.12
   3   5   8   31.70    1.00
   3   5   8   31.51    1.01
   3   5   8   30.87    1.01
   3   5   8   32.20    1.01
   3   5   8   32.15    1.03
   4   5   8    0.18    0.07
   4   5   8    0.17    0.06
   4   5   8    0.17    0.08
   4   5   8    0.26    0.08
   4   5   8    0.10    0.06
   5   5   8    3.64    0.17
   5   5   8    3.78    0.18
   5   5   8    3.76    0.17
   5   5   8    3.69    0.20
   5   5   8    3.81    0.19
   6   5   8   -0.01    0.03
   6   5   8    0.02    0.04
   6   5   8   -0.05    0.04
   6   5   8   -0.02    0.04
  -5   6   8    0.98    0.06
  -5   6   8    1.09    0.09
   4  -6  -8    1.77    0.14
   4  -6  -8    1.75    0.12
  -4   6   8    1.79    0.10
  -4   6   8    1.75    0.10
   3  -6  -8    0.01    0.06
  -3   6   8   -0.01    0.04
  -3   6   8    0.03    0.05
  -3   6   8    0.08    0.07
  -3   6   8    0.04    0.05
  -2   6   8    4.71    0.20
  -2   6   8    4.05    0.20
  -2   6   8    4.42    0.19
  -2   6   8    4.38    0.19
  -1   6   8    8.35    0.31
  -1   6   8    8.12    0.30
  -1   6   8    8.04    0.30
  -1   6   8    7.98    0.31
   0  -6  -8    0.56    0.15
   0   6   8    0.59    0.12
   0   6   8    0.60    0.10
   0   6   8    0.58    0.10
   0   6   8    0.70    0.17
  -1  -6  -8    8.95    0.38
   1   6   8    9.49    0.35
   1   6   8    9.80    0.36
   1   6   8    9.81    0.36
   1   6   8    9.59    0.35
   2   6   8    1.14    0.12
   2   6   8    0.89    0.13
   2   6   8    0.68    0.13
   2   6   8    0.94    0.13
   2   6   8    1.09    0.13
   3   6   8    2.86    0.18
   3   6   8    2.33    0.15
   3   6   8    2.90    0.18
   3   6   8    2.97    0.17
   3   6   8    2.87    0.17
   4   6   8    0.31    0.09
   4   6   8    0.37    0.08
   4   6   8    0.54    0.12
   4   6   8    0.44    0.10
   5   6   8    0.73    0.10
   5   6   8    0.65    0.10
   5   6   8    0.71    0.08
   5   6   8    0.70    0.11
   5   6   8    0.68    0.09
   6   6   8    0.24    0.05
   6   6   8    0.25    0.07
   6   6   8    0.12    0.05
   6   6   8    0.32    0.05
   4  -7  -8    5.32    0.23
  -4   7   8    5.10    0.19
  -4   7   8    5.19    0.20
  -4   7   8    5.08    0.20
   3  -7  -8    6.41    0.29
  -3   7   8    6.99    0.26
  -3   7   8    7.12    0.26
  -3   7   8    6.73    0.26
   2  -7  -8    0.68    0.13
  -2   7   8    0.72    0.10
  -2   7   8    0.77    0.09
  -2   7   8    0.82    0.09
  -2   7   8    0.67    0.10
   1  -7  -8    1.36    0.15
  -1   7   8    1.49    0.12
  -1   7   8    1.28    0.12
  -1   7   8    1.45    0.11
  -1   7   8    1.34    0.12
   0   7   8    3.74    0.18
   0   7   8    3.58    0.17
   0   7   8    3.53    0.18
   0   7   8    3.32    0.20
  -1  -7  -8   11.57    0.50
   1   7   8   12.39    0.45
   1   7   8   12.74    0.44
   1   7   8   12.51    0.44
   1   7   8   13.04    0.44
   2   7   8    0.10    0.05
   2   7   8    0.05    0.06
   2   7   8    0.01    0.07
   2   7   8    0.07    0.07
   2   7   8   -0.10    0.07
   3   7   8   11.12    0.42
   3   7   8   11.60    0.41
   3   7   8   11.59    0.43
   3   7   8   11.86    0.40
   3   7   8   11.26    0.41
   4   7   8    0.54    0.12
   4   7   8    0.72    0.10
   4   7   8    0.70    0.10
   4   7   8    0.56    0.09
  -5  -7  -8    0.15    0.08
   5   7   8    0.38    0.08
   5   7   8    0.20    0.06
   5   7   8    0.17    0.05
   5   7   8    0.21    0.07
   6   7   8    4.29    0.16
   6   7   8    4.18    0.16
   6   7   8    4.29    0.17
   4  -8  -8    1.63    0.13
  -4   8   8    1.48    0.08
  -4   8   8    1.44    0.09
  -4   8   8    1.77    0.10
   3  -8  -8    0.16    0.07
  -3   8   8    0.08    0.04
  -3   8   8    0.02    0.04
  -3   8   8    0.06    0.05
   2  -8  -8    3.27    0.19
  -2   8   8    3.42    0.17
  -2   8   8    3.27    0.16
  -2   8   8    3.54    0.17
   1  -8  -8    0.13    0.10
  -1   8   8    0.19    0.07
  -1   8   8    0.06    0.05
  -1   8   8    0.23    0.06
   0   8   8    3.85    0.18
   0   8   8    3.63    0.20
   0   8   8    3.67    0.19
   0   8   8    3.81    0.18
   1   8   8    3.79    0.19
   1   8   8    3.91    0.19
   1   8   8    3.63    0.19
   1   8   8    3.47    0.18
   2   8   8    1.11    0.12
   2   8   8    1.12    0.11
   2   8   8    1.10    0.13
   2   8   8    0.99    0.12
   2   8   8    1.40    0.14
   3   8   8    1.68    0.13
   3   8   8    1.77    0.14
   3   8   8    1.63    0.13
   3   8   8    1.68    0.15
   3   8   8    1.75    0.13
   4   8   8    8.83    0.33
   4   8   8    8.46    0.34
   4   8   8    9.36    0.32
   4   8   8    8.79    0.33
  -5  -8  -8    0.20    0.06
   5   8   8    0.14    0.04
   5   8   8    0.09    0.05
   5   8   8    0.07    0.06
   5   8   8    0.17    0.04
   6   8   8    2.70    0.14
   6   8   8    2.33    0.10
   4  -9  -8    0.86    0.05
  -4   9   8    1.03    0.06
  -4   9   8    0.98    0.07
   3  -9  -8    3.11    0.18
  -3   9   8    3.14    0.14
  -3   9   8    3.00    0.13
  -3   9   8    3.17    0.14
   2  -9  -8    3.19    0.20
  -2   9   8    3.49    0.16
  -2   9   8    3.56    0.16
  -2   9   8    3.65    0.16
  -1   9   8    1.67    0.12
  -1   9   8    1.53    0.12
  -1   9   8    1.43    0.15
  -1   9   8    1.55    0.12
   0   9   8   13.66    0.46
   0   9   8   13.82    0.47
   0   9   8   13.40    0.47
   0   9   8   12.39    0.45
   1   9   8   10.98    0.40
   1   9   8   10.98    0.40
   1   9   8   11.27    0.41
   1   9   8   11.12    0.40
   2   9   8    2.08    0.15
   2   9   8    1.85    0.15
   2   9   8    1.73    0.13
   2   9   8    1.83    0.13
   2   9   8    1.83    0.13
   3   9   8    2.27    0.14
   3   9   8    2.36    0.14
   3   9   8    2.20    0.15
   3   9   8    2.25    0.14
   3   9   8    2.39    0.14
   4   9   8    3.04    0.15
   4   9   8    2.67    0.14
   4   9   8    2.98    0.14
   4   9   8    2.96    0.16
  -5  -9  -8   -0.02    0.04
   5   9   8    0.01    0.04
   5   9   8    0.00    0.05
   5   9   8    0.03    0.03
   3 -10  -8    3.28    0.12
  -3  10   8    3.14    0.13
  -3  10   8    3.25    0.13
   2 -10  -8    0.33    0.06
  -2  10   8    0.26    0.08
  -2  10   8    0.30    0.06
  -2  10   8    0.25    0.06
   1 -10  -8    4.34    0.18
  -1  10   8    4.18    0.19
  -1  10   8    4.76    0.20
  -1  10   8    4.53    0.19
  -1  10   8    4.45    0.19
   0  10   8    1.98    0.13
   0  10   8    2.20    0.13
   0  10   8    2.17    0.13
   0  10   8    1.94    0.13
   1  10   8    3.66    0.18
   1  10   8    3.43    0.17
   1  10   8    3.44    0.18
   1  10   8    3.72    0.18
   2  10   8   -0.02    0.05
   2  10   8   -0.04    0.05
   2  10   8   -0.01    0.05
   2  10   8    0.00    0.06
   3  10   8    2.31    0.15
   3  10   8    2.55    0.13
   3  10   8    2.52    0.14
   3  10   8    2.42    0.13
   4  10   8    1.37    0.09
   4  10   8    1.63    0.09
   4  10   8    1.41    0.09
   4  10   8    1.29    0.11
  -5 -10  -8    1.62    0.09
   5  10   8    1.46    0.08
   5  10   8    1.65    0.08
   2 -11  -8    1.34    0.08
  -2  11   8    1.39    0.11
  -2  11   8    1.28    0.08
  -2  11   8    1.31    0.08
  -1  11   8    0.22    0.05
  -1  11   8    0.22    0.06
  -1  11   8    0.24    0.07
  -1  11   8    0.11    0.04
   0  11   8    2.98    0.14
   0  11   8    2.78    0.14
   0  11   8    2.92    0.14
   0  11   8    2.75    0.13
   1  11   8    4.07    0.17
   1  11   8    3.76    0.17
   1  11   8    3.86    0.17
   1  11   8    3.88    0.17
   2  11   8    1.10    0.09
   2  11   8    1.10    0.09
   2  11   8    1.15    0.11
   2  11   8    1.19    0.09
   3  11   8    0.60    0.07
   3  11   8    0.59    0.09
   3  11   8    0.43    0.07
   3  11   8    0.63    0.08
  -4 -11  -8    5.98    0.22
   4  11   8    6.28    0.22
   4  11   8    6.34    0.21
  -1  12   8    0.69    0.06
   0  12   8    2.18    0.11
   0  12   8    2.23    0.11
   0  12   8    2.05    0.11
   0  12   8    2.07    0.10
   1  12   8    0.07    0.04
   1  12   8   -0.02    0.05
   1  12   8    0.09    0.05
   2  12   8    1.45    0.08
   2  12   8    1.51    0.10
   2  12   8    1.36    0.10
   3  12   8    4.08    0.15
   1  -7   9    4.30    0.16
   1  -7   9    4.35    0.15
   1   6  -9    0.80    0.07
  -1  -6   9    0.77    0.06
  -1  -6   9    0.83    0.06
  -1  -6   9    0.92    0.16
  -1  -6   9    0.79    0.07
   0  -6   9    0.24    0.06
   0  -6   9    0.28    0.08
   0  -6   9    0.24    0.05
   0  -6   9    0.23    0.05
   1  -6   9    1.07    0.07
   1  -6   9    1.14    0.08
   1  -6   9    1.16    0.12
   1  -6   9    1.14    0.07
  -2   6  -9    1.12    0.12
   2  -6   9    1.16    0.08
   2  -6   9    0.95    0.07
   2  -6   9    0.99    0.12
   2  -6   9    1.08    0.07
  -3   6  -9    0.01    0.03
   3  -6   9    0.08    0.04
   3  -6   9   -0.01    0.03
   3  -6   9    0.00    0.03
  -2  -5   9    0.13    0.09
  -2  -5   9    0.05    0.04
  -2  -5   9    0.05    0.03
  -1  -5   9    0.95    0.08
  -1  -5   9    0.98    0.07
  -1  -5   9    0.93    0.12
  -1  -5   9    0.93    0.08
   0  -5   9    3.95    0.17
   0  -5   9    4.07    0.17
   0  -5   9    3.92    0.21
   0  -5   9    3.94    0.16
   1  -5   9    0.43    0.06
   1  -5   9    0.51    0.07
   1  -5   9    0.53    0.11
   1  -5   9    0.48    0.06
   1  -5   9    0.46    0.07
   2  -5   9    0.31    0.06
   2  -5   9    0.33    0.07
   2  -5   9    0.27    0.10
   2  -5   9    0.35    0.06
   2  -5   9    0.29    0.05
   3  -5   9    0.13    0.04
   3  -5   9    0.16    0.04
   3  -5   9    0.16    0.04
   3  -5   9    0.18    0.08
   3  -5   9    0.19    0.05
   4  -5   9    3.83    0.14
   4  -5   9    4.07    0.15
   4  -5   9    4.05    0.15
  -3  -4   9    1.16    0.08
  -3  -4   9    1.16    0.07
  -2  -4   9    3.53    0.15
  -2  -4   9    3.79    0.17
  -2  -4   9    3.60    0.16
  -2  -4   9    3.82    0.20
  -1  -4   9    5.87    0.28
  -1  -4   9    6.20    0.23
  -1  -4   9    6.58    0.25
  -1  -4   9    6.33    0.24
   0  -4   9    4.01    0.16
   0  -4   9    4.01    0.17
   0  -4   9    3.93    0.17
   0  -4   9    3.85    0.18
   0  -4   9    3.75    0.21
   1  -4   9    4.20    0.18
   1  -4   9    4.56    0.20
   1  -4   9    4.34    0.18
   1  -4   9    4.36    0.18
   1  -4   9    4.04    0.22
   2  -4   9    0.38    0.11
   2  -4   9    0.36    0.08
   2  -4   9    0.23    0.07
   2  -4   9    0.53    0.07
   3  -4   9    0.52    0.08
   3  -4   9    0.55    0.12
   3  -4   9    0.55    0.07
   3  -4   9    0.47    0.06
   3  -4   9    0.46    0.07
   4  -4   9    4.62    0.18
   4  -4   9    4.77    0.18
   4  -4   9    4.57    0.17
   5  -4   9    0.01    0.03
   5  -4   9    0.08    0.03
   5  -4   9    0.06    0.03
   4   3  -9    0.72    0.07
  -4  -3   9    0.77    0.06
  -3  -3   9   14.27    0.46
  -3  -3   9   14.13    0.46
  -3  -3   9   14.40    0.51
  -3  -3   9   14.72    0.48
  -2  -3   9   21.61    0.70
  -2  -3   9   22.17    0.70
  -2  -3   9   20.01    0.73
  -2  -3   9   22.35    0.69
  -1  -3   9    8.43    0.31
  -1  -3   9    8.65    0.31
  -1  -3   9    8.35    0.36
  -1  -3   9    8.72    0.33
   0  -3   9    8.07    0.29
   0  -3   9    7.65    0.29
   0  -3   9    7.93    0.28
   0  -3   9    7.89    0.31
   0  -3   9    7.67    0.33
   1  -3   9    9.28    0.33
   1  -3   9    8.33    0.36
   1  -3   9    9.00    0.34
   1  -3   9    9.12    0.32
   1  -3   9    8.89    0.31
   2  -3   9    0.47    0.11
   2  -3   9    0.51    0.08
   2  -3   9    0.42    0.09
   2  -3   9    0.48    0.09
   2  -3   9    0.55    0.08
   2  -3   9    0.48    0.08
   3  -3   9    0.05    0.05
   3  -3   9    0.04    0.05
   3  -3   9    0.13    0.06
   3  -3   9    0.07    0.04
   3  -3   9    0.05    0.08
   3  -3   9    0.12    0.04
   4  -3   9    7.35    0.26
   4  -3   9    7.31    0.26
   4  -3   9    7.56    0.27
   4  -3   9    7.73    0.28
   5  -3   9    0.15    0.04
   5  -3   9    0.08    0.04
   5  -3   9    0.11    0.03
   4   2  -9    0.08    0.05
  -4  -2   9    0.08    0.04
  -4  -2   9    0.04    0.03
  -4  -2   9    0.04    0.04
  -3  -2   9    6.19    0.23
  -3  -2   9    6.14    0.25
  -3  -2   9    6.38    0.28
  -3  -2   9    6.20    0.23
  -2  -2   9    4.40    0.23
  -2  -2   9    4.69    0.21
  -2  -2   9    4.65    0.20
  -2  -2   9    4.50    0.19
  -2  -2   9    4.57    0.20
  -1  -2   9    0.27    0.07
  -1  -2   9    0.09    0.06
  -1  -2   9    0.09    0.07
  -1  -2   9    0.08    0.05
   0  -2   9    0.12    0.06
   0  -2   9    0.23    0.07
   0  -2   9    0.12    0.05
   0  -2   9    0.14    0.07
   0  -2   9    0.11    0.06
   1  -2   9   14.57    0.51
   1  -2   9   14.32    0.49
   1  -2   9   14.65    0.49
   1  -2   9   14.71    0.49
   1  -2   9   15.11    0.54
   2  -2   9    2.14    0.13
   2  -2   9    2.34    0.14
   2  -2   9    2.18    0.12
   2  -2   9    2.17    0.12
   2  -2   9    2.07    0.16
   2  -2   9    2.21    0.13
   3  -2   9    1.54    0.12
   3  -2   9    1.68    0.11
   3  -2   9    1.36    0.10
   3  -2   9    1.51    0.13
   3  -2   9    1.47    0.10
   3  -2   9    1.33    0.15
   4  -2   9    1.87    0.12
   4  -2   9    1.95    0.11
   4  -2   9    1.81    0.11
   4  -2   9    1.87    0.10
  -5   2  -9    0.05    0.04
   5  -2   9    0.04    0.03
   5  -2   9    0.01    0.04
   5  -2   9   -0.02    0.03
   5  -2   9   -0.01    0.03
  -6   2  -9    0.86    0.06
   6  -2   9    0.86    0.05
   6  -2   9    0.79    0.06
   6  -2   9    0.90    0.07
   4   1  -9    0.08    0.05
  -4  -1   9    0.05    0.04
  -4  -1   9    0.07    0.04
  -4  -1   9    0.04    0.03
  -3  -1   9    1.86    0.11
  -3  -1   9    2.04    0.13
  -3  -1   9    1.88    0.11
  -3  -1   9    1.62    0.15
  -2  -1   9   34.21    1.19
  -2  -1   9   36.93    1.16
  -2  -1   9   37.36    1.14
  -2  -1   9   36.96    1.15
  -2  -1   9   37.66    1.14
  -1  -1   9    1.09    0.13
  -1  -1   9    1.09    0.11
  -1  -1   9    1.14    0.10
  -1  -1   9    1.03    0.12
   0  -1   9    0.18    0.07
   0  -1   9    0.11    0.05
   0  -1   9    0.16    0.07
   0  -1   9    0.00    0.06
   0  -1   9    0.09    0.05
   1  -1   9   19.79    0.64
   1  -1   9   20.56    0.68
   1  -1   9   19.18    0.63
   1  -1   9   18.86    0.63
   1  -1   9   19.70    0.65
   2  -1   9    6.52    0.29
   2  -1   9    6.41    0.25
   2  -1   9    6.71    0.25
   2  -1   9    6.45    0.25
   2  -1   9    6.71    0.25
   2  -1   9    6.75    0.27
   3  -1   9    4.95    0.25
   3  -1   9    5.17    0.21
   3  -1   9    5.16    0.21
   3  -1   9    4.89    0.21
   3  -1   9    4.93    0.22
   4  -1   9    0.08    0.04
   4  -1   9    0.10    0.05
   4  -1   9    0.14    0.05
   4  -1   9    0.11    0.04
   5  -1   9    5.98    0.22
   5  -1   9    6.16    0.22
   5  -1   9    6.10    0.23
   5  -1   9    6.25    0.23
  -6   1  -9    0.00    0.02
   6  -1   9    0.01    0.02
   6  -1   9    0.09    0.05
   6  -1   9    0.00    0.02
   6  -1   9    0.01    0.03
  -4   0   9    1.14    0.09
  -4   0   9    1.19    0.08
  -4   0   9    1.19    0.08
  -3   0   9    1.10    0.11
  -3   0   9    1.09    0.09
  -3   0   9    0.95    0.13
  -3   0   9    0.92    0.09
  -2   0   9   23.02    0.73
  -2   0   9   22.47    0.74
  -2   0   9   22.82    0.72
  -2   0   9   21.58    0.78
  -2   0   9   22.89    0.73
  -1   0   9    3.78    0.21
  -1   0   9    3.80    0.17
  -1   0   9    3.49    0.19
  -1   0   9    3.59    0.18
  -1   0   9    3.62    0.18
   0   0  -9    0.09    0.11
   0   0   9    0.33    0.08
   0   0   9    0.24    0.06
   0   0   9    0.27    0.10
   0   0   9    0.31    0.07
   0   0   9    0.25    0.07
  -1   0  -9    1.71    0.18
   1   0   9    1.76    0.12
   1   0   9    2.03    0.15
   1   0   9    1.82    0.13
   1   0   9    1.68    0.13
   1   0   9    1.93    0.14
   2   0   9    1.71    0.14
   2   0   9    1.70    0.12
   2   0   9    1.69    0.14
   2   0   9    1.80    0.13
   2   0   9    1.64    0.12
   2   0   9    1.96    0.16
   3   0   9    5.63    0.23
   3   0   9    6.00    0.23
   3   0   9    5.41    0.25
   3   0   9    5.85    0.23
   3   0   9    5.80    0.24
   4   0   9   20.52    0.67
   4   0   9   20.51    0.67
   4   0   9   21.14    0.68
   4   0   9   21.16    0.68
   5   0   9    0.53    0.07
   5   0   9    0.56    0.07
   5   0   9    0.61    0.09
   5   0   9    0.61    0.07
   6   0   9    2.20    0.10
   6   0   9    2.15    0.10
   6   0   9    2.24    0.10
   6   0   9    2.05    0.11
  -5   1   9    9.58    0.31
  -5   1   9    9.30    0.30
  -4   1   9    0.61    0.07
  -4   1   9    0.59    0.07
  -3   1   9    0.34    0.10
  -3   1   9    0.17    0.07
  -3   1   9    0.19    0.05
  -2   1   9   28.11    0.96
  -2   1   9   29.29    0.90
  -2   1   9   28.78    0.92
  -2   1   9   27.50    0.90
  -2   1   9   29.04    0.90
  -1   1   9    0.51    0.12
  -1   1   9    0.33    0.10
  -1   1   9    0.49    0.09
  -1   1   9    0.48    0.11
  -1   1   9    0.59    0.11
   0  -1  -9   20.87    0.74
   0   1   9   23.52    0.71
   0   1   9   22.43    0.73
   0   1   9   21.78    0.72
   0   1   9   22.93    0.75
  -1  -1  -9   15.40    0.55
   1   1   9   15.97    0.53
   1   1   9   16.10    0.53
   1   1   9   16.54    0.53
   1   1   9   15.92    0.54
   1   1   9   16.48    0.56
   2   1   9   24.11    0.81
   2   1   9   24.92    0.79
   2   1   9   24.78    0.80
   2   1   9   25.30    0.79
   2   1   9   24.38    0.79
   3   1   9    3.88    0.21
   3   1   9    4.92    0.20
   3   1   9    5.06    0.20
   3   1   9    4.19    0.23
   3   1   9    4.77    0.20
   4   1   9   21.02    0.67
   4   1   9   21.21    0.68
   4   1   9   20.88    0.67
   4   1   9   20.71    0.68
   4   1   9   19.90    0.68
   5   1   9    0.12    0.04
   5   1   9   -0.02    0.06
   5   1   9    0.03    0.04
   5   1   9   -0.05    0.05
   5   1   9    0.06    0.04
   6   1   9    1.70    0.09
   6   1   9    1.65    0.09
   6   1   9    1.55    0.08
   5  -2  -9    1.00    0.07
  -5   2   9    0.99    0.06
  -5   2   9    1.01    0.06
  -4   2   9   -0.01    0.04
  -4   2   9   -0.05    0.05
  -4   2   9   -0.02    0.03
  -3   2   9   -0.03    0.06
  -3   2   9   -0.01    0.04
  -3   2   9    0.00    0.06
  -3   2   9    0.06    0.05
  -3   2   9    0.11    0.06
  -2   2   9    1.38    0.14
  -2   2   9    1.15    0.10
  -2   2   9    0.93    0.12
  -2   2   9    1.04    0.14
  -2   2   9    1.05    0.11
  -1   2   9    3.61    0.18
  -1   2   9    3.96    0.20
  -1   2   9    4.01    0.18
   0  -2  -9    0.41    0.13
   0   2   9    0.48    0.09
   0   2   9    0.64    0.10
   0   2   9    0.39    0.11
  -1  -2  -9   19.10    0.63
  -1  -2  -9   17.11    0.60
   1   2   9   17.01    0.58
   1   2   9   18.76    0.61
   1   2   9   17.77    0.60
   1   2   9   17.49    0.59
   2   2   9    0.70    0.11
   2   2   9    0.87    0.12
   2   2   9    0.77    0.17
   2   2   9    0.67    0.15
   2   2   9    0.57    0.10
   3   2   9   20.70    0.67
   3   2   9   20.88    0.67
   3   2   9   21.13    0.69
   3   2   9   19.53    0.66
   4   2   9    7.03    0.27
   4   2   9    6.81    0.27
   4   2   9    7.06    0.29
   4   2   9    7.02    0.27
   5   2   9   13.30    0.44
   5   2   9   12.77    0.44
   5   2   9   12.59    0.43
   5   2   9   12.76    0.45
   6   2   9    0.57    0.06
   6   2   9    0.48    0.05
   6   2   9    0.48    0.06
   5  -3  -9    4.95    0.18
  -5   3   9    5.31    0.18
  -5   3   9    5.22    0.18
  -4   3   9    0.09    0.04
  -4   3   9    0.01    0.03
  -4   3   9    0.02    0.04
  -3   3   9    0.04    0.06
  -3   3   9    0.08    0.05
  -3   3   9    0.11    0.06
  -3   3   9    0.07    0.05
  -3   3   9    0.01    0.07
  -2   3   9   17.77    0.60
  -2   3   9   17.86    0.61
  -2   3   9   17.55    0.59
  -2   3   9   19.10    0.65
  -2   3   9   18.50    0.60
  -1   3   9    0.85    0.10
  -1   3   9    0.67    0.13
  -1   3   9    0.73    0.13
  -1   3   9    0.67    0.09
  -1   3   9    0.66    0.14
   0  -3  -9   23.90    0.78
   0   3   9   22.25    0.73
   0   3   9   23.04    0.76
   0   3   9   22.54    0.72
   0   3   9   21.11    0.73
  -1  -3  -9    4.56    0.24
  -1  -3  -9    4.53    0.22
   1   3   9    4.73    0.26
   1   3   9    4.63    0.24
   1   3   9    4.80    0.24
   2   3   9    2.51    0.15
   2   3   9    2.74    0.19
   2   3   9    2.55    0.16
   2   3   9    2.35    0.16
   2   3   9    2.40    0.19
   3   3   9    2.15    0.13
   3   3   9    2.21    0.14
   3   3   9    2.10    0.14
   3   3   9    2.16    0.17
   3   3   9    2.21    0.16
   4   3   9   15.33    0.53
   4   3   9   15.46    0.51
   4   3   9   14.94    0.51
   4   3   9   14.93    0.51
   4   3   9   14.94    0.51
   5   3   9    1.03    0.09
   5   3   9    1.09    0.10
   5   3   9    1.01    0.11
   5   3   9    1.14    0.09
  -6  -3  -9    0.48    0.08
   6   3   9    0.39    0.06
   6   3   9    0.34    0.06
   6   3   9    0.37    0.06
   6   3   9    0.40    0.06
   5  -4  -9    1.26    0.08
  -5   4   9    1.47    0.07
  -5   4   9    1.46    0.07
  -4   4   9    0.06    0.03
  -4   4   9    0.00    0.03
  -4   4   9    0.01    0.04
  -3   4   9   16.48    0.54
  -3   4   9   15.81    0.54
  -3   4   9   16.42    0.54
  -2   4   9    0.78    0.09
  -2   4   9    0.84    0.14
  -2   4   9    0.77    0.09
  -2   4   9    0.87    0.10
  -2   4   9    0.60    0.12
  -1   4   9    4.10    0.18
  -1   4   9    3.89    0.21
  -1   4   9    3.63    0.19
  -1   4   9    3.64    0.18
   0  -4  -9   24.35    0.83
   0   4   9   24.31    0.77
   0   4   9   23.91    0.80
   0   4   9   24.38    0.81
   0   4   9   23.90    0.78
   0   4   9   24.99    0.78
  -1  -4  -9   38.63    1.24
   1   4   9   38.47    1.21
   1   4   9   38.64    1.21
   1   4   9   38.11    1.21
   1   4   9   39.27    1.22
   2   4   9    6.50    0.28
   2   4   9    6.14    0.25
   2   4   9    6.08    0.26
   2   4   9    6.45    0.26
   3   4   9    2.52    0.18
   3   4   9    2.64    0.17
   3   4   9    2.61    0.16
   3   4   9    2.49    0.15
   3   4   9    2.74    0.15
   4   4   9    5.57    0.23
   4   4   9    5.48    0.25
   4   4   9    5.53    0.24
   4   4   9    5.58    0.23
   4   4   9    5.41    0.23
   5   4   9    0.08    0.06
   5   4   9    0.01    0.04
   5   4   9    0.31    0.08
   5   4   9    0.07    0.05
   6   4   9    1.06    0.08
   6   4   9    1.13    0.09
   6   4   9    1.04    0.07
   6   4   9    0.96    0.08
   4  -5  -9    1.39    0.12
   4  -5  -9    1.33    0.10
  -4   5   9    1.54    0.09
  -4   5   9    1.48    0.09
  -4   5   9    1.31    0.08
  -3   5   9   24.86    0.78
  -3   5   9   24.00    0.78
  -3   5   9   24.77    0.79
  -2   5   9    0.06    0.06
  -2   5   9    0.07    0.05
  -2   5   9    0.06    0.05
  -1   5   9   10.07    0.36
  -1   5   9    9.81    0.37
  -1   5   9    9.28    0.35
  -1   5   9   10.39    0.39
  -1   5   9   10.12    0.36
   0  -5  -9    2.34    0.23
   0   5   9    2.17    0.16
   0   5   9    2.31    0.14
   0   5   9    2.11    0.18
   0   5   9    2.16    0.18
   0   5   9    2.41    0.15
  -1  -5  -9   30.80    1.02
   1   5   9   30.10    0.98
   1   5   9   31.43    0.98
   1   5   9   30.83    0.99
   1   5   9   30.29    0.97
   2   5   9    0.41    0.11
   2   5   9    0.52    0.11
   2   5   9    0.50    0.11
   2   5   9    0.38    0.10
   2   5   9    0.51    0.12
   3   5   9   -0.05    0.07
   3   5   9    0.00    0.06
   3   5   9   -0.04    0.05
   3   5   9   -0.04    0.05
   4   5   9    4.36    0.23
   4   5   9    4.38    0.20
   4   5   9    4.36    0.19
   4   5   9    4.50    0.21
   4   5   9    4.29    0.20
   5   5   9    6.02    0.23
   5   5   9    6.16    0.26
   5   5   9    5.74    0.24
   5   5   9    6.08    0.24
   5   5   9    6.14    0.23
   6   5   9   39.85    1.24
   6   5   9   40.07    1.22
   6   5   9   39.82    1.23
   6   5   9   40.10    1.23
   4  -6  -9    0.47    0.10
  -4   6   9    0.39    0.06
  -4   6   9    0.42    0.06
   3  -6  -9   13.96    0.52
  -3   6   9   14.48    0.49
  -3   6   9   15.03    0.48
  -3   6   9   14.98    0.49
  -2   6   9   10.61    0.38
  -2   6   9   11.13    0.39
  -2   6   9   10.85    0.38
  -2   6   9   10.71    0.38
  -1   6   9    2.63    0.17
  -1   6   9    2.52    0.15
  -1   6   9    2.62    0.15
  -1   6   9    2.50    0.14
   0   6   9    0.77    0.12
   0   6   9    0.60    0.10
   0   6   9    0.73    0.10
  -1  -6  -9    7.89    0.41
   1   6   9    8.43    0.31
   1   6   9    8.39    0.33
   1   6   9    8.23    0.33
   1   6   9    8.20    0.31
   2   6   9   15.86    0.62
   2   6   9   18.61    0.64
   2   6   9   19.81    0.62
   2   6   9   20.05    0.63
   2   6   9   19.50    0.63
   3   6   9    2.47    0.15
   3   6   9    2.69    0.18
   3   6   9    2.29    0.17
   3   6   9    2.18    0.14
   3   6   9    2.41    0.15
   4   6   9    7.48    0.30
   4   6   9    7.62    0.28
   4   6   9    7.48    0.29
   4   6   9    7.35    0.31
   5   6   9    0.13    0.04
   5   6   9    0.10    0.05
   5   6   9    0.11    0.06
   5   6   9    0.09    0.06
   5   6   9    0.16    0.05
   6   6   9    3.63    0.16
   6   6   9    3.62    0.15
   6   6   9    3.87    0.15
   6   6   9    3.83    0.14
   4  -7  -9    0.11    0.07
  -4   7   9    0.08    0.04
  -4   7   9    0.10    0.03
   3  -7  -9    1.36    0.13
  -3   7   9    1.47    0.10
  -3   7   9    1.53    0.10
  -3   7   9    1.53    0.12
   2  -7  -9    0.08    0.08
  -2   7   9    0.13    0.05
  -2   7   9    0.13    0.06
  -2   7   9    0.10    0.05
  -2   7   9    0.12    0.07
   1  -7  -9    2.48    0.18
  -1   7   9    2.38    0.14
  -1   7   9    2.26    0.14
  -1   7   9    2.44    0.15
  -1   7   9    2.36    0.14
   0   7   9    5.18    0.23
   0   7   9    4.84    0.25
   0   7   9    5.03    0.22
   0   7   9    5.04    0.22
   1   7   9    2.73    0.17
   1   7   9    2.92    0.16
   1   7   9    2.78    0.16
   1   7   9    2.53    0.17
   2   7   9    0.94    0.11
   2   7   9    1.31    0.14
   2   7   9    1.25    0.13
   2   7   9    1.15    0.12
   2   7   9    0.92    0.12
   3   7   9   36.55    1.15
   3   7   9   36.11    1.17
   3   7   9   36.75    1.16
   3   7   9   36.47    1.14
   3   7   9   36.11    1.15
   4   7   9    0.84    0.09
   4   7   9    0.83    0.11
   4   7   9    1.06    0.12
   4   7   9    0.85    0.10
   5   7   9    3.63    0.17
   5   7   9    3.42    0.15
   5   7   9    3.44    0.16
   5   7   9    3.74    0.17
   6   7   9    0.01    0.04
   6   7   9   -0.01    0.04
   6   7   9    0.02    0.03
  -4   8   9    0.12    0.05
   3  -8  -9    0.05    0.07
  -3   8   9    0.06    0.03
  -3   8   9   -0.01    0.04
  -3   8   9    0.06    0.05
   2  -8  -9    6.86    0.29
  -2   8   9    7.26    0.27
  -2   8   9    6.48    0.26
  -2   8   9    7.05    0.26
   1  -8  -9    8.16    0.46
  -1   8   9    7.90    0.30
  -1   8   9    7.58    0.29
  -1   8   9    7.34    0.29
   0   8   9    1.31    0.11
   0   8   9    1.24    0.14
   0   8   9    1.30    0.12
   0   8   9    1.32    0.11
   1   8   9    1.66    0.13
   1   8   9    1.47    0.13
   1   8   9    1.56    0.12
   1   8   9    1.41    0.13
   2   8   9    0.03    0.05
   2   8   9    0.15    0.07
   2   8   9    0.33    0.10
   2   8   9    0.05    0.07
   3   8   9    1.32    0.13
   3   8   9    1.47    0.12
   3   8   9    1.32    0.12
   3   8   9    1.29    0.13
   3   8   9    1.26    0.11
   4   8   9    7.96    0.28
   4   8   9    7.78    0.30
   4   8   9    7.73    0.31
   4   8   9    7.83    0.29
  -5  -8  -9    0.00    0.07
   5   8   9    0.10    0.04
   5   8   9    0.05    0.04
   5   8   9    0.01    0.05
   5   8   9    0.06    0.03
   6   8   9    0.28    0.06
   6   8   9    0.29    0.07
   6   8   9    0.28    0.04
   3  -9  -9    5.42    0.26
  -3   9   9    5.65    0.20
  -3   9   9    5.24    0.20
  -3   9   9    5.74    0.20
   2  -9  -9    0.07    0.10
  -2   9   9    0.04    0.04
  -2   9   9    0.12    0.04
  -2   9   9    0.09    0.05
  -1   9   9    2.17    0.13
  -1   9   9    2.11    0.13
  -1   9   9    2.10    0.13
   0   9   9    3.89    0.19
   0   9   9    4.36    0.20
   0   9   9    3.96    0.19
   0   9   9    3.75    0.18
   1   9   9    1.79    0.13
   1   9   9    1.84    0.13
   1   9   9    1.64    0.12
   1   9   9    1.51    0.13
   2   9   9    4.43    0.20
   2   9   9    4.55    0.20
   2   9   9    4.50    0.20
   2   9   9    4.37    0.21
   3   9   9    5.27    0.22
   3   9   9    5.55    0.23
   3   9   9    5.45    0.21
   3   9   9    5.43    0.24
   3   9   9    5.30    0.23
   4   9   9    9.66    0.35
   4   9   9   10.00    0.33
   4   9   9    9.85    0.35
   4   9   9    9.71    0.34
  -5  -9  -9    0.01    0.05
   5   9   9    0.00    0.03
   5   9   9    0.02    0.03
   5   9   9    0.09    0.05
   3 -10  -9    2.48    0.09
  -3  10   9    2.27    0.10
  -3  10   9    2.32    0.10
   2 -10  -9    1.36    0.08
  -2  10   9    1.27    0.09
  -2  10   9    1.42    0.08
  -2  10   9    1.32    0.09
  -1  10   9    0.15    0.05
  -1  10   9    0.07    0.04
  -1  10   9    0.09    0.04
   0  10   9    0.07    0.05
   0  10   9   -0.02    0.06
   0  10   9    0.03    0.04
   0  10   9   -0.04    0.05
   1  10   9    0.76    0.10
   1  10   9    0.61    0.09
   1  10   9    0.90    0.09
   1  10   9    0.61    0.09
   2  10   9    2.97    0.15
   2  10   9    2.96    0.15
   2  10   9    2.98    0.15
   2  10   9    2.99    0.16
   3  10   9    0.63    0.09
   3  10   9    0.75    0.09
   3  10   9    0.70    0.08
   3  10   9    0.66    0.08
   4  10   9    0.07    0.04
   4  10   9    0.04    0.03
   4  10   9    0.01    0.03
   4  10   9    0.26    0.07
  -5 -10  -9    0.02    0.05
   5  10   9    0.08    0.03
   5  10   9    0.04    0.03
  -2  11   9    3.51    0.13
  -2  11   9    3.48    0.14
  -2  11   9    3.58    0.14
  -1  11   9   -0.01    0.04
  -1  11   9    0.02    0.04
  -1  11   9    0.04    0.04
   0  11   9    0.78    0.07
   0  11   9    0.67    0.08
   0  11   9    0.77    0.08
   0  11   9    0.71    0.09
   1  11   9    4.74    0.20
   1  11   9    4.93    0.20
   1  11   9    5.07    0.19
   1  11   9    4.88    0.20
   2  11   9    1.97    0.11
   2  11   9    1.88    0.11
   2  11   9    1.78    0.10
   2  11   9    1.90    0.11
   3  11   9    0.04    0.05
   3  11   9    0.00    0.04
   3  11   9   -0.02    0.03
   4  11   9    3.65    0.16
   4  11   9    3.98    0.15
   4  11   9    3.81    0.15
   4  11   9    4.18    0.15
  -1  12   9    0.36    0.07
  -1  12   9    0.45    0.05
   0  12   9    0.11    0.05
   0  12   9    0.08    0.04
   0  12   9    0.07    0.04
   0  12   9    0.06    0.04
   1  12   9    3.23    0.13
   1  12   9    2.94    0.13
   1  12   9    3.05    0.13
   2  12   9    1.51    0.08
   2  12   9    1.22    0.09
   2  12   9    1.30    0.08
   3  12   9    2.65    0.11
   3  12   9    2.48    0.11
   1  -6  10    0.41    0.04
   1  -6  10    0.41    0.05
   1  -6  10    0.46    0.05
   1   5 -10    1.82    0.12
  -1  -5  10    1.62    0.08
  -1  -5  10    2.10    0.22
  -1  -5  10    1.70    0.08
  -1  -5  10    1.65    0.09
   0  -5  10    0.09    0.03
   0  -5  10    0.12    0.03
   0  -5  10    0.06    0.07
   0  -5  10    0.18    0.06
   1  -5  10    0.38    0.05
   1  -5  10    0.60    0.06
   1  -5  10    0.49    0.06
   1  -5  10    0.61    0.11
   2  -5  10    2.86    0.17
   2  -5  10    2.70    0.12
   2  -5  10    2.46    0.11
   2  -5  10    2.70    0.11
   2  -5  10    2.61    0.11
  -3   5 -10    0.07    0.04
   3  -5  10    0.08    0.03
   3  -5  10    0.09    0.02
   3  -5  10    0.05    0.04
   3  -5  10    0.04    0.03
  -2  -4  10    2.31    0.17
  -2  -4  10    2.06    0.10
  -2  -4  10    2.22    0.11
  -1  -4  10    6.93    0.29
  -1  -4  10    6.64    0.25
  -1  -4  10    6.72    0.24
  -1  -4  10    6.66    0.24
   0  -4  10    0.00    0.04
   0  -4  10    0.04    0.04
   0  -4  10    0.10    0.04
   0  -4  10    0.08    0.07
   1  -4  10    0.25    0.06
   1  -4  10    0.24    0.07
   1  -4  10    0.30    0.10
   1  -4  10    0.26    0.05
   1  -4  10    0.14    0.04
   2  -4  10    6.08    0.23
   2  -4  10    6.31    0.27
   2  -4  10    6.16    0.22
   2  -4  10    5.81    0.22
   2  -4  10    5.89    0.22
   3  -4  10    1.48    0.09
   3  -4  10    1.33    0.08
   3  -4  10    1.37    0.08
   3  -4  10    1.33    0.17
   3  -4  10    1.33    0.08
   4  -4  10    4.62    0.17
   4  -4  10    4.86    0.17
   4  -4  10    4.79    0.17
  -3  -3  10    0.06    0.03
  -3  -3  10    0.02    0.03
  -2  -3  10    4.66    0.23
  -2  -3  10    4.81    0.19
  -2  -3  10    4.51    0.18
  -1  -3  10    0.44    0.06
  -1  -3  10    0.48    0.11
  -1  -3  10    0.31    0.07
  -1  -3  10    0.36    0.08
   0  -3  10    0.01    0.04
   0  -3  10    0.01    0.04
   0  -3  10    0.04    0.06
   0  -3  10    0.10    0.05
   0  -3  10    0.01    0.04
   1  -3  10   -0.04    0.06
   1  -3  10    0.06    0.04
   1  -3  10    0.01    0.04
   1  -3  10    0.02    0.04
   1  -3  10    0.00    0.05
   2  -3  10    2.95    0.14
   2  -3  10    2.76    0.18
   2  -3  10    3.21    0.14
   2  -3  10    3.13    0.14
   2  -3  10    3.02    0.15
   3  -3  10    0.06    0.05
   3  -3  10    0.10    0.05
   3  -3  10    0.01    0.03
   3  -3  10    0.19    0.09
   3  -3  10    0.00    0.04
   4  -3  10    0.42    0.06
   4  -3  10    0.40    0.05
   4  -3  10    0.45    0.05
   5  -3  10    5.29    0.18
   5  -3  10    5.17    0.18
   5  -3  10    5.34    0.18
  -3  -2  10    0.11    0.03
  -3  -2  10    0.11    0.04
  -3  -2  10    0.13    0.04
  -3  -2  10    0.08    0.07
  -2  -2  10    0.13    0.04
  -2  -2  10    0.17    0.05
  -2  -2  10    0.02    0.07
  -2  -2  10    0.07    0.05
  -1  -2  10    0.01    0.06
  -1  -2  10    0.07    0.05
  -1  -2  10    0.03    0.04
  -1  -2  10    0.01    0.05
   0  -2  10    9.69    0.34
   0  -2  10    9.17    0.39
   0  -2  10    9.84    0.36
   0  -2  10   10.31    0.35
   0  -2  10   10.00    0.34
   1  -2  10   13.21    0.44
   1  -2  10   12.09    0.48
   1  -2  10   13.35    0.46
   1  -2  10   12.89    0.44
   1  -2  10   13.77    0.44
   2  -2  10    2.85    0.14
   2  -2  10    2.89    0.14
   2  -2  10    2.73    0.14
   2  -2  10    2.87    0.15
   2  -2  10    2.96    0.14
   2  -2  10    2.23    0.17
   3  -2  10    0.22    0.06
   3  -2  10    0.34    0.08
   3  -2  10    0.37    0.07
   3  -2  10    0.29    0.06
   3  -2  10    0.37    0.14
   3  -2  10    0.30    0.07
   4  -2  10    0.27    0.07
   4  -2  10    0.33    0.06
   4  -2  10    0.32    0.05
   4  -2  10    0.31    0.05
   5  -2  10    1.98    0.09
   5  -2  10    1.99    0.09
   5  -2  10    1.99    0.09
   5  -2  10    1.99    0.10
  -4  -1  10    0.99    0.06
  -4  -1  10    1.15    0.06
  -3  -1  10    0.00    0.04
  -3  -1  10    0.02    0.03
  -3  -1  10    0.03    0.07
  -3  -1  10   -0.02    0.04
  -2  -1  10    5.83    0.23
  -2  -1  10    5.57    0.22
  -2  -1  10    5.18    0.26
  -2  -1  10    5.46    0.22
  -2  -1  10    5.48    0.22
  -1  -1  10    4.93    0.22
  -1  -1  10    4.84    0.21
  -1  -1  10    4.62    0.24
  -1  -1  10    4.82    0.20
   0  -1  10    0.89    0.13
   0  -1  10    1.12    0.10
   0  -1  10    0.94    0.11
   0  -1  10    0.89    0.11
   0  -1  10    1.02    0.09
   1  -1  10    9.88    0.37
   1  -1  10    9.93    0.36
   1  -1  10   10.09    0.35
   1  -1  10    9.91    0.39
   1  -1  10   10.20    0.35
   2  -1  10    2.85    0.15
   2  -1  10    2.99    0.14
   2  -1  10    2.85    0.14
   2  -1  10    2.76    0.19
   2  -1  10    2.66    0.16
   2  -1  10    2.70    0.14
   3  -1  10    1.19    0.09
   3  -1  10    1.06    0.17
   3  -1  10    0.95    0.11
   3  -1  10    1.02    0.10
   3  -1  10    1.30    0.09
   4  -1  10    0.09    0.04
   4  -1  10    0.06    0.04
   4  -1  10    0.08    0.05
   5  -1  10   10.36    0.34
   5  -1  10   10.63    0.35
   5  -1  10   10.19    0.34
   5  -1  10   10.29    0.34
  -4   0  10    2.63    0.11
  -4   0  10    2.58    0.11
  -3   0  10    0.31    0.10
  -3   0  10    0.17    0.05
  -3   0  10    0.10    0.05
  -3   0  10    0.21    0.06
  -2   0  10   16.93    0.53
  -2   0  10   15.86    0.53
  -2   0  10   16.36    0.53
  -2   0  10   16.11    0.55
  -2   0  10   15.13    0.58
  -1   0  10   45.14    1.37
  -1   0  10   41.52    1.41
  -1   0  10   44.03    1.39
  -1   0  10   45.45    1.37
  -1   0  10   44.90    1.37
   0   0  10   14.25    0.50
   0   0  10   15.10    0.49
   0   0  10   14.64    0.51
   0   0  10   15.39    0.54
   1   0  10    2.48    0.14
   1   0  10    2.21    0.15
   1   0  10    2.39    0.17
   1   0  10    2.42    0.14
   1   0  10    2.31    0.14
   2   0  10   11.49    0.40
   2   0  10   11.33    0.39
   2   0  10   11.23    0.40
   2   0  10   11.22    0.41
   2   0  10   11.87    0.44
   2   0  10   11.46    0.39
   3   0  10    0.27    0.08
   3   0  10    0.43    0.08
   3   0  10    0.33    0.08
   3   0  10    0.52    0.08
   4   0  10    1.85    0.11
   4   0  10    1.71    0.13
   4   0  10    1.67    0.10
   4   0  10    1.77    0.13
   4   0  10    1.79    0.11
   5   0  10    1.66    0.09
   5   0  10    1.69    0.09
   5   0  10    1.82    0.10
   5   0  10    1.73    0.11
   6   0  10    0.79    0.05
   6   0  10    0.70    0.05
   6   0  10    0.74    0.05
  -4   1  10    0.03    0.03
  -4   1  10    0.09    0.03
  -3   1  10    1.04    0.08
  -3   1  10    1.27    0.10
  -3   1  10    1.32    0.13
  -3   1  10    1.34    0.09
  -2   1  10    9.14    0.32
  -2   1  10    9.05    0.34
  -2   1  10    8.15    0.36
  -2   1  10    8.92    0.32
  -1   1  10   13.70    0.48
  -1   1  10   14.16    0.47
  -1   1  10   14.28    0.53
  -1   1  10   13.97    0.49
  -1   1  10   14.44    0.47
   0   1  10    0.20    0.08
   0   1  10    0.21    0.07
   0   1  10    0.21    0.06
   0   1  10    0.23    0.07
   1   1  10   11.01    0.38
   1   1  10   11.02    0.38
   1   1  10   10.90    0.42
   1   1  10   10.79    0.39
   1   1  10   10.99    0.38
   2   1  10   15.48    0.50
   2   1  10   15.01    0.51
   2   1  10   15.10    0.52
   2   1  10   14.85    0.50
   2   1  10   15.11    0.54
   3   1  10    4.03    0.20
   3   1  10    4.09    0.21
   3   1  10    4.18    0.19
   3   1  10    3.98    0.18
   4   1  10    0.58    0.08
   4   1  10    0.52    0.07
   4   1  10    0.53    0.08
   4   1  10    0.53    0.10
   4   1  10    0.76    0.12
   5   1  10    1.46    0.09
   5   1  10    1.58    0.09
   5   1  10    1.53    0.10
   5   1  10    1.63    0.10
   5   1  10    1.67    0.12
   6   1  10    2.28    0.10
   6   1  10    2.34    0.10
   6   1  10    2.23    0.10
  -4   2  10    0.57    0.06
  -4   2  10    0.57    0.06
  -3   2  10    0.11    0.07
  -3   2  10    0.05    0.06
  -3   2  10    0.04    0.04
  -3   2  10    0.07    0.04
  -2   2  10    0.83    0.12
  -2   2  10    0.75    0.10
  -2   2  10    0.94    0.11
  -2   2  10    0.91    0.09
  -1   2  10   46.07    1.41
  -1   2  10   45.43    1.41
  -1   2  10   45.09    1.42
   0   2  10   10.74    0.39
   0   2  10   11.23    0.42
   0   2  10   10.79    0.38
   0   2  10   10.61    0.39
   1   2  10    3.15    0.18
   1   2  10    3.44    0.19
   1   2  10    3.30    0.18
   1   2  10    3.52    0.21
   1   2  10    3.36    0.18
   2   2  10    9.85    0.35
   2   2  10    9.66    0.34
   2   2  10    8.94    0.35
   2   2  10    9.65    0.34
   3   2  10    2.34    0.17
   3   2  10    2.32    0.13
   3   2  10    2.40    0.14
   3   2  10    2.31    0.14
   4   2  10    5.50    0.22
   4   2  10    5.40    0.22
   4   2  10    5.57    0.24
   4   2  10    5.50    0.22
   5   2  10    0.78    0.09
   5   2  10    0.62    0.07
   5   2  10    0.58    0.07
   5   2  10    0.58    0.07
   6   2  10    0.49    0.05
   6   2  10    0.53    0.05
   6   2  10    0.51    0.05
  -4   3  10    9.33    0.32
  -4   3  10    9.76    0.32
  -4   3  10    9.90    0.32
  -3   3  10    5.37    0.23
  -3   3  10    5.29    0.21
  -3   3  10    5.41    0.21
  -3   3  10    5.20    0.21
  -2   3  10    0.11    0.07
  -2   3  10    0.17    0.07
  -2   3  10    0.06    0.05
  -2   3  10    0.08    0.06
  -2   3  10    0.14    0.05
  -1   3  10   25.81    0.85
  -1   3  10   26.55    0.85
  -1   3  10   27.06    0.89
  -1   3  10   25.95    0.84
  -1   3  10   26.71    0.84
   0   3  10   14.46    0.51
   0   3  10   13.94    0.46
   0   3  10   13.71    0.47
   0   3  10   12.84    0.48
   1   3  10   -0.05    0.10
   2   3  10    7.94    0.33
   2   3  10    9.74    0.34
   2   3  10   10.47    0.37
   2   3  10    9.37    0.35
   3   3  10    3.81    0.18
   3   3  10    3.99    0.18
   3   3  10    3.96    0.19
   3   3  10    3.88    0.21
   4   3  10    3.07    0.15
   4   3  10    2.90    0.17
   4   3  10    2.90    0.16
   4   3  10    3.23    0.15
   5   3  10    4.36    0.18
   5   3  10    4.19    0.18
   5   3  10    4.41    0.19
   5   3  10    4.36    0.18
   6   3  10    1.34    0.08
   6   3  10    1.30    0.08
   6   3  10    1.45    0.08
   6   3  10    1.26    0.07
   4  -4 -10    3.05    0.16
  -4   4  10    3.01    0.13
  -4   4  10    2.78    0.12
  -4   4  10    2.93    0.12
  -3   4  10    2.15    0.12
  -3   4  10    2.32    0.12
  -3   4  10    2.32    0.13
  -2   4  10    2.14    0.14
  -2   4  10    2.20    0.17
  -2   4  10    2.16    0.13
  -2   4  10    2.29    0.17
  -2   4  10    2.27    0.13
  -1   4  10   29.73    0.95
  -1   4  10   30.30    0.95
  -1   4  10   30.33    0.99
  -1   4  10   29.63    0.94
   0   4  10    5.02    0.21
   0   4  10    4.74    0.25
   0   4  10    4.59    0.22
   1   4  10    9.02    0.36
   1   4  10    9.10    0.34
   1   4  10    9.05    0.34
   2   4  10    6.57    0.30
   2   4  10    6.61    0.28
   2   4  10    8.35    0.30
   2   4  10    8.80    0.32
   3   4  10    5.18    0.22
   3   4  10    5.28    0.22
   3   4  10    5.23    0.25
   3   4  10    5.17    0.24
   3   4  10    5.12    0.22
   4   4  10    5.16    0.21
   4   4  10    4.59    0.23
   4   4  10    4.88    0.21
   4   4  10    5.07    0.22
   4   4  10    4.87    0.21
   5   4  10   19.69    0.62
   5   4  10   19.28    0.64
   5   4  10   18.71    0.62
   5   4  10   18.93    0.61
  -6  -4 -10    0.02    0.05
   6   4  10    0.01    0.04
   6   4  10    0.03    0.03
   6   4  10    0.04    0.03
   6   4  10    0.04    0.03
   4  -5 -10    3.44    0.15
   4  -5 -10    3.43    0.17
  -4   5  10    3.50    0.14
  -4   5  10    3.73    0.14
  -4   5  10    3.70    0.14
  -3   5  10    1.68    0.10
  -3   5  10    1.27    0.10
  -3   5  10    1.61    0.10
  -2   5  10    1.05    0.10
  -2   5  10    1.09    0.10
  -2   5  10    1.17    0.10
  -1   5  10    1.72    0.12
  -1   5  10    1.53    0.12
  -1   5  10    1.47    0.12
   0   5  10    2.59    0.18
   0   5  10    2.84    0.15
   0   5  10    2.33    0.20
   0   5  10    2.59    0.16
   0   5  10    2.47    0.17
   1   5  10    4.47    0.23
   1   5  10    4.51    0.22
   1   5  10    4.89    0.22
   1   5  10    4.78    0.22
   2   5  10   10.83    0.41
   2   5  10   11.27    0.40
   2   5  10   11.63    0.40
   2   5  10   10.70    0.39
   2   5  10   11.53    0.42
   3   5  10    1.00    0.13
   3   5  10    1.18    0.11
   3   5  10    1.09    0.11
   3   5  10    1.14    0.12
   4   5  10    9.56    0.36
   4   5  10    9.60    0.37
   4   5  10   10.33    0.35
   4   5  10   10.15    0.35
   4   5  10    9.78    0.36
   5   5  10    3.34    0.15
   5   5  10    3.51    0.15
   5   5  10    3.25    0.17
   5   5  10    3.38    0.16
   6   5  10    1.47    0.09
   6   5  10    1.64    0.08
   6   5  10    1.61    0.08
   6   5  10    1.42    0.08
   4  -6 -10    4.25    0.19
  -4   6  10    4.01    0.15
  -4   6  10    3.85    0.15
   3  -6 -10    1.31    0.13
  -3   6  10    1.34    0.09
  -3   6  10    1.35    0.09
  -3   6  10    1.53    0.09
  -2   6  10    1.38    0.10
  -2   6  10    1.32    0.10
  -2   6  10    1.26    0.10
  -1   6  10    5.45    0.23
  -1   6  10    5.53    0.25
  -1   6  10    5.81    0.23
  -1   6  10    5.61    0.23
   0   6  10    2.62    0.15
   0   6  10    2.83    0.18
   0   6  10    2.82    0.15
   1   6  10   46.62    1.44
   1   6  10   45.99    1.44
   1   6  10   46.06    1.45
   1   6  10   46.49    1.44
   2   6  10    4.74    0.22
   2   6  10    4.51    0.23
   2   6  10    4.44    0.22
   2   6  10    5.03    0.21
   2   6  10    4.62    0.22
   3   6  10    1.38    0.12
   3   6  10    1.34    0.12
   3   6  10    1.25    0.13
   3   6  10    1.31    0.12
   3   6  10    1.15    0.16
   4   6  10    0.09    0.05
   4   6  10    0.06    0.04
   4   6  10    0.01    0.07
   4   6  10    0.02    0.05
   5   6  10    6.72    0.25
   5   6  10    6.58    0.25
   5   6  10    6.69    0.25
   5   6  10    6.85    0.27
   6   6  10    0.80    0.07
   6   6  10    0.85    0.06
   6   6  10    0.87    0.06
  -4   7  10    1.58    0.08
  -4   7  10    1.61    0.08
   3  -7 -10    1.21    0.13
  -3   7  10    1.23    0.08
  -3   7  10    1.22    0.08
   2  -7 -10    5.65    0.26
  -2   7  10    6.05    0.23
  -2   7  10    6.03    0.24
  -2   7  10    5.76    0.23
  -2   7  10    6.02    0.22
   1  -7 -10    0.72    0.16
  -1   7  10    0.67    0.09
  -1   7  10    0.69    0.09
  -1   7  10    1.00    0.12
  -1   7  10    0.74    0.10
   0   7  10    0.42    0.09
   0   7  10    0.31    0.09
   0   7  10    0.31    0.08
   1   7  10   15.98    0.54
   1   7  10   16.13    0.55
   1   7  10   15.75    0.54
   1   7  10   15.90    0.54
   2   7  10    7.18    0.28
   2   7  10    7.25    0.29
   2   7  10    7.50    0.29
   2   7  10    7.13    0.30
   3   7  10    0.54    0.10
   3   7  10    0.66    0.13
   3   7  10    0.40    0.11
   3   7  10    0.65    0.10
   3   7  10    0.52    0.10
   4   7  10    0.11    0.05
   4   7  10    0.06    0.05
   4   7  10    0.06    0.07
   4   7  10    0.04    0.05
   5   7  10    6.09    0.22
   5   7  10    5.80    0.23
   5   7  10    6.18    0.23
   5   7  10    6.18    0.24
   6   7  10    0.58    0.05
   6   7  10    0.59    0.05
   6   7  10    0.41    0.06
   3  -8 -10    0.31    0.09
  -3   8  10    0.37    0.05
  -3   8  10    0.54    0.06
   2  -8 -10   43.60    1.35
  -2   8  10   42.96    1.32
  -2   8  10   41.45    1.32
  -2   8  10   43.18    1.32
  -1   8  10    0.30    0.07
  -1   8  10    0.23    0.06
  -1   8  10    0.21    0.06
   0   8  10   12.53    0.44
   0   8  10   12.02    0.42
   0   8  10   11.82    0.42
   1   8  10    2.75    0.16
   1   8  10    2.59    0.16
   1   8  10    2.76    0.16
   1   8  10    2.48    0.14
   2   8  10   27.92    0.90
   2   8  10   27.81    0.90
   2   8  10   28.47    0.90
   2   8  10   27.85    0.91
   3   8  10    4.46    0.19
   3   8  10    4.53    0.22
   3   8  10    4.28    0.20
   3   8  10    4.41    0.20
   3   8  10    4.65    0.21
   4   8  10    0.61    0.10
   4   8  10    0.72    0.08
   4   8  10    0.63    0.08
   4   8  10    0.62    0.08
   5   8  10    1.85    0.10
   5   8  10    1.83    0.10
   5   8  10    1.83    0.11
   5   8  10    1.85    0.09
   3  -9 -10    0.36    0.04
  -3   9  10    0.35    0.05
  -3   9  10    0.38    0.06
  -3   9  10    0.23    0.07
  -2   9  10    2.95    0.14
  -2   9  10    3.09    0.14
  -2   9  10    2.89    0.13
  -1   9  10    2.28    0.13
  -1   9  10    2.65    0.13
  -1   9  10    2.63    0.14
   0   9  10    1.03    0.10
   0   9  10    0.97    0.14
   0   9  10    1.15    0.09
   0   9  10    1.23    0.11
   1   9  10    0.32    0.08
   1   9  10    0.34    0.09
   1   9  10    0.30    0.09
   1   9  10    0.37    0.10
   2   9  10    2.82    0.16
   2   9  10    2.85    0.15
   2   9  10    2.92    0.16
   2   9  10    3.00    0.15
   3   9  10    2.43    0.13
   3   9  10    2.36    0.13
   3   9  10    2.19    0.13
   3   9  10    2.51    0.15
   3   9  10    2.08    0.13
   4   9  10    2.50    0.13
   4   9  10    2.72    0.13
   4   9  10    2.64    0.12
   4   9  10    2.59    0.14
   5   9  10    1.89    0.10
   5   9  10    1.84    0.08
   5   9  10    1.80    0.09
   2 -10 -10    1.60    0.09
  -2  10  10    1.66    0.09
  -2  10  10    1.65    0.08
  -2  10  10    1.62    0.09
  -1  10  10    5.72    0.22
  -1  10  10    5.64    0.21
  -1  10  10    5.48    0.21
   0  10  10    1.29    0.10
   0  10  10    1.35    0.09
   0  10  10    1.33    0.10
   0  10  10    1.12    0.12
   1  10  10    1.15    0.10
   1  10  10    1.13    0.10
   1  10  10    1.26    0.09
   1  10  10    1.16    0.10
   2  10  10    0.21    0.06
   2  10  10    0.20    0.05
   2  10  10    0.37    0.08
   2  10  10    0.43    0.08
   3  10  10    1.82    0.12
   3  10  10    2.01    0.11
   3  10  10    1.91    0.11
   4  10  10    5.42    0.20
   4  10  10    5.39    0.19
   4  10  10    5.44    0.20
   4  10  10    5.32    0.20
  -1  11  10    0.82    0.06
  -1  11  10    0.64    0.06
  -1  11  10    0.80    0.06
   0  11  10    1.09    0.08
   0  11  10    1.03    0.08
   0  11  10    1.01    0.07
   1  11  10    1.64    0.09
   1  11  10    1.59    0.10
   1  11  10    1.57    0.09
   1  11  10    1.48    0.10
   2  11  10    1.19    0.09
   2  11  10    1.15    0.08
   2  11  10    1.18    0.08
   2  11  10    1.18    0.08
   3  11  10    0.36    0.05
   3  11  10    0.25    0.05
   3  11  10    0.23    0.06
   0  12  10    1.01    0.07
   0  12  10    1.10    0.07
   0  12  10    1.06    0.07
   1  12  10    0.29    0.06
   1  12  10    0.29    0.05
   1  12  10    0.34    0.06
   2  12  10    0.80    0.07
   2  12  10    0.87    0.06
   2  12  10    0.88    0.06
  -1  -4  11    4.08    0.14
  -1  -4  11    3.92    0.15
  -1  -4  11    3.77    0.14
   0  -4  11    0.02    0.03
   0  -4  11    0.10    0.07
   0  -4  11    0.03    0.03
   0  -4  11    0.08    0.03
   1  -4  11    1.79    0.09
   1  -4  11    1.78    0.10
   1  -4  11    1.97    0.15
   1  -4  11    1.70    0.09
   2  -4  11    0.58    0.05
   2  -4  11    0.56    0.06
   2  -4  11    0.51    0.06
   2  -4  11    0.46    0.05
   3  -4  11    0.46    0.04
   3  -4  11    0.41    0.04
   3  -4  11    0.45    0.05
  -2  -3  11    1.24    0.08
  -2  -3  11    1.31    0.07
  -1  -3  11    3.12    0.17
  -1  -3  11    2.94    0.12
  -1  -3  11    2.64    0.13
  -1  -3  11    2.79    0.12
   0  -3  11    3.90    0.17
   0  -3  11    4.02    0.20
   0  -3  11    3.77    0.16
   0  -3  11    3.87    0.15
   1  -3  11    7.82    0.26
   1  -3  11    7.52    0.26
   1  -3  11    7.50    0.31
   1  -3  11    7.36    0.27
   1  -3  11    7.21    0.26
   2  -3  11    1.37    0.15
   2  -3  11    1.46    0.10
   2  -3  11    1.52    0.09
   2  -3  11    1.50    0.08
   2  -3  11    1.50    0.09
   3  -3  11    0.96    0.06
   3  -3  11    0.92    0.07
   3  -3  11    0.97    0.07
   4  -3  11    0.82    0.05
   4  -3  11    0.75    0.06
   4  -3  11    0.78    0.05
  -2  -2  11    5.75    0.25
  -2  -2  11    5.45    0.20
  -2  -2  11    5.48    0.21
  -1  -2  11    2.61    0.12
  -1  -2  11    2.56    0.13
  -1  -2  11    2.37    0.12
  -1  -2  11    2.40    0.16
   0  -2  11    5.26    0.20
   0  -2  11    5.30    0.20
   0  -2  11    5.18    0.21
   0  -2  11    4.86    0.24
   1  -2  11    2.87    0.15
   1  -2  11    2.74    0.13
   1  -2  11    2.84    0.13
   1  -2  11    2.37    0.17
   1  -2  11    2.88    0.13
   2  -2  11    0.21    0.06
   2  -2  11    0.18    0.05
   2  -2  11    0.15    0.09
   2  -2  11    0.02    0.05
   2  -2  11    0.09    0.04
   3  -2  11    6.61    0.24
   3  -2  11    6.43    0.23
   3  -2  11    6.71    0.25
   3  -2  11    6.50    0.23
   4  -2  11    0.03    0.04
   4  -2  11    0.00    0.02
   4  -2  11    0.00    0.03
  -3  -1  11    0.79    0.07
  -3  -1  11    0.94    0.09
  -3  -1  11    0.79    0.06
  -2  -1  11    5.60    0.22
  -2  -1  11    5.65    0.26
  -2  -1  11    5.71    0.21
  -1  -1  11    4.51    0.19
  -1  -1  11    4.44    0.23
  -1  -1  11    4.69    0.20
  -1  -1  11    5.03    0.19
   0  -1  11    1.85    0.11
   0  -1  11    1.58    0.15
   0  -1  11    1.69    0.12
   0  -1  11    1.87    0.11
   1  -1  11    0.04    0.08
   1  -1  11    0.00    0.05
   1  -1  11    0.06    0.05
   1  -1  11    0.04    0.05
   1  -1  11    0.10    0.05
   2  -1  11    2.06    0.18
   2  -1  11    2.56    0.15
   2  -1  11    2.90    0.14
   2  -1  11    2.45    0.13
   2  -1  11    2.71    0.13
   2  -1  11    2.85    0.13
   3  -1  11    8.95    0.31
   3  -1  11    8.90    0.30
   3  -1  11    8.49    0.31
   3  -1  11    8.38    0.30
   4  -1  11    0.04    0.03
   4  -1  11    0.03    0.05
   4  -1  11   -0.02    0.03
   4  -1  11    0.00    0.03
   5  -1  11    8.19    0.27
   5  -1  11    8.46    0.27
   5  -1  11    8.47    0.28
   5  -1  11    8.46    0.28
  -3   0  11    0.14    0.04
  -3   0  11    0.13    0.04
  -3   0  11    0.12    0.07
  -3   0  11    0.07    0.04
  -2   0  11    0.17    0.05
  -2   0  11    0.23    0.06
  -2   0  11    0.15    0.05
  -2   0  11    0.30    0.11
  -1   0  11    8.38    0.30
  -1   0  11    7.85    0.34
  -1   0  11    8.43    0.30
  -1   0  11    8.08    0.31
   0   0  11    4.09    0.17
   0   0  11    4.14    0.19
   0   0  11    3.69    0.22
   0   0  11    4.12    0.18
   1   0  11    0.14    0.06
   1   0  11    0.08    0.06
   1   0  11    0.27    0.08
   1   0  11    0.00    0.05
   1   0  11    0.09    0.08
   2   0  11    1.02    0.10
   2   0  11    1.02    0.10
   2   0  11    0.91    0.16
   2   0  11    1.07    0.09
   2   0  11    1.06    0.11
   2   0  11    0.95    0.11
   3   0  11    0.54    0.10
   3   0  11    0.50    0.08
   3   0  11    0.53    0.08
   3   0  11    0.52    0.07
   4   0  11    0.12    0.04
   4   0  11    0.10    0.04
   4   0  11    0.06    0.03
   4   0  11    0.12    0.05
   5   0  11    0.40    0.05
   5   0  11    0.38    0.05
   5   0  11    0.28    0.08
   5   0  11    0.38    0.05
  -3   1  11    2.49    0.16
  -3   1  11    2.46    0.12
  -3   1  11    2.43    0.11
  -3   1  11    2.52    0.11
  -2   1  11    0.64    0.07
  -2   1  11    0.64    0.11
  -2   1  11    0.63    0.08
  -2   1  11    0.67    0.09
  -1   1  11    5.96    0.25
  -1   1  11    6.06    0.28
  -1   1  11    6.31    0.24
  -1   1  11    6.08    0.23
  -1   1  11    5.93    0.25
   0   1  11    1.64    0.13
   0   1  11    1.54    0.12
   0   1  11    1.41    0.15
   0   1  11    1.61    0.11
   1   1  11    2.30    0.14
   1   1  11    2.19    0.18
   1   1  11    2.32    0.14
   1   1  11    2.42    0.14
   1   1  11    2.22    0.15
   2   1  11   12.20    0.42
   2   1  11   12.65    0.44
   2   1  11   13.09    0.42
   2   1  11   12.14    0.43
   3   1  11    2.66    0.16
   3   1  11    2.63    0.14
   3   1  11    2.58    0.14
   3   1  11    2.75    0.14
   4   1  11    0.81    0.10
   4   1  11    1.04    0.08
   4   1  11    1.06    0.11
   4   1  11    1.02    0.08
   5   1  11    0.18    0.05
   5   1  11    0.27    0.05
   5   1  11    0.20    0.05
  -4   2  11    4.34    0.15
  -4   2  11    4.15    0.15
  -3   2  11    3.64    0.15
  -3   2  11    3.54    0.15
  -3   2  11    3.70    0.16
  -2   2  11    0.57    0.07
  -2   2  11    0.58    0.10
  -2   2  11    0.62    0.08
  -2   2  11    0.47    0.11
  -1   2  11    2.63    0.14
  -1   2  11    2.58    0.18
  -1   2  11    2.90    0.16
  -1   2  11    2.85    0.15
   0   2  11   10.02    0.35
   0   2  11   10.20    0.40
   0   2  11   10.01    0.37
   1   2  11    8.64    0.32
   1   2  11    8.72    0.33
   1   2  11    8.54    0.36
   1   2  11    8.74    0.32
   2   2  11   11.75    0.40
   2   2  11   11.19    0.40
   2   2  11   11.80    0.41
   2   2  11   11.45    0.40
   3   2  11    0.59    0.09
   3   2  11    0.62    0.13
   3   2  11    0.74    0.09
   3   2  11    0.76    0.09
   4   2  11    0.07    0.04
   4   2  11   -0.02    0.06
   4   2  11    0.10    0.04
   4   2  11    0.09    0.04
   5   2  11    0.19    0.05
   5   2  11    0.20    0.05
   5   2  11    0.14    0.04
   5   2  11    0.20    0.05
   6   2  11    1.28    0.06
   6   2  11    1.21    0.06
   6   2  11    1.18    0.06
  -4   3  11    0.56    0.05
  -4   3  11    0.50    0.05
  -3   3  11    2.27    0.11
  -3   3  11    2.18    0.11
  -2   3  11    0.23    0.07
  -2   3  11    0.27    0.07
  -2   3  11    0.28    0.07
  -1   3  11   14.36    0.48
  -1   3  11   14.63    0.49
  -1   3  11   13.44    0.52
  -1   3  11   14.27    0.47
   0   3  11   19.60    0.66
   0   3  11   19.59    0.69
   0   3  11   20.46    0.65
   0   3  11   20.25    0.65
   2   3  11    5.95    0.23
   2   3  11    5.78    0.24
   2   3  11    5.99    0.28
   2   3  11    6.06    0.25
   3   3  11   11.13    0.40
   3   3  11   10.79    0.38
   3   3  11   10.82    0.38
   4   3  11    0.90    0.11
   4   3  11    1.09    0.09
   4   3  11    0.93    0.09
   4   3  11    0.95    0.09
   5   3  11    0.65    0.06
   5   3  11    0.62    0.07
   5   3  11    0.66    0.08
   5   3  11    0.71    0.07
   6   3  11    3.51    0.13
   6   3  11    3.60    0.13
   6   3  11    3.68    0.13
  -4   4  11    2.89    0.11
  -4   4  11    3.05    0.12
  -3   4  11    0.15    0.05
  -3   4  11    0.17    0.04
  -3   4  11    0.14    0.04
  -2   4  11    0.96    0.09
  -2   4  11    0.97    0.09
  -2   4  11    1.14    0.13
  -2   4  11    1.00    0.10
  -1   4  11    9.64    0.40
  -1   4  11   10.40    0.35
  -1   4  11    9.88    0.36
  -1   4  11   10.02    0.36
   0   4  11    3.37    0.18
   0   4  11    3.52    0.17
   0   4  11    3.24    0.21
   0   4  11    3.29    0.17
   1   4  11    2.32    0.17
   1   4  11    2.48    0.17
   2   4  11    2.68    0.18
   2   4  11    2.71    0.18
   2   4  11    2.50    0.15
   2   4  11    2.61    0.16
   3   4  11    7.18    0.27
   3   4  11    7.35    0.28
   3   4  11    6.92    0.29
   3   4  11    7.13    0.27
   3   4  11    7.58    0.30
   4   4  11    3.57    0.18
   4   4  11    3.53    0.17
   4   4  11    3.61    0.16
   4   4  11    3.55    0.18
   4   4  11    3.45    0.16
   5   4  11    2.58    0.12
   5   4  11    2.46    0.13
   5   4  11    2.35    0.11
   5   4  11    2.43    0.12
   6   4  11    0.03    0.03
   6   4  11    0.06    0.03
   6   4  11    0.10    0.03
   6   4  11    0.07    0.02
  -3   5  11    0.73    0.07
  -3   5  11    0.75    0.07
  -3   5  11    0.71    0.07
  -2   5  11    1.28    0.10
  -2   5  11    1.32    0.10
  -2   5  11    1.12    0.10
  -1   5  11    0.30    0.09
  -1   5  11    0.34    0.08
  -1   5  11    0.19    0.06
   0   5  11   53.65    1.67
   0   5  11   54.85    1.67
   0   5  11   54.35    1.66
   1   5  11   11.59    0.44
   1   5  11   11.85    0.42
   1   5  11   11.98    0.42
   2   5  11    1.30    0.14
   2   5  11    1.39    0.13
   2   5  11    1.20    0.13
   2   5  11    1.26    0.13
   3   5  11   13.39    0.48
   3   5  11   13.09    0.46
   3   5  11   13.63    0.45
   3   5  11   13.50    0.46
   4   5  11    0.77    0.11
   4   5  11    0.73    0.09
   4   5  11    0.77    0.08
   4   5  11    0.82    0.11
   5   5  11    0.78    0.07
   5   5  11    0.84    0.07
   5   5  11    0.81    0.08
   5   5  11    0.83    0.08
   6   5  11    0.27    0.04
   6   5  11    0.29    0.04
   6   5  11    0.27    0.05
   3  -6 -11    3.55    0.19
  -3   6  11    3.60    0.14
  -3   6  11    3.52    0.15
  -3   6  11    3.70    0.15
  -2   6  11    4.05    0.16
  -2   6  11    3.15    0.16
  -2   6  11    3.72    0.16
  -1   6  11    0.50    0.09
  -1   6  11    0.78    0.09
  -1   6  11    0.52    0.09
   0   6  11   20.88    0.69
   0   6  11   20.87    0.70
   0   6  11   21.35    0.69
   1   6  11    0.71    0.11
   1   6  11    0.87    0.13
   1   6  11    0.68    0.11
   1   6  11    0.64    0.10
   2   6  11    0.34    0.09
   2   6  11    0.54    0.13
   2   6  11    0.23    0.07
   2   6  11    0.25    0.07
   3   6  11    3.38    0.17
   3   6  11    3.43    0.16
   3   6  11    3.55    0.17
   3   6  11    3.11    0.19
   4   6  11    1.08    0.11
   4   6  11    0.86    0.10
   4   6  11    0.68    0.08
   4   6  11    0.86    0.09
   5   6  11    0.78    0.07
   5   6  11    0.71    0.07
   5   6  11    0.60    0.08
  -6  -6 -11    3.62    0.14
   6   6  11    3.78    0.14
   6   6  11    4.15    0.14
  -3   7  11    4.02    0.15
  -3   7  11    3.84    0.15
   2  -7 -11    1.24    0.15
  -2   7  11    1.42    0.09
  -2   7  11    1.51    0.09
  -2   7  11    1.48    0.09
  -1   7  11   -0.02    0.06
  -1   7  11    0.02    0.05
  -1   7  11    0.04    0.07
  -1   7  11    0.05    0.05
   0   7  11   11.81    0.42
   0   7  11   11.33    0.40
   0   7  11   11.59    0.41
   1   7  11    0.02    0.06
   1   7  11   -0.03    0.07
   1   7  11   -0.11    0.05
   1   7  11    0.08    0.07
   2   7  11   10.60    0.39
   2   7  11   11.09    0.39
   2   7  11   11.01    0.39
   2   7  11   10.77    0.40
   3   7  11    7.05    0.27
   3   7  11    6.92    0.27
   3   7  11    6.91    0.28
   3   7  11    7.03    0.26
   3   7  11    7.01    0.29
   4   7  11    3.50    0.16
   4   7  11    3.35    0.17
   4   7  11    3.54    0.15
   4   7  11    3.22    0.16
   5   7  11    3.42    0.15
   5   7  11    3.55    0.14
   5   7  11    3.60    0.15
  -3   8  11    0.70    0.06
  -3   8  11    0.72    0.06
  -2   8  11    0.00    0.03
  -2   8  11   -0.03    0.06
  -2   8  11   -0.03    0.03
  -1   8  11    0.33    0.07
  -1   8  11    0.33    0.09
  -1   8  11    0.36    0.07
   0   8  11    1.72    0.13
   0   8  11    1.47    0.11
   0   8  11    1.56    0.11
   1   8  11    2.61    0.14
   1   8  11    2.61    0.16
   1   8  11    2.34    0.16
   1   8  11    2.64    0.15
   2   8  11    0.35    0.09
   2   8  11    0.33    0.10
   2   8  11    0.24    0.07
   2   8  11    0.42    0.09
   3   8  11    6.27    0.25
   3   8  11    6.60    0.25
   3   8  11    6.77    0.26
   3   8  11    5.96    0.25
   3   8  11    6.03    0.23
   4   8  11    0.50    0.07
   4   8  11    0.48    0.07
   4   8  11    0.33    0.07
   4   8  11    0.65    0.08
   5   8  11    3.01    0.12
   5   8  11    3.21    0.12
   5   8  11    2.95    0.13
   2  -9 -11    0.28    0.06
  -2   9  11    0.31    0.05
  -2   9  11    0.35    0.08
  -2   9  11    0.27    0.05
  -1   9  11    2.34    0.12
  -1   9  11    2.26    0.12
  -1   9  11    2.28    0.12
   0   9  11    1.55    0.11
   0   9  11    1.48    0.10
   0   9  11    1.61    0.11
   1   9  11    1.25    0.10
   1   9  11    1.46    0.11
   1   9  11    1.38    0.11
   1   9  11    1.30    0.10
   2   9  11   19.80    0.65
   2   9  11   20.26    0.65
   2   9  11   20.58    0.65
   2   9  11   19.91    0.67
   3   9  11    0.09    0.04
   3   9  11    0.15    0.06
   3   9  11    0.14    0.04
   4   9  11    2.71    0.12
   4   9  11    2.58    0.12
   4   9  11    2.69    0.13
   4   9  11    2.74    0.11
   5   9  11    0.03    0.03
   5   9  11    0.03    0.03
  -2  10  11    0.11    0.05
  -2  10  11   -0.02    0.02
  -2  10  11    0.03    0.03
  -1  10  11    5.93    0.22
  -1  10  11    6.14    0.22
  -1  10  11    6.21    0.22
   0  10  11    0.05    0.04
   0  10  11    0.09    0.04
   0  10  11    0.03    0.04
   1  10  11    0.25    0.06
   1  10  11    0.21    0.05
   1  10  11    0.24    0.06
   1  10  11    0.18    0.06
   2  10  11   12.91    0.42
   2  10  11   12.38    0.43
   2  10  11   12.73    0.42
   2  10  11   12.65    0.42
   3  10  11    5.68    0.21
   3  10  11    5.39    0.20
   3  10  11    5.42    0.20
  -4 -10 -11    0.57    0.08
   4  10  11    0.42    0.06
   4  10  11    0.36    0.05
   4  10  11    0.45    0.05
  -1  11  11   14.85    0.45
  -1  11  11   13.75    0.45
   0  11  11    0.08    0.03
   0  11  11    0.20    0.05
   0  11  11    0.10    0.04
   1  11  11    5.20    0.20
   1  11  11    5.58    0.20
   1  11  11    5.19    0.19
   1  11  11    5.35    0.20
   2  11  11    1.93    0.10
   2  11  11    1.80    0.10
   2  11  11    2.02    0.09
   2  11  11    1.98    0.10
   3  11  11    7.23    0.24
   3  11  11    7.03    0.24
   3  11  11    6.82    0.24
   0  -3  12    1.91    0.09
   0  -3  12    1.88    0.09
   0  -3  12    1.85    0.09
   1  -3  12    0.17    0.04
   1  -3  12    0.19    0.05
   1  -3  12    0.17    0.05
   2  -3  12    0.23    0.04
   2  -3  12    0.12    0.03
   2  -3  12    0.09    0.05
   2  -3  12    0.13    0.04
   3  -3  12    4.34    0.15
   3  -3  12    4.30    0.15
  -1  -2  12    3.13    0.13
  -1  -2  12    3.11    0.14
  -1  -2  12    3.28    0.13
  -1  -2  12    3.52    0.19
   0  -2  12    0.53    0.07
   0  -2  12    0.40    0.06
   0  -2  12    0.51    0.06
   0  -2  12    0.57    0.12
   1  -2  12    0.47    0.07
   1  -2  12    0.43    0.13
   1  -2  12    0.47    0.06
   1  -2  12    0.55    0.06
   1  -2  12    0.40    0.06
   2  -2  12   -0.02    0.05
   2  -2  12   -0.04    0.03
   2  -2  12    0.06    0.12
   2  -2  12    0.02    0.03
   2  -2  12    0.01    0.04
   3  -2  12    4.04    0.15
   3  -2  12    3.97    0.16
   3  -2  12    3.97    0.15
   4  -2  12    0.77    0.05
   4  -2  12    0.74    0.06
   4  -2  12    0.75    0.05
  -2  -1  12    0.60    0.05
  -2  -1  12    0.73    0.06
  -1  -1  12    0.84    0.07
  -1  -1  12    0.94    0.08
  -1  -1  12    0.91    0.08
  -1  -1  12    1.08    0.13
   0  -1  12    6.63    0.24
   0  -1  12    6.71    0.24
   0  -1  12    6.89    0.26
   0  -1  12    6.83    0.29
   1  -1  12    1.07    0.14
   1  -1  12    0.87    0.09
   1  -1  12    0.91    0.08
   1  -1  12    0.99    0.08
   1  -1  12    0.96    0.08
   2  -1  12    5.87    0.21
   2  -1  12    5.92    0.23
   2  -1  12    5.91    0.22
   2  -1  12    5.53    0.28
   2  -1  12    5.73    0.21
   3  -1  12    0.15    0.04
   3  -1  12    0.12    0.04
   3  -1  12    0.11    0.03
   4  -1  12    0.03    0.04
   4  -1  12    0.16    0.04
   4  -1  12    0.09    0.03
  -2   0  12    0.33    0.06
  -2   0  12    0.25    0.05
  -2   0  12    0.14    0.07
  -1   0  12    2.04    0.10
  -1   0  12    1.99    0.11
  -1   0  12    1.89    0.11
  -1   0  12    1.87    0.16
   0   0  12   14.84    0.55
   0   0  12   15.41    0.50
   0   0  12   16.22    0.50
   0   0  12   15.19    0.52
   1   0  12    0.28    0.06
   1   0  12    0.28    0.08
   1   0  12    0.38    0.08
   1   0  12    0.31    0.07
   1   0  12    0.27    0.09
   2   0  12    8.49    0.28
   2   0  12    8.04    0.29
   2   0  12    7.63    0.29
   3   0  12    1.23    0.08
   3   0  12    1.20    0.08
   3   0  12    1.07    0.10
   3   0  12    1.27    0.08
   4   0  12    2.57    0.11
   4   0  12    2.51    0.10
   4   0  12    2.25    0.12
   4   0  12    2.59    0.11
   5   0  12    0.46    0.04
   5   0  12    0.39    0.04
   5   0  12    0.39    0.04
  -3   1  12    6.03    0.20
  -3   1  12    5.78    0.20
  -2   1  12    0.58    0.06
  -2   1  12    0.67    0.12
  -2   1  12    0.53    0.07
  -2   1  12    0.50    0.08
  -1   1  12    8.52    0.34
  -1   1  12    8.78    0.31
  -1   1  12    8.39    0.30
   0   1  12    0.71    0.13
   0   1  12    0.80    0.10
   0   1  12    0.82    0.10
   0   1  12    0.63    0.08
   1   1  12    5.47    0.21
   1   1  12    4.69    0.26
   1   1  12    5.42    0.21
   1   1  12    5.23    0.22
   2   1  12    1.80    0.11
   2   1  12    1.63    0.10
   2   1  12    1.79    0.13
   3   1  12    0.97    0.08
   3   1  12    0.69    0.10
   3   1  12    0.89    0.08
   3   1  12    0.85    0.08
   4   1  12    4.68    0.18
   4   1  12    5.04    0.18
   4   1  12    4.93    0.18
   5   1  12    2.62    0.11
   5   1  12    2.51    0.10
   5   1  12    2.54    0.10
  -3   2  12    9.51    0.31
  -3   2  12    9.61    0.31
  -2   2  12    2.80    0.17
  -2   2  12    2.41    0.13
  -2   2  12    2.41    0.12
  -2   2  12    2.72    0.12
  -1   2  12    3.50    0.17
  -1   2  12    3.49    0.20
  -1   2  12    3.43    0.15
  -1   2  12    3.48    0.16
   0   2  12   12.86    0.45
   0   2  12   12.40    0.48
   0   2  12   13.49    0.43
   1   2  12    4.53    0.26
   1   2  12    4.58    0.21
   1   2  12    4.48    0.20
   1   2  12    4.94    0.20
   2   2  12    0.32    0.09
   2   2  12    0.52    0.09
   2   2  12    0.26    0.09
   3   2  12    5.84    0.22
   3   2  12    6.23    0.22
   3   2  12    5.58    0.22
   4   2  12    4.56    0.18
   4   2  12    4.32    0.18
   4   2  12    4.61    0.18
   4   2  12    4.61    0.18
   5   2  12    0.30    0.05
   5   2  12    0.17    0.04
   5   2  12    0.21    0.04
  -3   3  12    4.45    0.16
  -3   3  12    4.31    0.16
  -2   3  12    0.49    0.07
  -2   3  12    0.59    0.09
  -2   3  12    0.74    0.07
  -1   3  12    0.27    0.08
  -1   3  12    0.25    0.05
  -1   3  12    0.23    0.07
  -1   3  12    0.22    0.06
   0   3  12   13.32    0.51
   0   3  12   14.34    0.48
   0   3  12   14.51    0.46
   0   3  12   13.85    0.48
   2   3  12    0.01    0.06
   2   3  12   -0.07    0.07
   2   3  12    0.04    0.06
   3   3  12    0.81    0.09
   3   3  12    0.95    0.09
   3   3  12    0.89    0.12
   3   3  12    0.87    0.09
   4   3  12   -0.02    0.03
   4   3  12    0.12    0.05
   4   3  12   -0.03    0.04
   4   3  12    0.05    0.05
   5   3  12   -0.01    0.02
   5   3  12   -0.01    0.03
   5   3  12    0.03    0.04
   5   3  12    0.01    0.04
  -3   4  12    7.01    0.25
  -3   4  12    8.24    0.26
  -2   4  12    4.05    0.16
  -2   4  12    3.89    0.16
  -1   4  12    5.25    0.21
  -1   4  12    5.27    0.21
  -1   4  12    5.52    0.26
   0   4  12    3.81    0.17
   0   4  12    3.62    0.23
   0   4  12    3.79    0.18
   2   4  12    2.52    0.18
   2   4  12    2.60    0.14
   2   4  12    1.89    0.15
   3   4  12   11.20    0.39
   3   4  12   11.23    0.38
   3   4  12   11.34    0.40
   4   4  12    1.41    0.09
   4   4  12    1.38    0.11
   4   4  12    1.37    0.10
   4   4  12    1.45    0.09
   5   4  12    0.18    0.05
   5   4  12    0.23    0.04
   5   4  12    0.26    0.06
   5   4  12    0.17    0.04
  -3   5  12    3.34    0.13
  -3   5  12    2.80    0.12
  -2   5  12    2.36    0.11
  -2   5  12    2.21    0.12
  -2   5  12    2.17    0.11
  -1   5  12    0.45    0.09
  -1   5  12    0.40    0.08
  -1   5  12    0.41    0.08
   0   5  12    5.43    0.22
   0   5  12    5.51    0.23
   1   5  12    9.35    0.37
   1   5  12    9.54    0.35
   1   5  12    9.61    0.35
   2   5  12    0.77    0.12
   2   5  12    1.03    0.11
   2   5  12    0.93    0.13
   3   5  12   11.09    0.39
   3   5  12   10.29    0.38
   3   5  12   10.72    0.37
   3   5  12   10.95    0.38
   4   5  12    0.34    0.07
   4   5  12    0.28    0.06
   4   5  12    0.49    0.10
   4   5  12    0.29    0.06
   5   5  12    0.24    0.06
   5   5  12    0.18    0.05
   5   5  12    0.26    0.04
  -3   6  12    1.25    0.07
  -3   6  12    1.29    0.08
   2  -6 -12    6.21    0.27
  -2   6  12    6.40    0.23
  -2   6  12    5.88    0.22
  -2   6  12    6.22    0.23
  -1   6  12    1.80    0.11
  -1   6  12    1.74    0.11
  -1   6  12    1.81    0.11
   0   6  12    6.28    0.25
   0   6  12    6.51    0.25
   1   6  12   15.17    0.50
   1   6  12   14.81    0.50
   1   6  12   14.74    0.51
   2   6  12    1.32    0.12
   2   6  12    1.12    0.11
   2   6  12    1.27    0.13
   2   6  12    0.94    0.14
   3   6  12    0.70    0.09
   3   6  12    0.51    0.08
   3   6  12    0.60    0.09
   3   6  12    0.69    0.11
   4   6  12    8.94    0.30
   4   6  12    8.63    0.32
   4   6  12    8.46    0.30
   4   6  12    8.56    0.30
   5   6  12    1.89    0.09
   5   6  12    1.90    0.09
   5   6  12    1.89    0.10
  -2   7  12    0.37    0.06
  -2   7  12    0.20    0.06
  -1   7  12    1.91    0.11
  -1   7  12    2.02    0.11
   0   7  12    4.03    0.18
   0   7  12    4.47    0.20
   0   7  12    3.84    0.18
   1   7  12    6.50    0.26
   1   7  12    6.54    0.27
   1   7  12    6.39    0.25
   2   7  12    6.50    0.25
   2   7  12    6.47    0.25
   2   7  12    6.14    0.26
   2   7  12    6.14    0.24
   3   7  12    4.37    0.20
   3   7  12    4.45    0.18
   3   7  12    4.32    0.18
   3   7  12    4.24    0.18
   4   7  12    4.49    0.19
   4   7  12    4.86    0.18
   4   7  12    4.80    0.19
   4   7  12    4.77    0.20
   5   7  12    0.60    0.05
   5   7  12    0.54    0.05
   5   7  12    0.63    0.06
  -2   8  12    0.66    0.06
  -2   8  12    0.46    0.05
  -1   8  12    0.00    0.03
  -1   8  12    0.03    0.04
  -1   8  12   -0.02    0.07
   0   8  12    0.79    0.08
   0   8  12    0.87    0.08
   0   8  12    0.90    0.10
   1   8  12   19.02    0.62
   1   8  12   19.04    0.63
   1   8  12   19.91    0.64
   2   8  12   15.06    0.50
   2   8  12   14.88    0.51
   2   8  12   15.16    0.49
   2   8  12   14.60    0.49
   3   8  12    3.08    0.14
   3   8  12    2.79    0.15
   3   8  12    3.10    0.14
   4   8  12    1.88    0.10
   4   8  12    1.86    0.09
   4   8  12    1.81    0.10
   4   8  12    1.73    0.10
  -2   9  12    3.52    0.13
  -2   9  12    3.49    0.13
  -1   9  12    9.79    0.33
  -1   9  12    9.45    0.32
  -1   9  12    9.69    0.32
   0   9  12    1.06    0.08
   0   9  12    1.13    0.08
   0   9  12    0.86    0.09
   1   9  12   11.72    0.39
   1   9  12   11.22    0.40
   1   9  12   11.62    0.39
   2   9  12    1.07    0.09
   2   9  12    0.98    0.08
   2   9  12    1.05    0.09
   2   9  12    0.91    0.08
   3   9  12    0.36    0.07
   3   9  12    0.25    0.06
   3   9  12    0.33    0.06
   4   9  12    6.88    0.24
   4   9  12    6.95    0.24
   4   9  12    7.00    0.24
  -1  10  12    0.21    0.05
  -1  10  12    0.25    0.05
  -1  10  12    0.21    0.04
   0  10  12    0.09    0.03
   0  10  12    0.06    0.03
   0  10  12   -0.05    0.04
   1  10  12    2.45    0.12
   1  10  12    2.42    0.11
   1  10  12    2.37    0.11
   2  10  12   -0.01    0.04
   2  10  12    0.00    0.04
   2  10  12    0.02    0.03
   2  10  12    0.05    0.04
   3  10  12    1.25    0.07
   3  10  12    1.33    0.08
   3  10  12    1.40    0.08
   1  11  12    0.73    0.07
   1  11  12    0.76    0.06
   1  11  12    0.89    0.06
   2  11  12    0.37    0.07
   2  11  12    0.41    0.05
   2  11  12    0.39    0.05
   1  -2  13    1.39    0.07
   1  -2  13    1.16    0.07
   1  -2  13    1.39    0.08
   2  -2  13    0.33    0.05
   2  -2  13    0.38    0.04
  -1  -1  13    6.28    0.22
   0  -1  13    3.65    0.15
   0  -1  13    3.73    0.14
   0  -1  13    3.59    0.14
   1  -1  13    1.56    0.09
   1  -1  13    1.46    0.09
   1  -1  13    1.55    0.08
   2  -1  13    0.98    0.07
   2  -1  13    1.13    0.07
   2  -1  13    0.94    0.07
   3  -1  13    0.48    0.07
   3  -1  13    0.33    0.04
   3  -1  13    0.39    0.05
  -1   0  13    0.04    0.03
  -1   0  13    0.05    0.04
   0   0  13    2.27    0.18
   0   0  13    1.94    0.11
   0   0  13    2.07    0.11
   0   0  13    1.93    0.10
   1   0  13    0.31    0.07
   1   0  13    0.54    0.20
   1   0  13    0.25    0.07
   1   0  13    0.27    0.06
   2   0  13    0.49    0.06
   2   0  13    0.48    0.07
   2   0  13    0.53    0.06
   3   0  13    0.12    0.03
   3   0  13    0.27    0.07
   3   0  13    0.21    0.05
   4   0  13    6.36    0.21
   4   0  13    6.51    0.21
  -2   1  13    2.73    0.12
  -2   1  13    3.04    0.11
  -1   1  13    2.12    0.16
  -1   1  13    2.19    0.10
  -1   1  13    1.87    0.11
   0   1  13    0.75    0.08
   0   1  13    0.93    0.15
   0   1  13    0.76    0.07
   1   1  13    4.13    0.16
   1   1  13    3.98    0.16
   1   1  13    4.11    0.18
   2   1  13    0.77    0.08
   2   1  13    0.75    0.07
   2   1  13    0.87    0.09
   3   1  13    0.13    0.04
   3   1  13    0.13    0.04
   3   1  13    0.16    0.05
   4   1  13    2.34    0.10
   4   1  13    2.33    0.10
   4   1  13    2.28    0.10
  -2   2  13    8.27    0.27
  -1   2  13    0.78    0.06
  -1   2  13    0.79    0.08
  -1   2  13    1.12    0.14
   0   2  13    7.25    0.27
   0   2  13    7.42    0.26
   0   2  13    7.65    0.32
   1   2  13    9.31    0.33
   2   2  13    0.15    0.05
   2   2  13    0.10    0.05
   3   2  13    6.48    0.22
   3   2  13    6.52    0.22
   3   2  13    6.10    0.23
   4   2  13    0.09    0.03
   4   2  13    0.23    0.04
   4   2  13    0.13    0.04
  -2   3  13   17.46    0.55
  -2   3  13   17.74    0.55
  -1   3  13    0.00    0.06
  -1   3  13    0.30    0.08
  -1   3  13    0.06    0.04
  -1   3  13   -0.05    0.09
   0   3  13    0.20    0.05
   3   3  13    4.02    0.16
   3   3  13    3.94    0.16
   3   3  13    4.00    0.16
   4   3  13    1.18    0.08
   4   3  13    1.21    0.07
   4   3  13    1.02    0.07
   5   3  13    0.30    0.04
   5   3  13    0.29    0.04
  -2   4  13    4.66    0.17
  -2   4  13    4.67    0.17
  -1   4  13    0.56    0.08
  -1   4  13    0.58    0.07
   0   4  13    6.64    0.24
   0   4  13    6.76    0.26
   3   4  13    2.96    0.13
   3   4  13    3.07    0.15
   3   4  13    3.04    0.13
   4   4  13    1.61    0.08
   4   4  13    1.55    0.10
   4   4  13    1.53    0.08
   5   4  13    3.13    0.12
   5   4  13    3.10    0.12
  -2   5  13    8.23    0.28
  -2   5  13    8.94    0.29
  -1   5  13    1.34    0.09
  -1   5  13    1.38    0.09
   0   5  13    5.73    0.22
   2   5  13    0.68    0.12
   3   5  13    0.01    0.04
   3   5  13    0.05    0.05
   3   5  13   -0.01    0.06
   4   5  13    4.05    0.16
   4   5  13    4.06    0.16
   4   5  13    4.10    0.15
   5   5  13    2.18    0.09
   5   5  13    2.23    0.09
   5   5  13    2.09    0.10
  -2   6  13    6.96    0.24
  -1   6  13    0.09    0.05
  -1   6  13    0.03    0.05
  -1   6  13    0.01    0.04
   0   6  13    0.18    0.05
   0   6  13    0.33    0.08
   1   6  13   15.36    0.51
   1   6  13   15.63    0.51
   2   6  13    0.00    0.07
   2   6  13    0.10    0.06
   3   6  13    0.09    0.05
   3   6  13    0.09    0.06
   3   6  13    0.10    0.05
   4   6  13    2.08    0.10
   4   6  13    2.13    0.11
   4   6  13    2.15    0.10
  -2   7  13    2.38    0.10
  -2   7  13    2.36    0.10
  -1   7  13    4.70    0.17
  -1   7  13    4.64    0.18
   0   7  13   12.17    0.40
   0   7  13   11.89    0.40
   1   7  13    4.33    0.19
   1   7  13    4.60    0.19
   1   7  13    4.64    0.19
   2   7  13    0.98    0.10
   2   7  13    0.87    0.08
   2   7  13    0.94    0.10
   3   7  13    0.06    0.05
   3   7  13    0.11    0.04
   3   7  13    0.06    0.05
   4   7  13    2.66    0.11
   4   7  13    2.74    0.11
   4   7  13    2.78    0.12
   4   7  13    2.62    0.12
  -1   8  13    2.67    0.11
  -1   8  13    2.62    0.11
   0   8  13    1.49    0.09
   0   8  13    1.24    0.12
   0   8  13    1.37    0.09
   1   8  13    0.82    0.08
   1   8  13    0.77    0.10
   1   8  13    0.76    0.08
   2   8  13    2.75    0.13
   2   8  13    2.68    0.13
   2   8  13    2.62    0.12
   2   8  13    2.60    0.13
   3   8  13    1.65    0.09
   3   8  13    1.58    0.09
   3   8  13    1.65    0.10
   4   8  13    3.80    0.15
   4   8  13    3.90    0.14
   4   8  13    4.10    0.15
  -1   9  13    0.74    0.06
  -1   9  13    0.77    0.05
   0   9  13    1.11    0.07
   0   9  13    1.19    0.10
   0   9  13    1.16    0.08
   1   9  13    4.56    0.18
   1   9  13    4.67    0.17
   1   9  13    4.67    0.18
   2   9  13    3.98    0.16
   2   9  13    3.65    0.15
   2   9  13    3.61    0.15
   2   9  13    3.54    0.15
   3   9  13    0.40    0.06
   3   9  13    0.37    0.05
   3   9  13    0.51    0.06
   1  10  13    0.97    0.07
   1  10  13    0.91    0.06
   1  10  13    0.91    0.08
   2  10  13    0.64    0.05
   2  10  13    0.80    0.07
   1   0  14    3.60    0.14
   2   0  14    2.03    0.10
   0   1  14    5.46    0.19
   0   1  14    5.17    0.19
   1   1  14   12.48    0.41
   2   1  14    0.29    0.07
   3   1  14    0.53    0.07
  -1   2  14    3.22    0.12
   0   2  14    1.51    0.09
   3   2  14    0.83    0.07
  -1   3  14    0.72    0.06
   4   3  14    0.88    0.06
  -1   4  14    4.24    0.16
   4   4  14    0.13    0.04
   4   4  14    0.13    0.04
  -1   5  14    8.79    0.29
   4   5  14    4.38    0.15
  -1   6  14   14.93    0.47
   0   6  14    0.46    0.09
   3   6  14    0.00    0.06
   4   6  14    2.73    0.11
  -1   7  14    5.56    0.19
   0   7  14    0.04    0.05
   0   7  14    0.17    0.06
   1   7  14    2.71    0.13
   2   7  14    3.18    0.14
   2   7  14    3.02    0.15
   3   7  14    0.96    0.12
   3   7  14    0.87    0.08
   0   8  14    0.32    0.06
   0   8  14    0.39    0.06
   1   8  14    3.07    0.12
   1   8  14    2.88    0.13
   2   8  14    3.85    0.16
   2   8  14    4.10    0.15
   3   8  14    1.67    0.09
   1   9  14    1.54    0.08
   0   0   0    0.00    0.00
;
_shelx_hkl_checksum              16007
_shelx_res_file
;
    JTM603_0m.res created by SHELXL-2014/7
TITL JTM603_0m_a.res in P-1
REM Old TITL JTM603_0m in P-1
REM SHELXT solution in P-1
REM R1 0.105,  Rweak 0.006,  Alpha 0.036,  Orientation as input
REM Formula found by SHELXT:  C15 N2 O4 S
CELL  1.54178   6.1957  10.6460  12.2909   68.845   78.971   84.919
ZERR    2.000   0.0002   0.0003   0.0003    0.001    0.001    0.001
LATT  1
SFAC C H N O S
UNIT 30 30 2 10 2
TEMP -123
SIZE 0.04 0.11 0.21
L.S. 5
BOND $H
LIST 4
FMAP 2
PLAN 5
CONF
OMIT 1 1 5
MPLA C1 > C6
MPLA C9 > C11 N1 S1
EQIV $1 -x, -y+1, -z+1
HTAB C8 O2_$1
ACTA 140
WGHT    0.040300    0.240700
EXTI    0.007145
FVAR       0.21392
S1    5    0.341565    0.503549    0.125957    11.00000    0.02626    0.02999 =
         0.01769   -0.01115   -0.00117    0.00376
O1    4    1.108381    0.147274    0.455916    11.00000    0.02586    0.03049 =
         0.03008   -0.01113   -0.00738    0.00596
O2    4   -0.084236    0.602957    0.354285    11.00000    0.02567    0.03333 =
         0.02079   -0.01254    0.00030    0.00361
O3    4    0.098301    0.645163   -0.034819    11.00000    0.04101    0.03570 =
         0.01862   -0.00936   -0.00623    0.00380
O4    4   -0.010870    0.898432    0.134939    11.00000    0.02698    0.03074 =
         0.04553   -0.01235   -0.00662   -0.00211
O5    4   -0.375261    0.924341    0.132430    11.00000    0.02573    0.02592 =
         0.06284   -0.01901   -0.00824    0.00397
N1    3   -0.026279    0.631666    0.157780    11.00000    0.02471    0.02435 =
         0.02007   -0.00872   -0.00437    0.00330
C1    1    0.529002    0.368769    0.388331    11.00000    0.02188    0.02191 =
         0.02062   -0.00829   -0.00190   -0.00251
C2    1    0.579251    0.322009    0.502959    11.00000    0.02417    0.02656 =
         0.02081   -0.01017   -0.00108   -0.00128
AFIX  43
H2    2    0.479923    0.342113    0.563952    11.00000   -1.20000
AFIX   0
C3    1    0.769535    0.247232    0.530292    11.00000    0.02779    0.02626 =
         0.02117   -0.00792   -0.00562   -0.00207
AFIX  43
H3    2    0.799460    0.216285    0.608814    11.00000   -1.20000
AFIX   0
C4    1    0.915765    0.218326    0.440811    11.00000    0.02160    0.02121 =
         0.02776   -0.00864   -0.00483   -0.00058
C5    1    0.869304    0.263867    0.325664    11.00000    0.02467    0.02572 =
         0.02345   -0.01070   -0.00001    0.00047
AFIX  43
H5    2    0.969311    0.243957    0.264788    11.00000   -1.20000
AFIX   0
C6    1    0.679656    0.337309    0.300066    11.00000    0.02531    0.02501 =
         0.01986   -0.00825   -0.00265   -0.00118
AFIX  43
H6    2    0.649922    0.367266    0.221546    11.00000   -1.20000
AFIX   0
C7    1    1.160065    0.096558    0.573008    11.00000    0.03112    0.03078 =
         0.03322   -0.00992   -0.01229    0.00337
AFIX 137
H7A   2    1.301595    0.047549    0.572480    11.00000   -1.50000
H7B   2    1.044837    0.035562    0.626841    11.00000   -1.50000
H7C   2    1.169138    0.171851    0.599846    11.00000   -1.50000
AFIX   0
C8    1    0.326536    0.446933    0.368904    11.00000    0.02149    0.02355 =
         0.01976   -0.00954    0.00070   -0.00234
AFIX  43
H8    2    0.241615    0.459293    0.437471    11.00000   -1.20000
AFIX   0
C9    1    0.239823    0.504661    0.269495    11.00000    0.02129    0.02276 =
         0.01930   -0.00954    0.00103   -0.00136
C10   1    0.029726    0.581714    0.270508    11.00000    0.02278    0.02115 =
         0.01956   -0.00776   -0.00233   -0.00189
C11   1    0.118199    0.605382    0.068209    11.00000    0.02935    0.02257 =
         0.02018   -0.00863   -0.00218   -0.00228
C12   1   -0.219958    0.717375    0.135859    11.00000    0.02407    0.02672 =
         0.02764   -0.01081   -0.00748    0.00339
AFIX  23
H12A  2   -0.346147    0.676456    0.198357    11.00000   -1.20000
H12B  2   -0.256138    0.724393    0.058798    11.00000   -1.20000
AFIX   0
C13   1   -0.183700    0.856854    0.134354    11.00000    0.02493    0.02626 =
         0.02203   -0.00739   -0.00226    0.00126
C14   1   -0.374523    1.065229    0.120947    11.00000    0.03547    0.02433 =
         0.05950   -0.01623   -0.00292    0.00150
AFIX  23
H14A  2   -0.344721    1.123258    0.036344    11.00000   -1.20000
H14B  2   -0.259044    1.079783    0.160546    11.00000   -1.20000
AFIX   0
C15   1   -0.596023    1.098684    0.178019    11.00000    0.03922    0.03382 =
         0.05480   -0.02038   -0.00224    0.00568
AFIX 137
H15A  2   -0.607678    1.195655    0.163233    11.00000   -1.50000
H15B  2   -0.615982    1.048986    0.263533    11.00000   -1.50000
H15C  2   -0.709846    1.073377    0.144763    11.00000   -1.50000
AFIX   0
HKLF 4
REM  JTM603_0m_a.res in P-1
REM R1 =  0.0302 for    2690 Fo > 4sig(Fo)  and  0.0324 for all    2884 data
REM    202 parameters refined using      0 restraints
END
WGHT      0.0403      0.2412
REM Highest difference peak  0.287,  deepest hole -0.228,  1-sigma level  0.047
Q1    1   0.1337  0.5326  0.2748  11.00000  0.05    0.29
Q2    1   0.0078  0.6129  0.1992  11.00000  0.05    0.25
Q3    1  -0.1035  0.6750  0.1435  11.00000  0.05    0.22
Q4    1  -0.2056  0.7783  0.1375  11.00000  0.05    0.21
Q5    1   0.5659  0.3336  0.3550  11.00000  0.05    0.21
;
_shelx_res_checksum              39615
loop_
_space_group_symop_operation_xyz
'x, y, z'
'-x, -y, -z'
loop_
_atom_site_type_symbol
_atom_site_label
_atom_site_fract_x
_atom_site_fract_y
_atom_site_fract_z
_atom_site_U_iso_or_equiv
_atom_site_adp_type
_atom_site_calc_flag
_atom_site_occupancy
S S1 0.34156(5) 0.50355(3) 0.12596(3) 0.02452(11) Uani d 1
O O1 1.10838(15) 0.14727(10) 0.45592(8) 0.0287(2) Uani d 1
O O2 -0.08424(15) 0.60296(10) 0.35429(8) 0.0266(2) Uani d 1
O O3 0.09830(17) 0.64516(10) -0.03482(8) 0.0320(2) Uani d 1
O O4 -0.01087(16) 0.89843(10) 0.13494(10) 0.0346(2) Uani d 1
O O5 -0.37526(16) 0.92434(10) 0.13243(11) 0.0374(3) Uani d 1
N N1 -0.02628(17) 0.63167(11) 0.15778(9) 0.0230(2) Uani d 1
C C1 0.5290(2) 0.36877(12) 0.38833(11) 0.0214(3) Uani d 1
C C2 0.5793(2) 0.32201(13) 0.50296(11) 0.0237(3) Uani d 1
H H2 0.4799 0.3421 0.5640 0.028 Uiso calc 1
C C3 0.7695(2) 0.24723(13) 0.53029(11) 0.0249(3) Uani d 1
H H3 0.7995 0.2163 0.6088 0.030 Uiso calc 1
C C4 0.9158(2) 0.21833(13) 0.44081(12) 0.0234(3) Uani d 1
C C5 0.8693(2) 0.26387(13) 0.32566(12) 0.0247(3) Uani d 1
H H5 0.9693 0.2440 0.2648 0.030 Uiso calc 1
C C6 0.6797(2) 0.33731(13) 0.30007(11) 0.0234(3) Uani d 1
H H6 0.6499 0.3673 0.2215 0.028 Uiso calc 1
C C7 1.1601(2) 0.09656(15) 0.57301(13) 0.0314(3) Uani d 1
H H7A 1.3016 0.0475 0.5725 0.047 Uiso calc 1
H H7B 1.0448 0.0356 0.6268 0.047 Uiso calc 1
H H7C 1.1691 0.1719 0.5998 0.047 Uiso calc 1
C C8 0.3265(2) 0.44693(12) 0.36890(11) 0.0215(3) Uani d 1
H H8 0.2416 0.4593 0.4375 0.026 Uiso calc 1
C C9 0.2398(2) 0.50466(12) 0.26949(11) 0.0211(3) Uani d 1
C C10 0.0297(2) 0.58171(12) 0.27051(11) 0.0211(3) Uani d 1
C C11 0.1182(2) 0.60538(13) 0.06821(11) 0.0239(3) Uani d 1
C C12 -0.2200(2) 0.71737(13) 0.13586(12) 0.0256(3) Uani d 1
H H12A -0.3461 0.6765 0.1984 0.031 Uiso calc 1
H H12B -0.2561 0.7244 0.0588 0.031 Uiso calc 1
C C13 -0.1837(2) 0.85685(13) 0.13435(11) 0.0251(3) Uani d 1
C C14 -0.3745(3) 1.06523(15) 0.12095(16) 0.0402(4) Uani d 1
H H14A -0.3447 1.1233 0.0363 0.048 Uiso calc 1
H H14B -0.2590 1.0798 0.1605 0.048 Uiso calc 1
C C15 -0.5960(3) 1.09868(16) 0.17802(16) 0.0425(4) Uani d 1
H H15A -0.6077 1.1957 0.1632 0.064 Uiso calc 1
H H15B -0.6160 1.0490 0.2635 0.064 Uiso calc 1
H H15C -0.7098 1.0734 0.1448 0.064 Uiso calc 1
loop_
_atom_site_aniso_label
_atom_site_aniso_U_11
_atom_site_aniso_U_22
_atom_site_aniso_U_33
_atom_site_aniso_U_12
_atom_site_aniso_U_13
_atom_site_aniso_U_23
S1 0.02626(17) 0.02999(18) 0.01769(17) 0.00376(12) -0.00117(11) -0.01115(12)
O1 0.0259(5) 0.0305(5) 0.0301(5) 0.0060(4) -0.0074(4) -0.0111(4)
O2 0.0257(5) 0.0333(5) 0.0208(5) 0.0036(4) 0.0003(3) -0.0125(4)
O3 0.0410(6) 0.0357(5) 0.0186(5) 0.0038(4) -0.0062(4) -0.0094(4)
O4 0.0270(5) 0.0307(5) 0.0455(6) -0.0021(4) -0.0066(4) -0.0124(4)
O5 0.0257(5) 0.0259(5) 0.0628(7) 0.0040(4) -0.0082(5) -0.0190(5)
N1 0.0247(5) 0.0243(5) 0.0201(5) 0.0033(4) -0.0044(4) -0.0087(4)
C1 0.0219(6) 0.0219(6) 0.0206(6) -0.0025(5) -0.0019(5) -0.0083(5)
C2 0.0242(6) 0.0266(6) 0.0208(6) -0.0013(5) -0.0011(5) -0.0102(5)
C3 0.0278(6) 0.0263(6) 0.0212(6) -0.0021(5) -0.0056(5) -0.0079(5)
C4 0.0216(6) 0.0212(6) 0.0278(7) -0.0006(5) -0.0048(5) -0.0086(5)
C5 0.0247(6) 0.0257(6) 0.0234(6) 0.0005(5) 0.0000(5) -0.0107(5)
C6 0.0253(6) 0.0250(6) 0.0199(6) -0.0012(5) -0.0026(5) -0.0083(5)
C7 0.0311(7) 0.0308(7) 0.0332(7) 0.0034(5) -0.0123(6) -0.0099(6)
C8 0.0215(6) 0.0236(6) 0.0198(6) -0.0023(5) 0.0007(5) -0.0095(5)
C9 0.0213(6) 0.0228(6) 0.0193(6) -0.0014(5) 0.0010(4) -0.0095(5)
C10 0.0228(6) 0.0211(6) 0.0196(6) -0.0019(5) -0.0023(4) -0.0078(5)
C11 0.0293(6) 0.0226(6) 0.0202(6) -0.0023(5) -0.0022(5) -0.0086(5)
C12 0.0241(6) 0.0267(7) 0.0276(7) 0.0034(5) -0.0075(5) -0.0108(5)
C13 0.0249(6) 0.0263(6) 0.0220(6) 0.0013(5) -0.0023(5) -0.0074(5)
C14 0.0355(8) 0.0243(7) 0.0595(10) 0.0015(6) -0.0029(7) -0.0162(7)
C15 0.0392(8) 0.0338(8) 0.0548(10) 0.0057(6) -0.0022(7) -0.0204(7)
loop_
_atom_type_symbol
_atom_type_description
_atom_type_scat_dispersion_real
_atom_type_scat_dispersion_imag
_atom_type_scat_source
C C 0.0181 0.0091 'International Tables Vol C Tables 4.2.6.8 and 6.1.1.4'
H H 0.0000 0.0000 'International Tables Vol C Tables 4.2.6.8 and 6.1.1.4'
N N 0.0311 0.0180 'International Tables Vol C Tables 4.2.6.8 and 6.1.1.4'
O O 0.0492 0.0322 'International Tables Vol C Tables 4.2.6.8 and 6.1.1.4'
S S 0.3331 0.5567 'International Tables Vol C Tables 4.2.6.8 and 6.1.1.4'
loop_
_geom_angle_atom_site_label_1
_geom_angle_atom_site_label_2
_geom_angle_atom_site_label_3
_geom_angle
C9 S1 C11 92.26(6)
C4 O1 C7 117.16(10)
C13 O5 C14 117.70(11)
C11 N1 C10 117.36(10)
C11 N1 C12 122.13(11)
C10 N1 C12 120.30(10)
C2 C1 C6 117.48(11)
C2 C1 C8 117.80(11)
C6 C1 C8 124.71(11)
C3 C2 C1 122.14(12)
C3 C2 H2 118.9
C1 C2 H2 118.9
C2 C3 C4 118.96(12)
C2 C3 H3 120.5
C4 C3 H3 120.5
O1 C4 C3 124.62(12)
O1 C4 C5 115.40(11)
C3 C4 C5 119.98(12)
C6 C5 C4 120.38(11)
C6 C5 H5 119.8
C4 C5 H5 119.8
C5 C6 C1 121.05(12)
C5 C6 H6 119.5
C1 C6 H6 119.5
O1 C7 H7A 109.5
O1 C7 H7B 109.5
H7A C7 H7B 109.5
O1 C7 H7C 109.5
H7A C7 H7C 109.5
H7B C7 H7C 109.5
C9 C8 C1 130.43(11)
C9 C8 H8 114.8
C1 C8 H8 114.8
C8 C9 C10 120.98(11)
C8 C9 S1 129.07(10)
C10 C9 S1 109.95(9)
O2 C10 N1 122.09(11)
O2 C10 C9 127.40(11)
N1 C10 C9 110.50(10)
O3 C11 N1 125.70(12)
O3 C11 S1 124.43(10)
N1 C11 S1 109.87(9)
N1 C12 C13 111.19(10)
N1 C12 H12A 109.4
C13 C12 H12A 109.4
N1 C12 H12B 109.4
C13 C12 H12B 109.4
H12A C12 H12B 108.0
O4 C13 O5 126.15(13)
O4 C13 C12 125.21(12)
O5 C13 C12 108.64(11)
O5 C14 C15 107.30(12)
O5 C14 H14A 110.3
C15 C14 H14A 110.3
O5 C14 H14B 110.3
C15 C14 H14B 110.3
H14A C14 H14B 108.5
C14 C15 H15A 109.5
C14 C15 H15B 109.5
H15A C15 H15B 109.5
C14 C15 H15C 109.5
H15A C15 H15C 109.5
H15B C15 H15C 109.5
loop_
_geom_bond_atom_site_label_1
_geom_bond_atom_site_label_2
_geom_bond_distance
S1 C9 1.7602(12)
S1 C11 1.7745(13)
O1 C4 1.3617(15)
O1 C7 1.4318(16)
O2 C10 1.2131(15)
O3 C11 1.2089(16)
O4 C13 1.1966(17)
O5 C13 1.3315(16)
O5 C14 1.4553(17)
N1 C11 1.3757(16)
N1 C10 1.3937(16)
N1 C12 1.4482(15)
C1 C2 1.4014(18)
C1 C6 1.4070(17)
C1 C8 1.4523(17)
C2 C3 1.3888(18)
C2 H2 0.9500
C3 C4 1.3924(18)
C3 H3 0.9500
C4 C5 1.3989(18)
C5 C6 1.3755(18)
C5 H5 0.9500
C6 H6 0.9500
C7 H7A 0.9800
C7 H7B 0.9800
C7 H7C 0.9800
C8 C9 1.3453(18)
C8 H8 0.9500
C9 C10 1.4763(17)
C12 C13 1.5144(18)
C12 H12A 0.9900
C12 H12B 0.9900
C14 C15 1.493(2)
C14 H14A 0.9900
C14 H14B 0.9900
C15 H15A 0.9800
C15 H15B 0.9800
C15 H15C 0.9800
loop_
_geom_hbond_atom_site_label_D
_geom_hbond_atom_site_label_H
_geom_hbond_atom_site_label_A
_geom_hbond_site_symmetry_A
_geom_hbond_distance_DH
_geom_hbond_distance_HA
_geom_hbond_distance_DA
_geom_hbond_angle_DHA
C8 H8 O2 2_566 0.95 2.42 3.3157(15) 156
loop_
_geom_torsion_atom_site_label_1
_geom_torsion_atom_site_label_2
_geom_torsion_atom_site_label_3
_geom_torsion_atom_site_label_4
_geom_torsion
C6 C1 C2 C3 -0.04(19)
C8 C1 C2 C3 -179.58(11)
C1 C2 C3 C4 0.3(2)
C7 O1 C4 C3 1.50(19)
C7 O1 C4 C5 -178.81(11)
C2 C3 C4 O1 179.34(12)
C2 C3 C4 C5 -0.33(19)
O1 C4 C5 C6 -179.66(11)
C3 C4 C5 C6 0.0(2)
C4 C5 C6 C1 0.3(2)
C2 C1 C6 C5 -0.26(19)
C8 C1 C6 C5 179.24(12)
C2 C1 C8 C9 179.20(13)
C6 C1 C8 C9 -0.3(2)
C1 C8 C9 C10 -179.34(12)
C1 C8 C9 S1 1.0(2)
C11 S1 C9 C8 -178.85(13)
C11 S1 C9 C10 1.48(9)
C11 N1 C10 O2 177.90(12)
C12 N1 C10 O2 3.09(19)
C11 N1 C10 C9 -1.53(15)
C12 N1 C10 C9 -176.34(10)
C8 C9 C10 O2 0.6(2)
S1 C9 C10 O2 -179.72(11)
C8 C9 C10 N1 179.97(11)
S1 C9 C10 N1 -0.33(13)
C10 N1 C11 O3 -177.26(12)
C12 N1 C11 O3 -2.6(2)
C10 N1 C11 S1 2.64(14)
C12 N1 C11 S1 177.35(9)
C9 S1 C11 O3 177.61(12)
C9 S1 C11 N1 -2.30(10)
C11 N1 C12 C13 -101.22(14)
C10 N1 C12 C13 73.34(15)
C14 O5 C13 O4 5.0(2)
C14 O5 C13 C12 -175.08(13)
N1 C12 C13 O4 9.47(19)
N1 C12 C13 O5 -170.46(11)
C13 O5 C14 C15 -152.82(14)

_cod_database_fobs_code 1543622
