#------------------------------------------------------------------------------
#$Date: 2016-11-08 21:25:16 +0200 (Tue, 08 Nov 2016) $
#$Revision: 188062 $
#$URL: file:///home/coder/svn-repositories/cod/cif/1/54/37/1543712.cif $
#------------------------------------------------------------------------------
#
# This file is available in the Crystallography Open Database (COD),
# http://www.crystallography.net/
#
# All data on this site have been placed in the public domain by the
# contributors.
#
data_1543712
loop_
_publ_author_name
'McGuirk, C. Michael'
'Mendez-Arroyo, Jose'
'd'Aquino, Andrea I.'
'Stern, Charlotte L.'
'Liu, Yuan'
'Mirkin, Chad A.'
_publ_section_title
;
 A concerted two-prong approach to the in situ allosteric regulation of
 bifunctional catalysis
;
_journal_issue                   11
_journal_name_full               'Chem. Sci.'
_journal_page_first              6674
_journal_paper_doi               10.1039/C6SC01454B
_journal_volume                  7
_journal_year                    2016
_chemical_absolute_configuration ad
_chemical_formula_moiety         '2(C44 H46 N4 O3 P S), C H2 Cl2, 2(H2 O)'
_chemical_formula_sum            'C89 H98 Cl2 N8 O8 P2 S2'
_chemical_formula_weight         1604.71
_chemical_name_systematic
;
 ?
;
_space_group_crystal_system      monoclinic
_space_group_IT_number           5
_space_group_name_Hall           'C 2y'
_space_group_name_H-M_alt        'C 1 2 1'
_symmetry_space_group_name_Hall  'C 2y'
_symmetry_space_group_name_H-M   'C 1 2 1'
_atom_sites_solution_hydrogens   mixed
_atom_sites_solution_primary     direct
_audit_creation_date             2014-09-23
_audit_creation_method
;
Olex2 1.2
(compiled 2014.09.19 svn.r3010 for OlexSys, GUI svn.r4874)
;
_audit_update_record
;
2016-03-21 deposited with the CCDC.
2016-07-12 downloaded from the CCDC.
;
_cell_angle_alpha                90
_cell_angle_beta                 103.831(3)
_cell_angle_gamma                90
_cell_formula_units_Z            2
_cell_length_a                   48.8875(19)
_cell_length_b                   6.1721(2)
_cell_length_c                   13.7803(5)
_cell_measurement_reflns_used    9936
_cell_measurement_temperature    100(2)
_cell_measurement_theta_max      65.073
_cell_measurement_theta_min      3.303
_cell_volume                     4037.5(3)
_computing_cell_refinement       'SAINT V7.23A (Bruker, 2005)'
_computing_data_collection       'APEX2 V2.1-4 (Bruker, 2007)'
_computing_data_reduction        'Bruker SAINT'
_computing_molecular_graphics    'Olex2 (Dolomanov et al., 2009)'
_computing_publication_material  'Olex2 (Dolomanov et al., 2009)'
_computing_structure_refinement  'ShelXL (Sheldrick, 2008)'
_computing_structure_solution    'ShelXT (Sheldrick, 2008)'
_diffrn_ambient_temperature      100.0
_diffrn_detector_area_resol_mean 8
_diffrn_measured_fraction_theta_full 0.931
_diffrn_measured_fraction_theta_max 0.987
_diffrn_measurement_device_type  'Bruker Kappa APEX CCD area detector'
_diffrn_measurement_method       '\w and \f scans'
_diffrn_radiation_monochromator  'MX optics'
_diffrn_radiation_type           CuK\a
_diffrn_radiation_wavelength     1.54178
_diffrn_reflns_av_R_equivalents  0.0346
_diffrn_reflns_av_unetI/netI     0.0418
_diffrn_reflns_Laue_measured_fraction_full 0.931
_diffrn_reflns_Laue_measured_fraction_max 0.987
_diffrn_reflns_limit_h_max       56
_diffrn_reflns_limit_h_min       -56
_diffrn_reflns_limit_k_max       7
_diffrn_reflns_limit_k_min       -7
_diffrn_reflns_limit_l_max       16
_diffrn_reflns_limit_l_min       -15
_diffrn_reflns_number            15230
_diffrn_reflns_point_group_measured_fraction_full 0.909
_diffrn_reflns_point_group_measured_fraction_max 0.966
_diffrn_reflns_theta_full        67.679
_diffrn_reflns_theta_max         65.137
_diffrn_reflns_theta_min         3.303
_diffrn_source                   microsource
_exptl_absorpt_coefficient_mu    2.084
_exptl_absorpt_correction_T_max  0.7526
_exptl_absorpt_correction_T_min  0.6352
_exptl_absorpt_correction_type   multi-scan
_exptl_absorpt_process_details
;
SADABS-2012/1 (Bruker,2012) was used for absorption correction.
wR2(int) was 0.0655 before and 0.0436 after correction.
The Ratio of minimum to maximum transmission is 0.8440.
The \l/2 correction factor is 0.0015.
;
_exptl_crystal_colour            colourless
_exptl_crystal_density_diffrn    1.320
_exptl_crystal_description       plate
_exptl_crystal_F_000             1696
_exptl_crystal_recrystallization_method 'Vapour deposition'
_exptl_crystal_size_max          0.11
_exptl_crystal_size_mid          0.092
_exptl_crystal_size_min          0.011
_refine_diff_density_max         0.405
_refine_diff_density_min         -0.799
_refine_diff_density_rms         0.065
_refine_ls_abs_structure_details
;
 Flack x determined using 2613 quotients [(I+)-(I-)]/[(I+)+(I-)]
 (Parsons and Flack (2004), Acta Cryst. A60, s61).
;
_refine_ls_abs_structure_Flack   0.019(16)
_refine_ls_extinction_method     none
_refine_ls_goodness_of_fit_ref   1.042
_refine_ls_hydrogen_treatment    constr
_refine_ls_matrix_type           full
_refine_ls_number_parameters     598
_refine_ls_number_reflns         6673
_refine_ls_number_restraints     251
_refine_ls_restrained_S_all      1.028
_refine_ls_R_factor_all          0.0517
_refine_ls_R_factor_gt           0.0488
_refine_ls_shift/su_max          0.002
_refine_ls_shift/su_mean         0.000
_refine_ls_structure_factor_coef Fsqd
_refine_ls_weighting_details
'w=1/[\s^2^(Fo^2^)+(0.0754P)^2^+7.7088P] where P=(Fo^2^+2Fc^2^)/3'
_refine_ls_weighting_scheme      calc
_refine_ls_wR_factor_gt          0.1288
_refine_ls_wR_factor_ref         0.1311
_reflns_Friedel_coverage         0.774
_reflns_Friedel_fraction_full    0.883
_reflns_Friedel_fraction_max     0.941
_reflns_number_gt                6308
_reflns_number_total             6673
_reflns_threshold_expression     'I > 2\s(I)'
_cod_data_source_file            c6sc01454b2.cif
_cod_data_source_block           cx0040a
_cod_depositor_comments
'Adding full bibliography for 1543711--1543714.cif.'
_cod_database_code               1543712
_shelxl_version_number           2013-4
_shelx_space_group_comment
;
The symmetry employed for this shelxl refinement is uniquely defined
by the following loop, which should always be used as a source of
symmetry information in preference to the above space-group names.
They are only intended as comments.
;
_shelx_estimated_absorpt_t_max   0.977
_shelx_estimated_absorpt_t_min   0.803
_olex2_refinement_description
;
1. Fixed Uiso
 At 1.2 times of:
  All C(H) groups, All C(H,H) groups, All N(H) groups
 At 1.5 times of:
  All C(H,H,H) groups, All O(H,H) groups
2. Rigid bond restraints
 C2, C3, C4, C5, C6, C2A, C3A, C4A, C5A, C6A
 with sigma for 1-2 distances of 0.01 and sigma for 1-3 distances of 0.01
 C8, C9, C10, C11, C12, C8A, C9A, C10A, C11A, C12A
 with sigma for 1-2 distances of 0.01 and sigma for 1-3 distances of 0.01
3. Uiso/Uaniso restraints and constraints
C2 \\sim C3 \\sim C4 \\sim C5 \\sim C6 \\sim C2A \\sim C3A \\sim C4A \\sim C5A
\\sim C6A: within 1.7A with sigma of 0.01 and sigma for terminal atoms of 0.02
C8 \\sim C9 \\sim C10 \\sim C11 \\sim C12 \\sim C8A \\sim C9A \\sim C10A \\sim
C11A \\sim C12A: within 1.7A with sigma of 0.01 and sigma for terminal atoms of
0.02
4. Others
 Sof(C2A)=Sof(H2AA)=Sof(C3A)=Sof(H3A)=Sof(C4A)=Sof(H4AA)=Sof(C5A)=Sof(H5A)=
 Sof(C6A)=Sof(H6A)=1-FVAR(1)
 Sof(C2)=Sof(H2A)=Sof(C3)=Sof(H3)=Sof(C4)=Sof(H4A)=Sof(C5)=Sof(H5)=Sof(C6)=
 Sof(H6)=FVAR(1)
 Sof(C8A)=Sof(H8A)=Sof(C9A)=Sof(H9A)=Sof(C10A)=Sof(H10A)=Sof(C11A)=Sof(H11A)=
 Sof(C12A)=Sof(H12A)=1-FVAR(2)
 Sof(C8)=Sof(H8)=Sof(C9)=Sof(H9)=Sof(C10)=Sof(H10)=Sof(C11)=Sof(H11)=Sof(C12)=
 Sof(H12)=FVAR(2)
 Fixed Sof: H1SA(0.5) H1SB(0.5)
5.a Free rotating group:
 O1S(H1SC,H1SD)
5.b Ternary CH refined with riding coordinates:
 N4(H4), C25(H25), C36(H36), C38(H38), C42(H42)
5.c Secondary CH2 refined with riding coordinates:
 C13(H13A,H13B), C14(H14A,H14B), C37(H37A,H37B), C39(H39A,H39B), C40(H40A,
 H40B), C41(H41A,H41B), C43(H43A,H43B), C1S(H1SA,H1SB)
5.d Aromatic/amide H refined with riding coordinates:
 N1(H1), N2(H2), C2(H2A), C3(H3), C4(H4A), C5(H5), C6(H6), C8(H8), C9(H9),
 C10(H10), C11(H11), C12(H12), C16(H16), C17(H17), C19(H19), C20(H20), C27(H27),
  C28(H28), C30(H30), C31(H31), C33(H33), C2A(H2AA), C3A(H3A), C4A(H4AA),
 C5A(H5A), C6A(H6A), C8A(H8A), C9A(H9A), C10A(H10A), C11A(H11A), C12A(H12A)
5.e Idealised Me refined as rotating group:
 C35(H35A,H35B,H35C), C44(H44A,H44B,H44C)
;
_shelx_res_file
;
TITL cx0040a in C2
CELL 1.54178 48.8875 6.1721 13.7803 90 103.8311 90
ZERR 2 0.0019 0.0002 0.0005 0 0.0026 0
LATT -7
SYMM -X,+Y,-Z

SFAC C H Cl N O P S
UNIT 178 196 4 16 16 4 4
DELU C2 C3 C4 C5 C6 C2A C3A C4A C5A C6A
DELU C8 C9 C10 C11 C12 C8A C9A C10A C11A C12A
SIMU 0.01 0.02 1.7 C2 C3 C4 C5 C6 C2A C3A C4A C5A C6A
SIMU 0.01 0.02 1.7 C8 C9 C10 C11 C12 C8A C9A C10A C11A C12A

L.S. 5
PLAN  20
SIZE 0.011 0.092 0.11
TEMP -173.15
REM Solution 1 R1 0.135 Rweak 0.046, Alpha = 0.0076 in C2
BOND $h
acta
wpdb -2
fmap 2
MORE -1
CONF
REM <HKL>Z:/Charlotte/cx0040a/cx0040a.hkl</HKL>

WGHT    0.075400    7.708800
FVAR       0.11727   0.73910   0.41601
S1    7    0.569461    0.337237    0.030663    11.00000    0.01431    0.04154 =
         0.03006    0.00313    0.00254    0.00369
P1    6    0.565250   -0.121618    0.277918    11.00000    0.03482    0.04371 =
         0.02459   -0.00413   -0.00017    0.00469
O1    5    0.699529    0.824822    0.115760    11.00000    0.02079    0.00937 =
         0.01306    0.00335    0.00321    0.00045
O2    5    0.762730    0.801162    0.252959    11.00000    0.01976    0.01067 =
         0.01492   -0.00416    0.00143   -0.00147
O3    5    0.848362    0.919315    0.526431    11.00000    0.03098    0.01844 =
         0.01372   -0.00056    0.00249   -0.00895
N1    4    0.695128    0.284129    0.123595    11.00000    0.01654    0.00603 =
         0.01347   -0.00187    0.00339    0.00002
AFIX  43
H1    2    0.701782    0.154216    0.116322    11.00000   -1.20000
AFIX   0
N2    4    0.759731    0.273390    0.255505    11.00000    0.01637    0.00794 =
         0.00860    0.00027    0.00145   -0.00222
AFIX  43
H2    2    0.754067    0.137857    0.247192    11.00000   -1.20000
AFIX   0
N4    4    0.804516    0.220403    0.163211    11.00000    0.01619    0.01584 =
         0.00644   -0.00085    0.00146   -0.00018
AFIX  13
H4    2    0.784930    0.175457    0.129037    11.00000   -1.20000
AFIX   0
N28   4    0.794164    0.199631    0.629949    11.00000    0.02765    0.01738 =
         0.01287   -0.00055    0.00849   -0.00382
C1    1    0.568971   -0.022370    0.406001    11.00000    0.02504    0.04002 =
         0.02373    0.00299    0.00030   -0.00109
PART 1
C2    1    0.591045    0.105341    0.450620    21.00000    0.03895    0.05265 =
         0.02427    0.00675    0.00223   -0.01256
AFIX  43
H2A   2    0.604260    0.146817    0.413505    21.00000   -1.20000
AFIX   0
C3    1    0.594973    0.176919    0.547699    21.00000    0.04926    0.05494 =
         0.02807    0.00009   -0.00037   -0.01748
AFIX  43
H3    2    0.610254    0.270543    0.575595    21.00000   -1.20000
AFIX   0
C4    1    0.576916    0.113166    0.603440    21.00000    0.04298    0.05906 =
         0.02218    0.00211   -0.00150   -0.00538
AFIX  43
H4A   2    0.579244    0.169080    0.669141    21.00000   -1.20000
AFIX   0
C5    1    0.555252   -0.030959    0.566945    21.00000    0.03830    0.07018 =
         0.02732    0.00135    0.01135   -0.00134
AFIX  43
H5    2    0.543071   -0.077947    0.607100    21.00000   -1.20000
AFIX   0
C6    1    0.551851   -0.105814    0.468161    21.00000    0.03737    0.06712 =
         0.02539   -0.00038    0.00991   -0.01941
AFIX  43
H6    2    0.538037   -0.212830    0.442632    21.00000   -1.20000
AFIX   0
PART 0
C7    1    0.527161   -0.130037    0.231655    11.00000    0.03534    0.04625 =
         0.02155    0.00712   -0.00209   -0.01827
PART 1
C8    1    0.510509    0.072480    0.251795    31.00000    0.02019    0.05886 =
         0.03010    0.00516    0.00271   -0.01101
AFIX  43
H8    2    0.520168    0.185701    0.292758    31.00000   -1.20000
AFIX   0
C9    1    0.481559    0.091200    0.210735    31.00000    0.02561    0.05867 =
         0.03515    0.00800    0.00562   -0.01806
AFIX  43
H9    2    0.471770    0.220165    0.219135    31.00000   -1.20000
AFIX   0
C10   1    0.467796   -0.078063    0.158839    31.00000    0.03553    0.06127 =
         0.03804    0.00644   -0.00380   -0.02126
AFIX  43
H10   2    0.448211   -0.062157    0.129972    31.00000   -1.20000
AFIX   0
C11   1    0.479496   -0.260447    0.145798    31.00000    0.03504    0.05430 =
         0.04011    0.00355   -0.00154   -0.02366
AFIX  43
H11   2    0.468501   -0.376579    0.111724    31.00000   -1.20000
AFIX   0
C12   1    0.509243   -0.284263    0.183523    31.00000    0.04150    0.05426 =
         0.03832    0.00122   -0.00103   -0.01640
AFIX  43
H12   2    0.517170   -0.420825    0.173949    31.00000   -1.20000
AFIX   0
PART 0
C13   1    0.572632    0.128159    0.213849    11.00000    0.02165    0.04912 =
         0.02446   -0.00820    0.00630   -0.01042
AFIX  23
H13A  2    0.563394    0.253463    0.237616    11.00000   -1.20000
H13B  2    0.593183    0.155347    0.230082    11.00000   -1.20000
AFIX   0
C14   1    0.561632    0.104284    0.100287    11.00000    0.01825    0.04421 =
         0.02376   -0.00329    0.00586   -0.00666
AFIX  23
H14A  2    0.540974    0.082736    0.084726    11.00000   -1.20000
H14B  2    0.570119   -0.026572    0.077966    11.00000   -1.20000
AFIX   0
C15   1    0.606746    0.325041    0.056832    11.00000    0.01750    0.02464 =
         0.01558    0.00584    0.00382    0.00301
C16   1    0.620394    0.142378    0.033316    11.00000    0.01918    0.01684 =
         0.01330   -0.00048    0.00156   -0.00362
AFIX  43
H16   2    0.609567    0.022352    0.002419    11.00000   -1.20000
AFIX   0
C17   1    0.649551    0.131790    0.054085    11.00000    0.01772    0.01089 =
         0.01211    0.00159    0.00401    0.00096
AFIX  43
H17   2    0.658503    0.004474    0.038226    11.00000   -1.20000
AFIX   0
C18   1    0.665811    0.308118    0.098329    11.00000    0.01622    0.01058 =
         0.00654    0.00377    0.00189    0.00097
C19   1    0.652174    0.493504    0.120688    11.00000    0.02182    0.01340 =
         0.01289   -0.00008    0.00511   -0.00099
AFIX  43
H19   2    0.662945    0.615216    0.149930    11.00000   -1.20000
AFIX   0
C20   1    0.623029    0.501327    0.100539    11.00000    0.02144    0.01961 =
         0.01668    0.00414    0.00689    0.00531
AFIX  43
H20   2    0.614016    0.628107    0.116646    11.00000   -1.20000
AFIX   0
C21   1    0.714168    0.441367    0.158065    11.00000    0.01597    0.00872 =
         0.00699   -0.00106    0.00435    0.00028
C22   1    0.715214    0.678007    0.153852    11.00000    0.01900    0.00706 =
         0.00661   -0.00049    0.00471   -0.00171
C23   1    0.744723    0.668260    0.216459    11.00000    0.01835    0.01135 =
         0.00659   -0.00214    0.00474    0.00180
C24   1    0.742325    0.430060    0.215286    11.00000    0.01743    0.00946 =
         0.00604   -0.00111    0.00465   -0.00106
C25   1    0.788479    0.321162    0.314086    11.00000    0.01342    0.00929 =
         0.00880    0.00044    0.00282   -0.00151
AFIX  13
H25   2    0.792451    0.477612    0.304471    11.00000   -1.20000
AFIX   0
C26   1    0.790788    0.283288    0.425272    11.00000    0.01389    0.01009 =
         0.00976    0.00179    0.00430    0.00422
C27   1    0.778248    0.106238    0.456229    11.00000    0.01922    0.01241 =
         0.01327   -0.00095    0.00676   -0.00042
AFIX  43
H27   2    0.768105    0.006546    0.408407    11.00000   -1.20000
AFIX   0
C28   1    0.780347    0.071841    0.558293    11.00000    0.02298    0.01568 =
         0.01480    0.00087    0.00790   -0.00165
AFIX  43
H28   2    0.771209   -0.051698    0.576998    11.00000   -1.20000
AFIX   0
C29   1    0.807053    0.377475    0.601317    11.00000    0.02377    0.01066 =
         0.01194    0.00116    0.00805    0.00149
C30   1    0.822866    0.511333    0.676547    11.00000    0.03015    0.01683 =
         0.00644    0.00102    0.00554   -0.00031
AFIX  43
H30   2    0.823842    0.476797    0.744471    11.00000   -1.20000
AFIX   0
C31   1    0.836915    0.689985    0.655051    11.00000    0.02415    0.01573 =
         0.01162   -0.00382    0.00226   -0.00198
AFIX  43
H31   2    0.847755    0.776379    0.707382    11.00000   -1.20000
AFIX   0
C32   1    0.835120    0.744234    0.554588    11.00000    0.02097    0.00994 =
         0.01348    0.00027    0.00517    0.00096
C33   1    0.819854    0.618585    0.479251    11.00000    0.01895    0.01438 =
         0.00889    0.00141    0.00500    0.00156
AFIX  43
H33   2    0.818779    0.659083    0.411932    11.00000   -1.20000
AFIX   0
C34   1    0.805578    0.429637    0.498579    11.00000    0.01599    0.01408 =
         0.00934   -0.00095    0.00482    0.00385
C35   1    0.864616    1.056142    0.601379    11.00000    0.02316    0.01827 =
         0.02065   -0.00292   -0.00152   -0.00564
AFIX 137
H35A  2    0.872494    1.175317    0.569696    11.00000   -1.50000
H35B  2    0.879975    0.972332    0.643546    11.00000   -1.50000
H35C  2    0.852590    1.115147    0.642588    11.00000   -1.50000
AFIX   0
C36   1    0.809551    0.184854    0.272917    11.00000    0.01732    0.00958 =
         0.00675    0.00088    0.00136   -0.00088
AFIX  13
H36   2    0.805523    0.028932    0.283515    11.00000   -1.20000
AFIX   0
C37   1    0.840974    0.226080    0.324165    11.00000    0.01481    0.01521 =
         0.00952    0.00152    0.00256    0.00181
AFIX  23
H37A  2    0.842456    0.320879    0.383148    11.00000   -1.20000
H37B  2    0.850474    0.087143    0.346984    11.00000   -1.20000
AFIX   0
C38   1    0.855102    0.334639    0.248954    11.00000    0.01816    0.01192 =
         0.01493   -0.00168    0.00631   -0.00349
AFIX  13
H38   2    0.874677    0.380605    0.282744    11.00000   -1.20000
AFIX   0
C39   1    0.837552    0.530549    0.205113    11.00000    0.02670    0.01031 =
         0.02111   -0.00060    0.01419   -0.00163
AFIX  23
H39A  2    0.847516    0.615193    0.163108    11.00000   -1.20000
H39B  2    0.834498    0.625368    0.259506    11.00000   -1.20000
AFIX   0
C40   1    0.809064    0.450122    0.141521    11.00000    0.02781    0.01512 =
         0.01157    0.00587    0.01013    0.00548
AFIX  23
H40A  2    0.793673    0.539188    0.156018    11.00000   -1.20000
H40B  2    0.808679    0.466735    0.069751    11.00000   -1.20000
AFIX   0
C41   1    0.825282    0.088712    0.126564    11.00000    0.01644    0.01650 =
         0.01138   -0.00163    0.00344    0.00115
AFIX  23
H41A  2    0.819898    0.084678    0.052615    11.00000   -1.20000
H41B  2    0.824973   -0.061697    0.151238    11.00000   -1.20000
AFIX   0
C42   1    0.855655    0.181587    0.161844    11.00000    0.02186    0.01335 =
         0.01177    0.00195    0.00797   -0.00104
AFIX  13
H42   2    0.859264    0.272272    0.106068    11.00000   -1.20000
AFIX   0
C43   1    0.878246    0.008049    0.184007    11.00000    0.01978    0.01747 =
         0.01857   -0.00310    0.00687    0.00043
AFIX  23
H43A  2    0.874179   -0.101242    0.129874    11.00000   -1.20000
H43B  2    0.877494   -0.065852    0.247078    11.00000   -1.20000
AFIX   0
C44   1    0.907751    0.096215    0.193415    11.00000    0.02335    0.03267 =
         0.05282   -0.01029    0.01271    0.00023
AFIX 137
H44A  2    0.908374    0.177674    0.132936    11.00000   -1.50000
H44B  2    0.921163   -0.024308    0.201762    11.00000   -1.50000
H44C  2    0.912767    0.192200    0.251620    11.00000   -1.50000
AFIX   0
PART 2
C2A   1    0.575982    0.201269    0.435567   -21.00000    0.03940    0.05385 =
         0.02710   -0.00160    0.01407   -0.00968
AFIX  43
H2AA  2    0.578985    0.307555    0.389335   -21.00000   -1.20000
AFIX   0
C3A   1    0.578078    0.251262    0.538849   -21.00000    0.04269    0.05349 =
         0.02686   -0.00403    0.00754   -0.00805
AFIX  43
H3A   2    0.583175    0.393230    0.563198   -21.00000   -1.20000
AFIX   0
C4A   1    0.572584    0.090000    0.604272   -21.00000    0.04366    0.06103 =
         0.02380    0.00330    0.00469   -0.00547
AFIX  43
H4AA  2    0.574275    0.115406    0.673450   -21.00000   -1.20000
AFIX   0
C5A   1    0.564975   -0.097283    0.561958   -21.00000    0.05011    0.06421 =
         0.02828    0.00548    0.00515   -0.01031
AFIX  43
H5A   2    0.558572   -0.203365    0.601346   -21.00000   -1.20000
AFIX   0
C6A   1    0.565361   -0.157288    0.462873   -21.00000    0.05834    0.06731 =
         0.03164   -0.00111    0.00042   -0.01446
AFIX  43
H6A   2    0.562749   -0.304290    0.442313   -21.00000   -1.20000
AFIX   0
C8A   1    0.509515    0.015557    0.241617   -31.00000    0.02546    0.05111 =
         0.02838   -0.00205    0.00564   -0.01197
AFIX  43
H8A   2    0.516151    0.140519    0.280373   -31.00000   -1.20000
AFIX   0
C9A   1    0.480537   -0.002856    0.197077   -31.00000    0.02500    0.05898 =
         0.03442    0.00273    0.00226   -0.01348
AFIX  43
H9A   2    0.467707    0.104470    0.208294   -31.00000   -1.20000
AFIX   0
C10A  1    0.471176   -0.176810    0.137676   -31.00000    0.02707    0.05997 =
         0.03240    0.00910   -0.00361   -0.01513
AFIX  43
H10A  2    0.451799   -0.189715    0.105005   -31.00000   -1.20000
AFIX   0
C11A  1    0.490510   -0.337551    0.125125   -31.00000    0.03836    0.05341 =
         0.03748    0.00340   -0.00565   -0.02308
AFIX  43
H11A  2    0.483867   -0.461572    0.085678   -31.00000   -1.20000
AFIX   0
C12A  1    0.519196   -0.318238    0.169438   -31.00000    0.03142    0.03837 =
         0.03578   -0.00029   -0.00141   -0.00771
AFIX  43
H12A  2    0.532581   -0.422117    0.159298   -31.00000   -1.20000
AFIX   0

PART 0
CL1S  3    0.489297    0.490988    0.391545    11.00000    0.08443    0.11841 =
         0.06057    0.00263    0.02027    0.01113
C1S   1    0.500000    0.334604    0.500000    10.50000    0.11561    0.12258 =
         0.06978    0.00000    0.00509    0.00000
AFIX  23
H1SA  2    0.484206    0.240046    0.506786    10.50000   -1.20000
H1SB  2    0.515797    0.240071    0.493214    10.50000   -1.20000
AFIX   6

O1S   5    0.751543    0.119666    0.031682    11.00000    0.02044    0.04096 =
         0.01476   -0.00428    0.00185    0.00030
H1SC  2    0.739690    0.077334    0.065607    11.00000   -1.50000
H1SD  2    0.746283    0.244185    0.004278    11.00000   -1.50000
AFIX   0
HKLF 4

REM  cx0040a in C2
REM R1 =  0.0488 for    6308 Fo > 4sig(Fo)  and  0.0517 for all    6673 data
REM    598 parameters refined using    251 restraints

END

WGHT      0.0754      7.7087

REM Highest difference peak  0.405,  deepest hole -0.799,  1-sigma level  0.065
Q1    1   0.7490 -0.0317  0.0251  11.00000  0.05    0.40
Q2    1   0.7682  0.1303  0.0774  11.00000  0.05    0.39
Q3    1   0.5666 -0.0038  0.2428  11.00000  0.05    0.38
Q4    1   0.5808 -0.2771  0.2586  11.00000  0.05    0.33
Q5    1   0.5666  0.4345 -0.0192  11.00000  0.05    0.26
Q6    1   0.5472 -0.1396  0.2630  11.00000  0.05    0.25
Q7    1   0.5000  0.6533  0.4002  11.00000  0.05    0.24
Q8    1   0.7047  0.3549  0.1189  11.00000  0.05    0.22
Q9    1   0.6909  0.7049  0.1389  11.00000  0.05    0.22
Q10   1   0.7981  0.2245  0.2980  11.00000  0.05    0.22
Q11   1   0.8047  0.3083  0.4677  11.00000  0.05    0.21
Q12   1   0.8011 -0.0664  0.5344  11.00000  0.05    0.21
Q13   1   0.5495  0.1587  0.4197  11.00000  0.05    0.21
Q14   1   0.8055  0.5111  0.6194  11.00000  0.05    0.21
Q15   1   0.7014  0.3616  0.1725  11.00000  0.05    0.21
Q16   1   0.5828  0.2440  0.5828  11.00000  0.05    0.20
Q17   1   0.5312 -0.3568  0.4341  11.00000  0.05    0.20
Q18   1   0.8511  0.2055  0.2910  11.00000  0.05    0.20
Q19   1   0.7465  0.5498  0.2361  11.00000  0.05    0.20
Q20   1   0.7104  0.5516  0.1501  11.00000  0.05    0.20
;
_shelx_res_checksum              71288
_shelx_hkl_file
;
  -8   0   0  325.60   12.33
  12   0   0  249.50    8.36
  14   0   0  394.97   12.96
  14   0   0  381.58   15.24
  16   0   0  221.88    7.23
  16   0   0  206.27    8.47
  18   0   0   50.94    1.90
  20   0   0   16.06    0.85
  22   0   0  739.38   24.65
  24   0   0   22.49    1.11
  26   0   0    0.06    0.41
  28   0   0    0.85    0.43
  32   0   0   51.77    1.82
  34   0   0   18.23    0.95
  36   0   0   35.73    1.45
  38   0   0   74.37    2.54
  40   0   0    2.20    0.53
  42   0   0   47.42    1.78
 -42   0   0   43.60    2.16
 -44   0   0    3.08    0.70
  44   0   0    2.40    0.58
  46   0   0   14.21    0.98
 -46   0   0   11.88    1.16
 -48   0   0   10.46    1.07
  48   0   0   11.99    0.92
  50   0   0   11.42    0.87
 -50   0   0    8.57    1.09
  50   0   0   10.92    1.57
  52   0   0   15.65    0.93
  52   0   0   17.51    1.58
  54   0   0   10.61    0.75
  54   0   0   10.38    1.30
  -1  -1   0   71.96    2.91
   1  -1   0   73.58    2.90
   1   1   0   64.58    2.59
  -3  -1   0   83.85    3.24
   3   1   0   85.05    3.40
  -5  -1   0  729.64   27.52
   5   1   0  717.67   24.48
   5   1   0  760.00   28.89
  -7  -1   0  315.96   11.97
   7   1   0  290.61   11.31
   7   1   0  284.11    9.57
  -9  -1   0  842.36   31.78
   9   1   0  782.20   25.99
   9   1   0  785.29   30.67
 -11  -1   0  225.18    8.59
  11   1   0  208.64    7.01
 -13  -1   0  269.77   10.28
  13   1   0  259.21    8.69
 -15  -1   0  146.17    5.48
  15  -1   0  136.53    4.82
  15   1   0  151.22    5.16
  17  -1   0  166.47    5.86
 -17  -1   0  178.71    6.67
  17   1   0  176.63    6.01
 -19  -1   0    4.24    0.61
  19   1   0    4.11    0.55
 -21  -1   0   53.39    2.28
  21   1   0   54.74    2.08
 -23  -1   0   56.09    2.41
  23   1   0   54.84    2.12
  25   1   0   29.74    1.35
  27   1   0   21.83    1.14
  29   1   0    2.88    0.54
  31  -1   0   29.37    1.25
  31   1   0   27.75    1.39
  31   1   0   26.88    1.16
  33  -1   0   22.16    1.10
  33   1   0   16.92    0.96
  33   1   0   19.89    1.17
  35  -1   0   29.38    1.30
  35   1   0   26.81    1.20
 -35   1   0   27.71    1.22
  37  -1   0   10.69    0.88
 -37   1   0    7.79    0.74
  37   1   0    7.94    0.79
  39  -1   0    9.28    0.89
 -39   1   0    8.03    0.76
  39   1   0    6.90    0.82
 -39   1   0    9.24    1.03
  41  -1   0    5.79    0.85
 -41  -1   0    5.00    0.84
 -41   1   0    5.62    0.73
  41   1   0    5.11    0.79
 -41   1   0    5.87    0.95
  43  -1   0   22.66    1.22
 -43   1   0   19.64    1.35
  43   1   0   18.18    1.05
 -43   1   0   18.36    1.07
  45  -1   0    2.11    0.57
  45   1   0    1.17    0.52
 -45   1   0    1.95    0.49
 -45   1   0    1.49    0.70
  47  -1   0    2.70    0.58
  47  -1   0    2.27    0.62
 -47   1   0    1.42    0.67
  47   1   0    1.53    0.51
  47   1   0    2.01    1.00
  49  -1   0    1.69    0.58
  49  -1   0    2.31    0.93
  49   1   0    2.77    0.52
  49   1   0    4.13    1.01
 -49   1   0    2.54    0.74
  51  -1   0    3.31    0.58
  51  -1   0    3.65    0.93
  51   1   0    2.25    0.89
  51   1   0    2.77    0.48
  53  -1   0    1.34    0.70
  53  -1   0    0.59    0.48
  53   1   0    2.26    0.83
  55  -1   0   17.58    1.31
  55  -1   0   17.14    0.89
  55   1   0   17.18    1.45
  -2  -2   0  186.76    7.17
   2   2   0  175.38    5.89
  -4  -2   0   36.86    1.58
   4   2   0   30.03    1.13
  -6  -2   0   45.11    1.89
   6   2   0   38.22    1.40
  -8  -2   0  219.52    8.42
   8   2   0  202.01    6.80
 -10  -2   0   12.68    0.79
  10   2   0   14.53    0.69
 -12  -2   0   96.91    3.84
  12   2   0   90.19    3.13
 -14  -2   0   32.40    1.49
  14   2   0   30.69    1.23
 -16  -2   0   76.44    3.11
  16   2   0   76.13    2.71
 -18  -2   0   41.64    1.85
  18   2   0   46.40    1.79
 -20  -2   0   49.93    2.17
  20   2   0   56.13    2.13
 -22  -2   0  152.24    6.00
  22   2   0  150.55    5.24
 -24  -2   0   71.29    3.01
  24   2   0   73.51    2.75
 -26  -2   0   36.51    1.77
  26   2   0   40.91    1.75
 -28  -2   0    0.18    0.53
  28  -2   0    1.17    0.47
  28   2   0    0.43    0.40
  28   2   0    0.94    0.50
  30  -2   0  177.54    5.40
 -30  -2   0  174.05    5.72
  30   2   0  156.93    4.77
  30   2   0  143.09    5.28
 -30   2   0  156.35    5.21
  30   2   0  167.22    5.56
 -32  -2   0   20.41    1.21
  32  -2   0   20.24    1.10
  32   2   0   19.51    1.02
 -32   2   0   19.47    1.00
  32   2   0   20.25    1.19
  32   2   0   18.80    1.20
  34  -2   0    1.94    0.54
 -34  -2   0    1.47    0.55
  34   2   0    2.24    0.47
 -34   2   0    1.49    0.42
  34   2   0    1.80    0.60
 -34   2   0    1.30    0.62
  36  -2   0   16.38    1.07
 -36   2   0   16.13    0.96
  36   2   0   16.07    0.97
  36   2   0   16.56    1.21
 -36   2   0   17.55    1.25
  38  -2   0    6.56    0.92
  38   2   0    7.77    1.02
  38   2   0    7.16    0.83
 -38   2   0    6.96    1.00
 -38   2   0    8.78    0.79
  38   2   0    7.49    1.56
  40  -2   0   13.15    1.06
 -40   2   0   11.59    0.86
  40   2   0   10.67    0.87
  40   2   0   10.07    1.64
 -40   2   0    9.20    1.12
  42  -2   0   44.39    1.80
  42   2   0   38.31    2.43
 -42   2   0   36.40    1.97
 -42   2   0   39.16    1.61
  44  -2   0    3.18    0.65
  44  -2   0    4.05    0.67
 -44   2   0    1.43    0.49
 -44   2   0    1.52    0.72
  44   2   0    0.90    0.92
  46  -2   0   28.70    1.37
  46  -2   0   26.97    1.38
  46   2   0   27.43    1.97
 -46   2   0   29.02    1.28
 -46   2   0   24.13    1.60
  48  -2   0    4.44    0.61
  48  -2   0    4.13    0.64
  48   2   0    3.41    0.95
 -48   2   0    3.04    0.52
 -48   2   0    2.69    0.71
  50  -2   0   18.34    1.08
  50   2   0   16.30    1.60
 -50   2   0   16.33    0.94
  52  -2   0   15.16    0.96
  52   2   0   15.47    1.50
   1  -3   0    8.36    0.76
  -1  -3   0    8.76    0.75
   1   3   0    7.27    0.53
  -1   3   0    6.57    0.62
  -1   3   0    6.68    0.52
  -3  -3   0    0.47    0.41
   3   3   0    1.10    0.30
  -5  -3   0   24.67    1.28
   5   3   0   20.55    0.92
  -7  -3   0   64.43    2.70
   7   3   0   59.04    2.15
  -9  -3   0   22.56    1.22
   9   3   0   18.44    0.87
 -11  -3   0   36.25    1.71
  11   3   0   30.79    1.26
 -13  -3   0   28.19    1.44
  13   3   0   25.88    1.12
 -15  -3   0    8.62    0.84
  15   3   0    8.44    0.66
 -17  -3   0   44.96    2.05
  17   3   0   44.66    1.76
 -19  -3   0   12.75    0.96
  19   3   0   10.55    0.76
 -19   3   0   10.02    0.82
 -21  -3   0    4.61    0.72
 -21  -3   0    5.91    0.82
 -21  -3   0    4.67    0.64
 -21   3   0    4.81    0.70
  21   3   0    4.34    0.67
 -23  -3   0   10.07    0.79
 -23  -3   0   10.50    0.95
 -23  -3   0   11.52    0.87
  23   3   0   12.34    0.89
 -23   3   0   13.41    0.94
 -23   3   0   10.59    0.73
  23   3   0   11.64    0.86
 -25  -3   0   14.60    1.11
 -25  -3   0   15.26    0.99
 -25  -3   0   13.49    0.88
 -25  -3   0   14.09    1.11
  25   3   0   14.64    0.98
  25   3   0   14.51    0.95
 -25   3   0   13.79    1.01
 -25   3   0   11.05    0.78
 -27  -3   0    1.54    0.66
 -27  -3   0    2.80    0.59
  27  -3   0    2.79    0.57
 -27  -3   0    3.50    0.52
 -27   3   0    2.28    0.62
  27   3   0    1.96    0.55
 -27   3   0    1.64    0.40
  27   3   0    2.72    0.59
 -29  -3   0   17.46    1.17
 -29  -3   0   12.95    1.19
  29  -3   0   17.70    1.06
 -29   3   0   16.41    1.18
 -29   3   0   14.63    0.90
  29   3   0   15.88    1.12
  29   3   0   14.66    1.00
 -31  -3   0   64.27    3.27
  31  -3   0   80.86    2.61
 -31  -3   0   79.35    2.78
 -31   3   0   66.10    2.44
  31   3   0   66.64    2.72
 -31   3   0   70.76    2.91
  31   3   0   65.31    2.58
  33  -3   0   69.39    2.47
 -33  -3   0   69.40    2.63
 -33   3   0   58.53    2.55
 -33   3   0   55.12    2.13
  33   3   0   57.23    2.39
  33   3   0   54.58    2.27
 -35  -3   0   28.64    1.51
  35  -3   0   28.39    1.44
  35   3   0   22.17    1.37
  35   3   0   24.24    1.35
 -35   3   0   23.88    1.51
 -35   3   0   24.66    1.20
  37  -3   0   14.61    1.17
 -37  -3   0   16.71    1.24
 -37   3   0   12.74    0.91
 -37   3   0   11.08    1.15
  37   3   0   10.88    1.08
  39  -3   0   26.21    1.40
 -39   3   0   24.43    1.20
  39   3   0   23.53    1.97
 -39   3   0   20.83    1.47
  41  -3   0    7.64    1.04
  41  -3   0    8.40    1.10
 -41   3   0    4.83    0.80
 -41   3   0    4.34    0.58
  41   3   0    4.23    1.02
  43  -3   0    6.66    0.98
  43  -3   0    6.58    1.06
  43   3   0    3.90    1.03
 -43   3   0    3.53    0.74
 -43   3   0    5.52    0.77
  45  -3   0    9.96    1.03
  45  -3   0   12.31    1.03
 -45   3   0    9.76    0.83
  45   3   0    9.61    1.61
  47  -3   0    2.79    0.59
  47  -3   0    2.70    0.61
 -47   3   0    2.53    0.47
  49  -3   0    6.65    0.82
  49  -3   0    4.33    0.57
 -49   3   0    3.10    0.46
   0  -4   0   27.38    1.51
   0   4   0   26.93    1.21
   2  -4   0   13.15    1.07
  -2  -4   0   12.69    1.04
  -2   4   0   12.26    0.77
   2   4   0   12.05    0.77
  -4  -4   0    2.09    0.57
   4  -4   0    1.41    0.57
  -4   4   0    1.55    0.38
   4   4   0    1.51    0.40
  -6  -4   0  105.15    4.35
   6  -4   0  106.78    4.39
   6   4   0  100.39    3.39
   6   4   0   88.00    4.08
  -6   4   0   94.92    3.38
   8  -4   0   28.59    1.60
  -8  -4   0   27.63    1.53
  -8   4   0   27.12    1.19
   8   4   0   26.59    1.17
   8   4   0   23.93    1.48
 -10  -4   0   14.83    1.12
  10   4   0   13.10    0.80
  10   4   0   12.05    0.81
 -12  -4   0    2.16    0.59
  12   4   0    1.93    0.44
 -12   4   0    0.54    0.37
  12   4   0    1.43    0.39
 -14  -4   0   10.20    0.99
 -14   4   0    7.86    0.70
  14   4   0    8.55    0.74
  14   4   0    8.64    0.76
 -16  -4   0    4.96    0.71
 -16  -4   0    4.29    0.72
 -16   4   0    5.21    0.65
  16   4   0    6.06    0.70
  16   4   0    5.12    0.70
 -18  -4   0   10.46    1.06
 -18  -4   0   12.23    0.86
  18   4   0   10.67    0.83
 -18   4   0    9.65    0.76
  18   4   0   10.11    0.81
 -20  -4   0   21.71    1.41
 -20  -4   0   22.15    1.15
 -20  -4   0   23.21    1.10
  20   4   0   17.58    1.06
 -20   4   0   16.79    0.94
  20   4   0   17.71    1.03
 -22  -4   0    0.73    0.55
 -22  -4   0    1.53    0.48
 -22  -4   0   -0.30    0.61
  22   4   0    1.98    0.54
 -22   4   0    0.88    0.42
  22   4   0    1.57    0.52
 -24  -4   0   29.12    1.30
 -24  -4   0   27.80    1.35
 -24  -4   0   29.92    1.53
  24   4   0   26.51    1.32
 -24   4   0   24.88    1.23
  24   4   0   25.25    1.36
 -26  -4   0    6.47    1.08
 -26  -4   0    7.53    0.85
 -26  -4   0    6.35    0.98
 -26   4   0    5.50    0.75
  26   4   0    5.91    0.86
  26   4   0    4.79    0.85
 -28  -4   0   74.18    2.80
 -28  -4   0   75.35    2.58
 -28   4   0   63.43    2.39
  28   4   0   64.42    2.47
  28   4   0   63.75    2.61
  30  -4   0   41.29    1.83
 -30  -4   0   41.54    1.85
 -30   4   0   31.79    1.46
  30   4   0   33.19    1.52
  32  -4   0   26.05    1.52
  32  -4   0   30.26    1.43
 -32  -4   0   28.96    1.54
 -32   4   0   25.37    1.27
  32   4   0   26.28    1.41
  34  -4   0    4.79    0.73
  34  -4   0    7.43    1.10
 -34  -4   0    4.50    0.71
  34   4   0    3.93    0.69
 -34   4   0    3.82    0.57
 -36  -4   0    1.71    0.61
  36  -4   0    1.50    0.67
  36  -4   0    1.07    0.63
 -36   4   0    0.72    0.47
  36   4   0    0.68    0.58
  38  -4   0   17.48    1.19
 -38  -4   0   19.80    1.28
  38  -4   0   19.79    1.28
  38   4   0   15.42    1.13
 -38   4   0   17.66    1.03
  40  -4   0   12.46    1.02
  40  -4   0    9.65    1.11
  40   4   0    9.03    0.97
 -40   4   0   10.42    0.83
  42  -4   0    0.17    0.53
  42  -4   0   -0.81    0.60
 -42   4   0    0.42    0.44
  44  -4   0   13.42    1.10
  44  -4   0   13.99    0.94
 -44   4   0   14.46    0.87
  46  -4   0    4.01    0.58
 -46   4   0    3.52    0.60
  -1  -5   0   37.10    2.03
   1  -5   0   39.77    2.07
   1   5   0   36.70    1.58
   1   5   0   37.43    2.05
  -1   5   0   35.63    1.58
  -1   5   0   39.36    1.64
  -1   5   0   37.77    2.07
   3  -5   0    1.62    0.72
  -3  -5   0    0.77    0.67
   3   5   0    0.41    0.46
  -3   5   0    0.49    0.43
   3   5   0    1.04    0.44
  -3   5   0    1.29    0.46
  -3   5   0    1.91    0.70
   3   5   0    0.44    0.63
  -5  -5   0   17.33    1.38
   5  -5   0   18.92    1.43
   5   5   0   18.45    1.40
   5   5   0   18.06    1.07
  -5   5   0   18.41    1.44
  -5   5   0   19.06    1.10
   5   5   0   19.69    1.06
  -5   5   0   17.93    1.07
  -7  -5   0    4.50    0.82
   7  -5   0    5.66    1.09
   7   5   0    3.93    0.56
   7   5   0    3.71    0.82
  -7   5   0    4.68    0.87
   7   5   0    3.54    0.57
  -7   5   0    3.67    0.57
  -7   5   0    2.90    0.54
  -9  -5   0    0.96    0.73
   9  -5   0    3.60    0.80
   9   5   0    1.52    0.52
   9   5   0    1.67    0.70
   9   5   0    1.28    0.45
  -9   5   0    1.01    0.75
  -9   5   0    1.08    0.47
  -9   5   0    0.87    0.47
  11  -5   0    3.86    0.83
 -11   5   0    3.56    0.85
 -11   5   0    4.11    0.72
  11   5   0    3.15    0.56
 -11   5   0    4.42    0.73
  11   5   0    2.91    0.55
  13  -5   0    6.71    1.14
 -13   5   0    7.04    1.16
  13   5   0    5.70    0.77
 -13   5   0    4.74    0.71
 -13   5   0    3.54    0.58
  13   5   0    4.91    0.78
 -15  -5   0   42.03    1.70
  15  -5   0   40.59    2.22
  15   5   0   36.29    1.58
 -15   5   0   35.46    2.08
 -15   5   0   37.13    1.63
  15   5   0   36.77    1.65
 -15   5   0   35.45    1.55
 -17  -5   0   13.18    0.95
  17   5   0    9.94    0.93
 -17   5   0   11.02    1.30
  17   5   0   11.68    0.92
 -17   5   0   10.80    0.89
 -17   5   0   10.46    0.88
 -19  -5   0   14.85    1.11
 -19  -5   0   15.31    0.99
  19   5   0   12.05    0.97
 -19   5   0   11.36    0.94
  19   5   0   10.64    0.97
 -19   5   0   12.64    1.36
 -19   5   0   12.31    0.92
 -21  -5   0    1.64    0.62
 -21  -5   0    0.42    0.52
 -21   5   0    1.33    0.50
  21   5   0    1.38    0.55
 -21   5   0    1.84    0.83
 -23  -5   0   49.88    1.89
 -23  -5   0   54.16    2.14
 -23  -5   0   49.19    1.94
 -23   5   0   41.24    2.32
 -23   5   0   42.48    1.78
  23   5   0   45.39    1.84
 -25  -5   0    5.66    0.75
 -25  -5   0    5.38    0.77
 -25  -5   0    5.67    0.67
  25   5   0    4.03    0.63
 -25   5   0    4.01    0.84
 -25   5   0    3.02    0.58
 -27  -5   0    6.66    0.87
 -27  -5   0    6.93    1.08
  27   5   0    5.95    0.90
 -27   5   0    5.05    0.88
 -27   5   0    6.62    0.83
 -29  -5   0    4.11    0.66
  29   5   0    5.28    0.86
 -29   5   0    5.28    0.81
 -31  -5   0   14.13    1.14
  31  -5   0   12.23    1.27
 -31   5   0   10.44    0.89
  31   5   0   12.22    1.02
  33  -5   0    4.83    0.83
 -33  -5   0    3.90    0.65
 -33   5   0    4.40    0.75
  33   5   0    4.52    0.64
  35  -5   0    2.96    0.76
 -35  -5   0    3.36    0.61
 -35   5   0    3.27    0.51
  35   5   0    2.08    0.57
  37  -5   0    6.72    0.76
 -37   5   0    6.61    0.74
  37   5   0    4.84    0.85
  39  -5   0    8.48    0.93
  39   5   0    5.50    0.77
 -39   5   0    6.44    0.70
   0   6   0   23.01    1.68
   0   6   0   23.39    1.27
  -2   6   0   20.60    1.61
   2   6   0   21.39    1.22
  -2   6   0   21.55    1.21
   2   6   0   20.21    1.60
  -4   6   0   13.16    1.36
   4   6   0   10.09    0.96
   4   6   0   11.47    1.30
  -4   6   0   10.24    0.96
  -6   6   0    7.95    1.30
   6   6   0    6.93    1.22
   6   6   0    6.46    0.88
  -6   6   0    8.61    0.87
   8   6   0    5.81    1.17
   8   6   0    5.82    0.85
  -8   6   0    5.75    0.86
  -8   6   0    5.99    1.23
 -10   6   0    0.55    0.57
 -10   6   0    0.72    0.81
  10   6   0    0.99    0.53
 -12   6   0    2.14    0.60
 -12   6   0    3.28    0.91
  12   6   0    2.43    0.57
 -14  -6   0    7.27    0.96
  14   6   0    4.99    0.86
 -14   6   0    7.09    0.89
 -14   6   0    8.12    1.27
 -16  -6   0    5.81    0.71
 -16   6   0    6.17    0.99
  16   6   0    5.61    0.87
 -16   6   0    5.79    0.87
 -18  -6   0    1.32    0.60
 -18  -6   0    0.18    0.48
 -18   6   0   -0.27    0.77
  18   6   0    1.42    0.55
 -18   6   0    0.12    0.51
 -20  -6   0    1.19    0.49
 -20  -6   0    1.67    0.60
 -20  -6   0    1.05    0.61
  20   6   0    1.56    0.55
 -20   6   0    1.76    0.81
 -20   6   0    0.61    0.53
 -22  -6   0   12.35    1.09
 -22  -6   0   16.06    1.19
 -22  -6   0   14.43    0.93
 -22   6   0   10.42    1.27
 -22   6   0   11.78    0.91
  22   6   0   11.67    0.99
 -24  -6   0    0.55    0.56
  24   6   0    1.38    0.55
 -24   6   0    0.33    0.68
 -24   6   0    0.46    0.48
 -26  -6   0    0.95    0.51
  26   6   0   -0.15    0.51
 -26   6   0    0.44    0.63
 -26   6   0    0.55    0.46
  28  -6   0    6.23    0.95
 -28  -6   0    5.26    0.61
 -28   6   0    3.83    0.52
  28   6   0    5.58    0.81
 -30  -6   0    6.72    0.85
 -30   6   0    4.80    0.68
  30   6   0    5.08    0.77
  -1   7   0    4.79    1.03
   1   7   0    7.48    0.77
   1   7   0    6.09    1.03
  -1   7   0    5.80    0.76
  -3   7   0   17.75    0.98
   3   7   0   16.60    1.31
  -3   7   0   16.19    1.34
   3   7   0   18.11    1.01
  -5  -7   0   10.74    0.87
   5   7   0   10.32    0.86
  -5   7   0   12.45    0.85
  -5   7   0   11.25    1.21
  -7  -7   0    1.17    0.55
  -7   7   0    1.88    0.76
  -7   7   0    1.58    0.46
   7   7   0    1.47    0.48
  -9   7   0    2.49    0.48
  -9   7   0    2.94    0.78
   9   7   0    2.20    0.52
  11   7   0    0.68    0.47
 -11   7   0    0.90    0.71
 -11   7   0    0.18    0.42
 -13  -7   0    5.52    0.60
 -13   7   0    5.25    0.68
 -13   7   0    4.96    0.99
  13   7   0    5.40    0.75
  56   0  -1    4.64    0.62
  56   0  -1    7.48    1.19
  54   0  -1    2.79    0.49
  54   0  -1    2.56    0.89
  52   0  -1    2.07    0.95
  52   0  -1    1.79    0.50
 -50   0   1    0.28    0.58
  50   0  -1    0.82    0.52
 -48   0   1   10.49    1.12
  48   0  -1   13.20    0.94
 -46   0   1   39.36    2.01
  46   0  -1   40.69    1.62
 -44   0   1   17.48    1.30
  44   0  -1   17.76    1.08
  42   0  -1    5.90    0.84
 -42   0   1    5.20    0.93
  40   0  -1    3.33    0.59
 -40   0   1    3.81    0.71
 -40   0   1    2.84    0.52
  38   0  -1   42.70    1.62
 -38   0   1   41.05    2.01
 -38   0   1   42.63    1.69
  36   0  -1    0.73    0.43
 -36   0   1    0.98    0.43
  34   0  -1    9.42    0.76
 -34   0   1    8.53    0.75
  32   0  -1   39.45    1.48
  24   0  -1   20.95    1.05
  22   0  -1  338.93   11.40
  20   0  -1  188.04    6.40
  18   0  -1   31.33    1.26
  16   0  -1  177.94    6.02
 -14   0   1  456.40   16.62
  14   0  -1  420.09   14.60
 -12   0   1  148.91    5.72
 -10   0   1  235.82    8.97
  -8   0   1   37.50    1.51
   6   0  -1    3.63    0.23
   4   0  -1   34.82    1.20
  -4   0   1   34.72    1.20
   0   0   1    2.54    0.17
   0   0  -1    2.32    0.16
  -4   0  -1  227.37    8.91
  -6   0  -1  187.92    7.38
   8   0   1  178.46    7.07
  -8   0  -1  180.41    7.07
  10   0   1   13.57    0.71
  12   0   1   44.34    1.80
  12   0   1   40.86    1.56
  14   0   1    2.84    0.43
  14   0   1    2.08    0.33
  16   0   1   42.91    1.63
  18   0   1  109.32    3.82
  20   0   1  212.80    7.25
  22   0   1   79.42    2.89
  24   0   1    5.53    0.67
  26   0   1   74.97    2.79
  28   0   1   81.09    3.03
  30   0   1    2.54    0.46
  30   0   1    2.62    0.56
  32   0   1    9.84    0.80
  34   0   1    9.48    0.81
  36   0   1    3.26    0.54
  38   0   1   26.01    1.24
  40   0   1   25.61    1.25
  42   0   1   11.08    0.92
  44   0   1   17.46    1.05
 -44   0  -1   17.82    1.27
  46   0   1    2.05    0.98
  46   0   1    1.89    0.53
 -46   0  -1    2.08    0.66
  48   0   1   -0.76    0.88
 -48   0  -1   -0.28    0.62
  48   0   1    0.86    0.49
  50   0   1   21.56    1.63
  50   0   1   18.05    1.02
  52   0   1    1.57    0.44
  52   0   1    2.05    0.81
  54   0   1    1.87    0.77
  55  -1  -1   10.23    0.81
  55  -1  -1   10.60    1.19
  55   1  -1   13.66    1.34
  53  -1  -1    3.11    0.89
  53  -1  -1    4.99    0.76
  53   1  -1    4.24    0.64
  53   1  -1    3.58    0.88
  51  -1  -1   17.39    1.04
  51   1  -1   18.29    1.73
  51   1  -1   15.74    0.95
  49  -1  -1    9.62    0.91
  49  -1  -1    8.03    1.00
 -49   1   1    9.16    1.05
 -49   1   1    8.46    0.83
  49   1  -1   11.13    1.67
  49   1  -1    9.95    0.85
  47  -1  -1    3.31    0.66
  47   1  -1    2.73    0.56
 -47   1   1    2.56    0.54
 -47   1   1    3.89    0.77
  45  -1  -1    2.39    0.61
 -45   1   1    1.00    0.68
 -45   1   1    0.53    0.46
  45   1  -1    0.48    0.51
  43  -1  -1   58.01    2.14
 -43   1   1   53.63    2.52
 -43   1   1   54.42    2.09
  43   1  -1   54.19    1.99
  41  -1  -1    6.80    0.86
 -41  -1   1    5.25    0.94
 -41   1   1    7.02    0.77
 -41   1   1    6.26    1.00
  41   1  -1    7.17    0.79
 -39  -1   1   11.68    1.00
  39  -1  -1   12.35    0.95
 -39   1   1   12.19    0.82
 -39   1   1   12.46    1.12
  39   1  -1   11.46    0.90
  37  -1  -1   24.30    1.18
 -37  -1   1   22.63    1.32
 -37   1   1   26.27    1.51
  37   1  -1   25.34    1.21
 -37   1   1   26.82    1.20
 -35  -1   1   89.17    3.61
  35  -1  -1   94.21    3.00
 -35   1   1   95.65    3.37
  35   1  -1   96.93    3.14
 -35   1   1   99.77    3.90
  33  -1  -1    1.29    0.45
  33   1  -1    2.55    0.46
 -33   1   1    2.53    0.44
  31  -1  -1   26.39    1.16
  31   1  -1   22.82    1.21
  31   1  -1   21.37    1.01
  29   1  -1   64.76    2.50
  27   1  -1   48.05    1.95
 -25  -1   1    4.51    0.74
  25   1  -1    2.63    0.47
 -23  -1   1   61.13    2.59
  23   1  -1   59.57    2.25
 -21  -1   1   32.31    1.52
  21   1  -1   30.44    1.29
 -19  -1   1  153.48    5.97
  19   1  -1  162.28    5.55
 -17  -1   1    9.78    0.70
  17   1  -1   10.17    0.64
 -15  -1   1  221.97    8.50
  15   1  -1  214.57    7.23
 -13  -1   1   96.11    3.77
  13   1  -1   83.05    2.88
 -11  -1   1  340.88   12.94
  11   1  -1  324.30   10.82
  -9  -1   1    8.86    0.58
   9   1  -1    7.23    0.45
   7  -1  -1  405.25   16.58
  -7  -1   1  443.11   16.06
   7   1  -1  422.94   14.06
   5  -1  -1  449.69   18.37
  -5  -1   1  490.67   17.78
   5   1  -1  462.56   15.37
  -3  -1   1  312.99   11.86
  -3   1   1  277.49   10.68
   3   1  -1  267.70    9.08
  -1   1   1  375.92   14.72
  -1  -1  -1  138.88    5.49
  -3  -1  -1   78.95    2.61
  -3  -1  -1   78.79    3.11
  -3  -1  -1   73.77    2.97
   3   1   1   70.89    2.40
  -5  -1  -1   94.77    3.82
  -5  -1  -1  102.74    4.00
  -5  -1  -1  101.43    3.35
   5   1   1   87.21    2.95
  -7  -1  -1  455.93   18.18
  -7  -1  -1  472.26   15.87
  -7  -1  -1  516.16   18.89
   7   1   1  466.34   17.24
   7   1   1  411.56   14.58
   9  -1   1  317.38   10.79
  -9  -1  -1  328.50   12.24
   9   1   1  358.01   13.90
   9   1   1  347.81   11.76
 -11  -1  -1   70.78    2.72
  11  -1   1   67.52    2.42
  11   1   1   65.96    2.31
  13  -1   1   16.27    0.76
 -13  -1  -1   16.48    0.84
  13   1   1   16.83    0.77
 -15  -1  -1   73.76    2.94
  15  -1   1   73.46    2.61
  15   1   1   68.60    2.45
  17  -1   1  246.70    8.44
 -17  -1  -1  252.88    9.56
  17   1   1  270.39    9.12
  19  -1   1  117.88    4.22
 -19  -1  -1  124.69    4.77
  19   1   1  117.96    4.12
  21  -1   1   86.93    3.13
  21   1   1   97.55    3.48
  23   1   1   58.08    2.23
  25   1   1    0.58    0.43
  27   1   1   -0.28    0.42
  29  -1   1   10.70    0.79
  29   1   1   10.05    0.75
  29   1   1   11.60    0.91
  31  -1   1   27.37    1.20
  31   1   1   26.58    1.36
  31   1   1   25.24    1.13
  33  -1   1   15.21    0.94
 -33   1  -1   14.07    0.87
  33   1   1   16.14    0.91
  33   1   1   15.29    1.07
  35  -1   1   13.57    0.93
 -35   1  -1   11.57    0.81
  35   1   1   11.15    0.85
  35   1   1   12.97    1.02
  37  -1   1   17.45    1.06
  37   1   1   15.96    0.95
 -37   1  -1   14.42    0.92
  39  -1   1    8.97    0.91
 -39   1  -1    9.20    0.81
  39   1   1    9.12    0.85
  41  -1   1   18.76    1.12
  41   1   1   15.59    1.02
  41   1   1   20.23    1.90
  43  -1   1    2.72    0.62
  43  -1   1    2.63    0.61
 -43  -1  -1    2.15    0.64
  43   1   1    1.99    0.54
 -43   1  -1    3.61    0.75
  43   1   1    4.32    1.08
  45  -1   1    4.10    0.61
  45  -1   1    2.76    0.99
  45  -1   1    3.45    0.61
  45   1   1    4.01    1.08
  45   1   1    2.62    0.55
 -45   1  -1    3.07    0.72
  47  -1   1   14.85    1.64
  47  -1   1   12.84    0.98
 -47   1  -1   13.33    1.19
  47   1   1   13.22    0.87
  47   1   1   14.96    1.60
  49  -1   1    4.93    0.62
  49  -1   1    6.72    1.32
  49   1   1    6.98    1.41
  51  -1   1    1.51    0.73
  51  -1   1    0.81    0.49
  51   1   1    0.70    0.85
  53  -1   1    1.57    0.44
  53  -1   1    0.19    0.68
  53   1   1    1.23    0.82
  54  -2  -1    4.72    0.73
  54   2  -1    4.81    0.81
 -54   2   1    2.97    0.49
  52  -2  -1   22.39    1.07
  52  -2  -1   22.24    1.14
 -52   2   1   22.06    1.10
  52   2  -1   25.03    1.73
  50  -2  -1    3.34    0.61
  50  -2  -1    3.16    0.59
  50   2  -1    4.36    0.92
 -50   2   1    2.91    0.49
  48  -2  -1   42.94    1.67
  48  -2  -1   38.56    1.66
 -48   2   1   37.15    1.51
 -48   2   1   31.94    1.85
  48   2  -1   38.88    2.21
  46  -2  -1    9.89    1.00
  46   2  -1    8.09    1.26
 -46   2   1    6.97    1.03
 -46   2   1   10.05    0.83
  46   2  -1    9.11    0.81
  44  -2  -1    3.54    0.69
  44   2  -1    3.48    0.57
  44   2  -1    2.62    1.06
 -44   2   1    4.40    0.72
 -44   2   1    3.76    0.82
  42  -2  -1    1.96    0.64
 -42   2   1    1.55    0.48
 -42   2   1    1.27    0.72
  42   2  -1    1.92    0.54
  40  -2  -1   11.85    1.01
  40   2  -1   11.69    0.88
 -40   2   1    9.66    1.13
 -40   2   1   12.91    0.86
  38  -2  -1   26.99    1.34
  38   2  -1   22.02    1.12
 -38   2   1   21.75    1.47
 -38   2   1   21.72    1.10
 -36  -2   1   16.81    1.17
  36  -2  -1   14.53    1.03
  36   2  -1   10.50    1.04
 -36   2   1   13.04    0.85
  36   2  -1   12.45    0.91
 -36   2   1   11.80    1.15
 -34  -2   1   78.18    2.82
  34  -2  -1   76.50    2.62
  34   2  -1   71.33    2.41
 -34   2   1   72.99    2.58
  34   2  -1   68.37    2.83
 -34   2   1   74.10    3.05
 -32  -2   1   15.27    1.09
  32  -2  -1   13.79    0.95
  32   2  -1   12.21    1.02
 -32   2   1   11.99    0.78
 -32   2   1   13.29    1.04
  32   2  -1   11.59    0.82
 -30  -2   1    5.30    0.64
 -30  -2   1    6.01    0.91
  30  -2  -1    6.45    0.76
  30   2  -1    8.18    0.86
 -30   2   1    7.56    0.87
  30   2  -1    7.10    0.70
 -30   2   1    6.62    0.64
 -28  -2   1    6.84    0.87
 -28   2   1    8.64    0.84
  28   2  -1    7.74    0.82
  28   2  -1    6.97    0.68
 -26  -2   1   31.69    1.63
 -26   2   1   29.29    1.48
  26   2  -1   31.21    1.40
 -24  -2   1   56.81    2.49
 -24   2   1   46.74    2.01
  24   2  -1   48.13    1.91
 -22  -2   1   25.23    1.33
 -22   2   1   24.41    1.24
  22   2  -1   25.09    1.18
 -20  -2   1  156.55    6.15
  20   2  -1  143.26    4.98
 -20   2   1  144.01    5.29
 -18  -2   1   25.22    1.29
 -18   2   1   27.84    1.27
  18   2  -1   27.24    1.19
 -16  -2   1   81.68    3.32
  16   2  -1   67.59    2.43
 -16   2   1   66.99    2.59
 -14  -2   1    6.77    0.70
  14   2  -1    4.21    0.47
 -12  -2   1  101.80    4.04
  12   2  -1   99.65    3.45
 -10  -2   1    8.71    0.69
  10   2  -1    4.99    0.47
  -8  -2   1   58.77    2.36
   8  -2  -1   55.90    2.33
   8   2  -1   52.73    1.90
  -6  -2   1    1.81    0.38
   6  -2  -1    1.48    0.26
   6   2  -1    1.49    0.28
  -4  -2   1   75.00    2.98
   4  -2  -1   73.92    3.02
   4   2  -1   59.41    2.12
  -4   2   1   60.94    2.48
   4   2  -1   60.55    2.49
  -2  -2   1   47.90    2.05
   2  -2  -1   51.21    2.07
  -2   2   1   46.08    1.91
   2   2  -1   46.19    1.88
   2   2  -1   42.35    1.61
   0  -2  -1   48.40    2.05
   0  -2  -1   49.47    2.00
   0   2  -1   39.84    1.61
   0   2   1   36.45    1.35
  -2  -2  -1   84.48    3.35
  -2  -2  -1   86.23    3.48
   2   2   1   69.55    2.39
  -4  -2  -1   31.87    1.38
  -4  -2  -1   28.33    1.33
   4   2   1   25.23    0.96
  -6  -2  -1   83.90    3.31
   6   2   1   76.08    2.62
  -8  -2  -1   71.73    2.89
  -8  -2  -1   73.18    2.52
   8   2   1   61.11    2.14
 -10  -2  -1  405.79   15.31
 -10  -2  -1  400.24   13.34
  10   2   1  359.96   12.02
 -12  -2  -1   94.88    3.75
  12   2   1   96.04    3.33
 -14  -2  -1   54.94    2.28
  14   2   1   50.28    1.86
 -16  -2  -1   41.66    1.82
  16   2   1   40.25    1.57
 -18  -2  -1    2.44    0.46
  18   2   1    1.95    0.39
 -20  -2  -1  122.42    4.85
  20   2   1  124.60    4.37
 -22  -2  -1   21.45    1.18
  22   2   1   27.38    1.27
 -24  -2  -1   82.39    3.41
  24   2   1   92.01    3.37
 -26  -2  -1   17.38    1.15
  26  -2   1   19.44    1.01
  26   2   1   19.31    1.12
  28  -2   1   16.63    0.99
 -28   2  -1   15.86    0.91
  28   2   1   16.68    1.06
  28   2   1   17.26    1.07
  30  -2   1  139.55    4.32
 -30  -2  -1  135.18    4.55
 -30   2  -1  120.86    4.05
  30   2   1  112.03    5.04
  30   2   1  116.98    4.13
  30   2   1  124.11    4.34
  32  -2   1   83.20    2.81
 -32  -2  -1   82.85    2.95
  32   2   1   70.98    2.69
  32   2   1   74.31    2.83
 -32   2  -1   70.51    2.58
  32   2   1   71.00    3.38
  34  -2   1   14.08    1.02
  34   2   1   13.38    1.11
 -34   2  -1   14.83    0.90
  34   2   1   13.61    1.59
  34   2   1   14.98    1.11
  36  -2   1    8.66    0.95
 -36   2  -1    7.44    0.78
  36   2   1    8.94    0.98
  36   2   1    7.38    1.13
  38  -2   1   23.67    1.29
 -38   2  -1   18.88    1.31
  38   2   1   14.99    1.74
 -38   2  -1   17.60    1.02
  38   2   1   16.56    1.24
  40  -2   1    9.82    0.99
  40  -2   1    9.29    1.01
 -40   2  -1    5.53    0.97
 -40   2  -1    8.54    0.80
  40   2   1    5.09    1.04
  42  -2   1    5.12    0.70
  42  -2   1    4.90    0.70
  42   2   1    1.77    0.95
 -42   2  -1    3.93    0.79
 -42   2  -1    3.97    0.57
  44  -2   1   35.95    1.52
  44  -2   1   37.38    1.60
 -44   2  -1   33.23    1.49
 -44   2  -1   30.96    1.79
  44   2   1   37.93    2.21
  46  -2   1   12.43    0.99
  46  -2   1   10.80    1.00
 -46   2  -1   10.47    1.12
 -46   2  -1   11.41    0.89
  46   2   1   13.34    1.62
  48  -2   1   29.94    1.35
  48   2   1   29.57    2.02
  50  -2   1    6.05    0.83
  50   2   1    5.15    0.98
  52  -2   1   25.56    1.13
  52   2   1   28.86    1.78
  51  -3  -1   11.43    0.85
  51  -3  -1   10.83    0.86
 -51   3   1   11.26    0.77
  49  -3  -1    4.77    0.63
  49  -3  -1    6.09    0.87
 -49   3   1    4.16    0.68
  47  -3  -1    0.58    0.56
  47  -3  -1    0.54    0.59
 -47   3   1    0.29    0.43
  45  -3  -1    2.45    0.67
  45  -3  -1    1.53    0.64
 -45   3   1    1.68    0.70
 -45   3   1    1.70    0.48
  43  -3  -1   16.55    1.17
 -43   3   1   11.21    1.17
 -43   3   1   13.17    0.90
  41  -3  -1   29.60    1.46
 -41   3   1   27.67    1.27
 -41   3   1   24.97    1.61
 -39  -3   1   39.68    1.77
  39  -3  -1   33.62    1.60
 -39   3   1   31.53    1.77
 -39   3   1   31.69    1.40
 -37  -3   1    3.73    0.70
  37  -3  -1    4.85    0.71
 -37   3   1    1.95    0.48
 -37   3   1    1.80    0.74
 -35  -3   1   38.87    1.80
  35  -3  -1   38.04    1.65
  35   3  -1   26.66    1.51
  35   3  -1   26.59    1.51
 -35   3   1   27.33    1.60
 -35   3   1   27.09    1.27
 -33  -3   1   70.11    2.52
 -33  -3   1   57.27    2.98
  33  -3  -1   67.81    2.35
  33   3  -1   57.97    2.41
  33   3  -1   53.50    2.27
 -33   3   1   61.09    2.60
 -33   3   1   55.13    2.12
 -31  -3   1    9.98    1.14
 -31  -3   1   12.81    1.11
 -31   3   1    9.90    0.79
  31   3  -1   10.93    1.02
  31   3  -1    9.68    0.95
 -31   3   1   11.22    1.07
 -29  -3   1  141.22    4.24
 -29  -3   1  138.28    4.54
 -29  -3   1  125.00    5.50
 -29   3   1  114.69    4.06
  29   3  -1  116.81    4.18
 -29   3   1  126.69    4.68
  29   3  -1  121.33    4.39
 -27  -3   1    7.39    1.01
 -27  -3   1    7.89    0.77
 -27  -3   1    7.73    0.98
  27   3  -1    7.11    0.86
  27   3  -1    9.06    0.87
 -27   3   1    7.58    0.69
 -27   3   1    7.40    0.88
 -25  -3   1   12.82    0.91
 -25  -3   1   13.06    1.06
 -25  -3   1   11.88    1.10
 -25  -3   1   11.96    0.85
 -25   3   1   10.35    0.72
  25   3  -1   10.16    0.89
  25   3  -1   11.53    0.89
 -25   3   1   11.22    0.95
 -23  -3   1   10.79    0.83
 -23  -3   1   10.96    0.77
 -23  -3   1    9.28    0.98
 -23   3   1    8.32    0.83
  23   3  -1    8.63    0.78
 -21  -3   1   28.27    1.19
 -21  -3   1   29.08    1.22
 -21  -3   1   30.00    1.55
  21   3  -1   28.61    1.32
 -21   3   1   29.38    1.43
 -19  -3   1    8.63    0.90
  19   3  -1   10.57    0.75
 -19   3   1    9.42    0.81
 -17  -3   1    2.28    0.54
 -17   3   1    1.20    0.48
  17   3  -1    1.55    0.39
 -15  -3   1   14.03    1.01
  15   3  -1   16.32    0.86
 -13  -3   1   68.22    2.89
  13   3  -1   59.61    2.20
 -11  -3   1  152.74    6.03
  11   3  -1  129.62    4.49
  -9  -3   1    1.98    0.49
   9   3  -1    2.03    0.37
  -7  -3   1  148.98    5.86
   7   3  -1  142.05    4.89
  -5  -3   1   16.19    1.01
   5   3  -1   13.97    0.75
  -3  -3   1    5.25    0.69
  -3   3   1    3.50    0.54
  -3   3   1    3.45    0.41
   3   3  -1    3.01    0.46
   1  -3  -1   18.58    1.06
  -1  -3   1   19.85    1.09
  -1   3   1   17.26    1.00
  -1   3   1   17.24    0.77
   1   3  -1   17.42    0.83
   1  -3   1  128.70    5.08
  -1  -3  -1  127.71    5.05
   1   3   1  120.28    4.89
  -1   3  -1  117.64    4.13
   1   3   1  121.28    4.10
  -3  -3  -1   25.00    1.27
   3   3   1   24.15    1.00
  -5  -3  -1    8.19    0.73
   5   3   1    8.02    0.56
  -7  -3  -1   12.56    0.87
  -7  -3  -1   11.64    0.77
   7   3   1    8.42    0.54
  -9  -3  -1    7.98    0.76
   9   3   1    5.05    0.49
 -11  -3  -1   69.33    2.88
  11   3   1   63.33    2.29
 -13  -3  -1   13.78    0.95
  13   3   1   12.98    0.74
 -15  -3  -1   21.85    1.22
  15   3   1   22.89    1.06
 -17  -3  -1   19.45    1.12
  17   3   1   21.66    1.05
 -19  -3  -1   16.78    1.08
  19   3   1   17.16    0.97
 -21  -3  -1    1.63    0.43
  21  -3   1    2.52    0.57
 -21  -3  -1    1.67    0.52
  21   3   1    1.11    0.44
 -21   3  -1    0.97    0.39
 -21   3  -1    0.94    0.47
 -23  -3  -1    8.35    0.76
  23  -3   1    8.16    0.84
 -23  -3  -1    8.25    0.88
 -23  -3  -1    6.75    0.85
  23   3   1    9.56    0.83
 -23   3  -1    9.11    0.72
 -23   3  -1   11.17    0.88
  23   3   1   10.91    0.86
 -25  -3  -1   91.75    3.25
  25  -3   1   94.65    3.08
 -25  -3  -1   94.25    3.03
 -25   3  -1   85.24    3.06
  25   3   1   88.64    3.29
  25   3   1   81.52    3.11
 -25   3  -1   95.52    3.50
 -27  -3  -1   15.18    1.12
  27  -3   1   15.09    1.03
  27   3   1   16.92    1.08
  27   3   1   15.74    1.01
 -27   3  -1   15.79    1.11
 -27   3  -1   14.20    0.90
  29  -3   1   42.70    1.71
 -29  -3  -1   40.10    1.79
 -29   3  -1   33.84    1.73
  29   3   1   33.60    1.57
  29   3   1   35.88    1.66
 -29   3  -1   34.17    1.46
  31  -3   1   22.58    1.25
 -31  -3  -1   20.09    1.30
  31   3   1   18.49    1.22
 -31   3  -1   19.96    1.05
  31   3   1   16.81    1.71
  31   3   1   19.38    1.19
 -31   3  -1   19.18    1.29
  33  -3   1    7.51    1.00
 -33  -3  -1    8.12    1.04
  33   3   1    8.99    0.95
 -33   3  -1    7.74    0.80
  33   3   1    7.49    0.94
  33   3   1    6.69    1.08
 -33   3  -1    8.90    1.02
 -35  -3  -1   44.23    1.94
  35  -3   1   44.41    1.85
  35  -3   1   46.07    1.87
  35   3   1   39.58    1.94
  35   3   1   36.52    2.37
 -35   3  -1   45.57    1.77
  35   3   1   44.29    1.85
 -35   3  -1   43.06    2.10
  37  -3   1   20.26    1.24
  37  -3   1   17.81    1.28
  37   3   1   11.98    1.13
 -37   3  -1   13.26    1.17
 -37   3  -1   14.58    0.98
  37   3   1   12.45    1.56
  39  -3   1   23.86    1.34
  39  -3   1   23.65    1.33
 -39   3  -1   20.77    1.42
 -39   3  -1   22.48    1.17
  39   3   1   21.09    1.28
  39   3   1   19.33    1.78
  41  -3   1    7.47    1.01
  41  -3   1    8.42    1.02
 -41   3  -1    5.49    0.80
  41   3   1    3.74    1.01
 -41   3  -1    4.91    0.95
  43  -3   1    7.38    0.99
  43  -3   1    8.01    0.95
 -43   3  -1    3.98    0.75
 -43   3  -1    5.74    0.76
  43   3   1    6.88    1.07
  45  -3   1    1.34    0.60
  45  -3   1    0.55    0.55
  45   3   1    1.44    0.88
 -45   3  -1    0.16    0.44
  47  -3   1    0.85    0.52
  47  -3   1    1.96    0.53
 -47   3  -1    1.57    0.44
  47   3   1    2.17    0.86
  49  -3   1    7.18    0.77
 -49   3  -1    7.39    0.66
  46  -4  -1    2.66    0.54
  46  -4  -1    3.12    0.61
 -46   4   1    1.84    0.42
  44  -4  -1    3.08    0.62
  44  -4  -1    3.02    0.58
 -44   4   1    4.08    0.66
  42  -4  -1    2.21    0.61
  42  -4  -1    3.70    0.68
 -42   4   1    2.06    0.48
  40  -4  -1   18.78    1.17
  40  -4  -1   18.26    1.29
 -40   4   1   14.46    0.91
  38  -4  -1    4.62    0.77
 -38  -4   1    4.09    0.67
  38  -4  -1    3.61    0.74
 -38   4   1    2.20    0.52
  38   4  -1    2.40    0.64
 -36  -4   1   15.42    1.22
  36  -4  -1   14.22    1.35
  36   4  -1   14.47    1.10
 -36   4   1   12.97    0.93
 -34  -4   1   34.30    1.67
  34   4  -1   27.55    1.42
 -34   4   1   26.42    1.27
 -32  -4   1   35.22    1.71
  32   4  -1   25.86    1.41
 -32   4   1   28.19    1.29
 -30  -4   1    1.85    0.66
 -30  -4   1    0.24    0.51
  30   4  -1    1.28    0.58
  30   4  -1    2.02    0.62
 -30   4   1    0.91    0.45
 -28  -4   1    5.02    0.63
 -28  -4   1    2.97    0.84
 -28  -4   1    5.13    0.74
 -28   4   1    3.59    0.53
  28   4  -1    4.45    0.71
  28   4  -1    4.28    0.66
 -26  -4   1    5.67    0.75
 -26  -4   1    4.29    0.69
 -26  -4   1    4.57    0.84
 -26  -4   1    5.03    0.79
  26   4  -1    4.36    0.67
  26   4  -1    3.51    0.61
 -26   4   1    3.88    0.67
 -24  -4   1    7.40    1.05
 -24  -4   1    7.98    0.89
 -24  -4   1    8.89    0.84
 -24   4   1    7.03    0.70
  24   4  -1    5.73    0.82
 -24   4   1    8.62    1.13
  24   4  -1    7.75    0.87
 -22  -4   1   10.45    0.90
 -22  -4   1    7.67    0.80
 -22  -4   1    9.43    1.07
 -22   4   1    8.57    0.73
  22   4  -1    9.23    0.83
  22   4  -1    9.97    0.88
 -22   4   1    9.48    1.10
 -20  -4   1    5.70    0.77
 -20  -4   1    6.21    0.82
 -20  -4   1    6.61    0.97
 -20   4   1    4.05    0.60
  20   4  -1    4.30    0.73
  20   4  -1    4.69    0.72
 -18  -4   1   28.06    1.21
 -18  -4   1   28.98    1.62
 -18  -4   1   26.87    1.24
  18   4  -1   24.20    1.20
 -18   4   1   23.17    1.11
  18   4  -1   25.93    1.23
 -16  -4   1   38.31    1.93
 -16  -4   1   37.09    1.48
  16   4  -1   32.03    1.40
 -16   4   1   27.68    1.25
  16   4  -1   30.51    1.36
 -14  -4   1   64.48    2.28
 -14  -4   1   71.35    3.01
  14   4  -1   64.47    2.40
  14   4  -1   63.77    2.32
 -14   4   1   60.12    2.25
 -12  -4   1  116.98    4.61
 -12  -4   1  105.84    3.49
  12   4  -1  101.31    3.58
  12   4  -1  105.28    3.71
 -10  -4   1   38.23    1.87
 -10  -4   1   35.09    1.42
  10   4  -1   32.18    1.36
  10   4  -1   30.18    1.34
  -8  -4   1   12.75    0.86
   8  -4  -1   13.93    1.08
  -8  -4   1   12.43    1.08
   8   4  -1   12.32    0.81
  -8   4   1   12.02    0.74
   6  -4  -1   10.77    0.98
  -6  -4   1    9.15    0.79
  -6  -4   1    9.44    0.96
   6   4  -1    8.65    0.70
  -6   4   1    7.74    0.63
   4  -4  -1   30.54    1.62
  -4  -4   1   31.99    1.66
   4   4  -1   34.90    1.45
  -4   4   1   32.90    1.38
  -2  -4   1   30.54    1.62
   2  -4  -1   28.88    1.56
  -2   4   1   27.92    1.19
  -2   4   1   25.56    1.54
   2   4  -1   27.73    1.24
   0  -4  -1   35.15    1.79
   0  -4   1   37.92    1.86
   0   4  -1   31.05    1.31
   0   4   1   30.43    1.26
   0   4   1   27.59    1.64
   2  -4   1    8.12    0.95
  -2  -4  -1    7.36    0.88
   2   4   1    6.23    0.60
  -2   4  -1    7.24    0.66
   2   4   1    7.00    0.92
  -4  -4  -1   26.48    1.41
   4  -4   1   24.11    1.46
   4   4   1   20.90    1.33
   4   4   1   23.06    1.03
  -4   4  -1   20.85    1.07
   6  -4   1   53.65    2.48
  -6  -4  -1   53.40    2.41
   6   4   1   50.63    2.47
  -6   4  -1   53.56    2.05
   6   4   1   53.43    1.99
  -8  -4  -1  100.22    4.23
   8  -4   1  106.20    4.32
   8   4   1   82.04    3.77
  -8   4  -1   83.05    3.01
   8   4   1   93.13    3.11
 -10  -4  -1   25.39    1.42
  10   4   1   22.08    1.02
  10   4   1   20.05    1.32
  10   4   1   20.37    1.01
 -10   4  -1   19.24    1.01
 -12  -4  -1   40.87    1.96
 -12   4  -1   37.73    1.54
  12   4   1   41.66    1.61
  12   4   1   37.50    1.55
  14   4   1   27.91    1.24
  14   4   1   24.56    1.16
 -14   4  -1   24.48    1.15
  16   4   1    0.29    0.42
  16   4   1    0.48    0.42
 -16   4  -1    1.41    0.41
 -18  -4  -1    7.49    0.79
  18   4   1    4.54    0.73
 -18   4  -1    7.26    0.71
  18   4   1    5.30    0.74
 -20  -4  -1   25.86    1.21
  20   4   1   25.96    1.29
 -20   4  -1   25.57    1.24
  20   4   1   28.34    1.36
 -22  -4  -1  124.51    4.18
 -22  -4  -1  134.62    4.43
  22  -4   1  133.37    4.18
 -22  -4  -1  131.04    4.11
  22   4   1  119.97    4.34
  22   4   1  121.44    4.14
 -22   4  -1  115.88    4.11
 -24  -4  -1   70.17    2.64
 -24  -4  -1   69.58    2.44
 -24  -4  -1   69.94    2.42
  24  -4   1   70.03    2.47
  24   4   1   58.88    2.41
  24   4   1   59.50    2.27
 -24   4  -1   57.57    2.23
 -26  -4  -1   34.72    1.62
 -26  -4  -1   32.35    1.43
  26  -4   1   30.95    1.50
  26   4   1   25.02    1.44
  26   4   1   25.52    1.32
 -26   4  -1   28.46    1.31
  28  -4   1   79.25    2.77
  28  -4   1   77.01    2.75
 -28  -4  -1   79.97    2.89
  28   4   1   72.56    2.93
 -28   4  -1   73.16    2.72
  28   4   1   74.68    2.75
 -30  -4  -1  105.94    3.77
  30  -4   1  111.36    3.61
  30  -4   1  108.15    3.58
  30   4   1   93.31    3.47
 -30   4  -1   97.66    3.41
  32  -4   1   75.08    2.64
 -32  -4  -1   76.67    2.79
  32  -4   1   71.06    2.64
 -32   4  -1   61.56    2.35
  32   4   1   60.63    2.41
 -34  -4  -1   10.58    1.12
  34  -4   1   11.91    1.14
  34  -4   1   10.10    1.04
  34   4   1   11.94    1.05
 -34   4  -1   13.14    0.95
 -36  -4  -1   15.07    1.20
  36  -4   1   16.87    1.14
  36  -4   1   15.77    1.24
  36   4   1   11.25    1.03
 -36   4  -1    9.64    0.87
  38  -4   1   11.80    1.02
  38  -4   1   11.06    1.16
 -38   4  -1   10.22    0.85
  38   4   1    9.25    0.99
  40  -4   1    3.24    0.61
  40  -4   1    3.16    0.68
  40   4   1    1.84    0.58
 -40   4  -1    1.86    0.49
  42  -4   1    3.11    0.65
  42  -4   1    3.89    0.61
  42   4   1    3.56    0.64
 -42   4  -1    5.82    0.70
  44  -4   1   11.82    0.92
  44  -4   1   12.60    0.92
 -44   4  -1   10.01    0.76
 -41   5   1    2.22    0.42
  39  -5  -1    3.39    0.69
  39   5  -1    3.25    0.61
 -39   5   1    3.65    0.64
 -37  -5   1   10.64    1.02
  37  -5  -1    9.58    1.19
  37   5  -1    7.17    0.88
 -37   5   1    7.51    0.73
 -35  -5   1    1.63    0.57
  35   5  -1    1.80    0.55
 -35   5   1    1.68    0.47
 -33  -5   1    4.12    0.65
  33   5  -1    3.39    0.61
 -33   5   1    3.21    0.54
 -31  -5   1    7.55    1.03
 -31   5   1    6.57    0.80
  31   5  -1    6.05    0.90
 -29  -5   1    5.48    0.83
 -29  -5   1    4.32    0.72
 -29   5   1    4.30    0.59
  29   5  -1    5.72    0.90
 -27  -5   1    9.09    1.12
 -27  -5   1   10.37    0.90
  27   5  -1    7.84    0.92
 -27   5   1    8.33    1.19
 -27   5   1    8.53    0.84
 -25  -5   1    1.11    0.64
 -25  -5   1    1.25    0.64
 -25  -5   1    1.25    0.51
 -25   5   1    0.82    0.47
 -25   5   1    0.90    0.75
  25   5  -1    0.59    0.54
 -23  -5   1   11.79    0.96
 -23  -5   1   10.98    0.98
 -23   5   1   10.18    1.25
 -23   5   1    9.12    0.85
  23   5  -1    8.25    0.93
 -21  -5   1   24.08    1.25
 -21  -5   1   24.38    1.20
 -21   5   1   18.73    1.07
  21   5  -1   19.28    1.15
 -21   5   1   19.37    1.51
 -19  -5   1   11.00    0.91
 -19  -5   1   11.30    1.01
 -19   5   1   10.68    1.27
 -19   5   1    9.12    0.83
  19   5  -1    9.12    0.89
 -19   5   1    9.02    0.82
  19   5  -1   10.12    0.93
 -17  -5   1    4.24    0.58
 -17  -5   1    3.48    0.65
 -17   5   1    3.87    0.69
  17   5  -1    3.91    0.63
 -17   5   1    3.72    0.56
  17   5  -1    3.55    0.59
 -17   5   1    5.19    0.90
 -15  -5   1   14.90    1.06
  15  -5  -1   14.89    1.37
 -15  -5   1   17.55    1.01
 -15  -5   1   14.29    1.29
 -15   5   1   13.37    0.88
  15   5  -1   13.21    0.97
 -15   5   1   12.87    0.89
  15   5  -1   13.06    0.98
 -15   5   1   14.25    1.36
  13  -5  -1    1.77    0.71
 -13  -5   1    1.04    0.68
 -13  -5   1    1.17    0.52
  13   5  -1    0.52    0.50
 -13   5   1    0.70    0.45
  13   5  -1    0.55    0.49
 -13   5   1    1.23    0.74
 -13   5   1    1.63    0.45
 -11  -5   1   21.10    1.52
 -11  -5   1   23.61    1.17
  11  -5  -1   24.17    1.60
  11   5  -1   22.27    1.18
 -11   5   1   19.61    1.06
  11   5  -1   19.41    1.14
 -11   5   1   19.27    1.52
 -11   5   1   21.40    1.09
  -9  -5   1    5.58    0.83
   9  -5  -1    5.99    1.09
  -9  -5   1    6.79    1.06
   9   5  -1    5.31    0.81
  -9   5   1    4.53    0.70
  -9   5   1    4.51    0.59
  -9   5   1    5.28    0.89
   9   5  -1    5.58    1.03
   9   5  -1    4.81    0.74
  -7  -5   1   -0.29    0.66
   7  -5  -1   -0.34    0.67
   7   5  -1    1.83    0.70
  -7   5   1    0.82    0.46
  -7   5   1    0.65    0.44
   7   5  -1    0.65    0.48
   7   5  -1    1.05    0.47
  -7   5   1    2.83    0.74
   5  -5  -1   51.78    2.49
  -5  -5   1   48.48    2.46
  -5   5   1   43.76    1.84
   5   5  -1   47.36    1.91
   5   5  -1   48.47    2.40
  -5   5   1   49.08    1.90
  -5   5   1   46.14    2.40
   5   5  -1   46.51    1.96
  -3  -5   1   17.35    1.18
   3  -5  -1   18.85    1.42
  -3   5   1   16.49    0.98
  -3   5   1   16.07    0.98
   3   5  -1   19.32    1.40
   3   5  -1   15.52    1.04
   3   5  -1   15.81    1.02
  -3   5   1   18.52    1.37
  -1  -5   1   18.64    1.40
  -1  -5   1   19.13    1.19
   1   5  -1   16.59    1.31
   1   5  -1   13.24    1.00
  -1   5   1   16.70    0.94
  -1   5   1   14.48    0.94
   1   5  -1   13.27    0.97
  -1   5   1   18.77    1.36
   1  -5   1   37.26    2.06
  -1   5  -1   33.03    1.49
   1   5   1   32.34    1.44
  -1   5  -1   32.07    1.53
   1   5   1   36.00    1.93
   1   5   1   32.96    1.43
   3  -5   1   38.24    2.10
   3   5   1   36.10    2.00
   3   5   1   37.15    1.55
  -3   5  -1   37.10    1.61
   3   5   1   36.35    1.55
  -3   5  -1   35.76    1.66
   5  -5   1   13.95    1.32
  -5   5  -1   13.46    1.01
  -5   5  -1   15.94    1.01
   5   5   1   14.08    1.26
   5   5   1   14.39    0.95
   5   5   1   13.71    0.89
   7  -5   1    3.01    0.82
   7   5   1    3.03    0.51
  -7   5  -1    2.24    0.55
   7   5   1    3.14    0.78
  -7   5  -1    3.19    0.57
   7   5   1    3.07    0.54
   9  -5   1   24.32    1.66
  -9   5  -1   17.64    1.12
   9   5   1   20.65    1.08
   9   5   1   19.96    1.46
  -9   5  -1   20.26    1.15
   9   5   1   20.87    1.11
  11  -5   1   15.10    1.37
 -11   5  -1   13.11    0.97
 -11   5  -1   13.92    0.96
  11   5   1   14.04    0.95
  11   5   1   13.31    0.94
  13  -5   1   37.34    2.10
 -13   5  -1   33.98    1.59
  13   5   1   31.95    1.48
 -13   5  -1   35.97    1.53
  13   5   1   33.81    1.55
  15   5   1    5.83    0.79
 -15   5  -1    5.15    0.78
 -15   5  -1    5.91    0.82
  15   5   1    6.47    0.84
  17   5   1   11.97    0.96
  17   5   1   11.53    0.95
 -17   5  -1   11.09    0.94
 -17   5  -1   11.57    0.95
  19   5   1    4.09    0.64
 -19   5  -1    3.96    0.61
 -21  -5  -1   24.32    1.20
 -21  -5  -1   25.20    1.46
 -21  -5  -1   24.19    1.29
 -21   5  -1   22.19    1.19
  21   5   1   19.30    1.20
 -23  -5  -1   17.30    1.09
 -23  -5  -1   20.20    1.32
 -23  -5  -1   18.48    1.18
 -23   5  -1   16.60    1.43
 -23   5  -1   14.65    1.05
  23   5   1   16.32    1.09
 -25  -5  -1    4.60    0.69
  25  -5   1    4.53    0.84
  25   5   1    5.37    0.88
 -25   5  -1    4.63    0.88
 -25   5  -1    3.34    0.58
 -27  -5  -1   51.04    2.04
  27  -5   1   51.52    2.07
  27  -5   1   45.96    1.93
  27   5   1   44.90    1.88
 -27   5  -1   44.49    2.33
 -27   5  -1   44.70    1.84
  29  -5   1    5.04    0.71
 -29  -5  -1    5.09    0.69
  29  -5   1    5.34    0.85
  29   5   1    3.83    0.65
 -29   5  -1    4.21    0.60
  31  -5   1    6.21    0.72
  31  -5   1    7.54    1.17
 -31  -5  -1    6.46    1.04
 -31   5  -1    6.85    0.81
  31   5   1    5.84    0.92
 -33  -5  -1    0.46    0.55
  33  -5   1   -0.50    0.66
  33  -5   1   -0.44    0.54
 -33   5  -1   -0.17    0.45
  33   5   1    0.19    0.53
  35  -5   1    6.01    0.97
  35  -5   1    5.67    0.85
 -35   5  -1    4.94    0.74
  35   5   1    5.76    0.84
  37  -5   1    6.11    0.92
  37  -5   1    6.09    0.85
  37   5   1    6.89    0.83
 -37   5  -1    6.19    0.73
 -39   5  -1   -0.32    0.38
  39   5   1    0.24    0.44
 -32  -6   1    8.86    0.88
 -32   6   1    6.20    0.65
  32   6  -1    5.87    0.75
 -30  -6   1    1.38    0.49
  30   6  -1    1.51    0.51
 -30   6   1    0.69    0.40
 -28  -6   1    4.16    0.59
 -28   6   1    2.14    0.46
  28   6  -1    2.19    0.57
 -26  -6   1   14.34    1.15
  26   6  -1   15.38    1.00
 -26   6   1   11.60    0.88
 -26   6   1   12.26    1.19
 -24  -6   1    7.52    1.03
 -24  -6   1    4.78    0.73
 -24   6   1    3.10    0.79
 -24   6   1    4.37    0.73
  24   6  -1    4.03    0.62
 -22  -6   1   19.64    1.04
 -22  -6   1   21.72    1.35
 -22  -6   1   19.25    1.21
  22   6  -1   16.65    1.07
 -22   6   1   16.19    1.00
 -22   6   1   16.30    1.42
 -20  -6   1    4.19    0.65
 -20  -6   1    3.88    0.56
 -20  -6   1    4.11    0.70
 -20   6   1    4.72    0.91
 -20   6   1    4.70    0.79
  20   6  -1    3.22    0.60
 -18  -6   1   14.83    0.93
 -18  -6   1   12.79    1.02
  18   6  -1   12.71    0.99
 -18   6   1   13.33    0.96
 -18   6   1   11.64    1.38
 -16  -6   1    8.37    0.82
 -16  -6   1    8.00    0.97
 -16   6   1    7.37    1.27
  16   6  -1    8.03    0.90
 -16   6   1    7.12    0.87
 -14  -6   1   16.11    1.01
 -14  -6   1   17.45    1.16
 -14   6   1   15.39    1.02
 -14   6   1   15.74    1.47
  14   6  -1   15.82    1.06
 -12  -6   1    2.86    0.67
 -12  -6   1    2.69    0.53
  12   6  -1    1.75    0.57
 -12   6   1    1.89    0.84
 -12   6   1    1.99    0.55
 -10  -6   1   18.53    1.15
 -10   6   1   20.30    1.11
 -10   6   1   16.09    1.53
  10   6  -1   17.92    1.12
  -8  -6   1    3.70    0.69
   8   6  -1    4.98    0.86
  -8   6   1    3.70    0.59
  -8   6   1    2.30    0.87
   8   6  -1    3.53    0.89
   6   6  -1    5.19    0.87
  -6   6   1    4.07    0.93
   6   6  -1    5.08    0.95
  -6   6   1    5.35    0.80
   4   6  -1   18.10    1.18
   4   6  -1   19.61    1.53
  -4   6   1   18.97    1.57
  -4   6   1   19.58    1.12
   2   6  -1    8.35    1.24
  -2   6   1    9.47    1.27
   2   6  -1    6.21    0.90
   0   6   1   41.74    2.39
   0   6  -1   44.35    2.38
   0   6  -1   47.17    1.89
   0   6   1   43.74    1.82
   2   6   1    5.81    0.87
  -2   6  -1   11.56    1.30
   2   6   1    8.97    1.26
  -2   6  -1   10.92    0.95
  -4   6  -1    5.14    0.87
  -4   6  -1    5.55    1.20
   4   6   1    6.49    1.23
   4   6   1    5.59    0.85
   6  -6   1   14.57    1.21
   6   6   1   12.32    1.43
  -6   6  -1   16.39    1.08
   6   6   1   13.76    0.99
  -6   6  -1   13.44    1.38
   8  -6   1    5.27    0.80
  -8   6  -1    2.69    0.84
   8   6   1    2.35    0.57
  -8   6  -1    2.30    0.62
   8   6   1    2.14    0.84
  10  -6   1    0.76    0.72
  10   6   1    0.93    0.51
 -10   6  -1   -0.09    0.76
 -10   6  -1   -0.33    0.58
 -12   6  -1    5.94    1.22
  12   6   1    6.33    0.87
 -12   6  -1    5.77    0.90
 -14   6  -1    6.52    0.88
 -14   6  -1    5.49    0.94
  14   6   1    4.40    0.63
  16   6   1    0.98    0.55
 -16   6  -1    0.46    0.54
 -16   6  -1    0.69    0.77
 -18  -6  -1    4.15    0.70
 -18  -6  -1    5.67    0.90
 -18   6  -1    4.49    0.92
  18   6   1    4.68    0.63
 -18   6  -1    4.91    0.67
 -20  -6  -1    4.72    0.69
 -20  -6  -1    4.18    0.68
  20  -6   1    4.15    0.74
  20   6   1    3.97    0.63
 -20   6  -1    4.57    0.88
 -20   6  -1    4.35    0.61
 -22  -6  -1    3.99    0.64
  22  -6   1    4.99    0.75
 -22   6  -1    3.47    0.58
 -22   6  -1    3.86    0.85
  22   6   1    3.20    0.59
 -24  -6  -1    2.71    0.55
  24  -6   1    2.17    0.67
 -24   6  -1    3.20    0.76
 -24   6  -1    2.04    0.53
  24   6   1    2.51    0.57
  26  -6   1    3.94    0.66
 -26  -6  -1    2.96    0.56
  26   6   1    2.71    0.56
 -26   6  -1    1.23    0.67
 -26   6  -1    1.85    0.51
  28  -6   1   16.98    1.06
 -28   6  -1   15.66    0.95
  28   6   1   16.64    1.01
  30   6   1    6.41    0.76
 -30   6  -1    6.06    0.71
 -15  -7   1    0.97    0.52
  15   7  -1    1.55    0.48
 -15   7   1    1.19    0.39
 -15   7   1    1.14    0.69
 -13  -7   1   10.61    0.98
  13   7  -1    8.26    0.83
 -13   7   1    9.60    1.08
 -13   7   1    8.47    0.69
 -11  -7   1   13.28    0.90
 -11   7   1   13.53    1.19
 -11   7   1   12.10    0.78
  11   7  -1   10.56    0.90
  -9  -7   1   11.94    0.91
  -9   7   1    9.49    1.13
   9   7  -1    9.73    0.86
  -9   7   1    9.73    0.76
  -7  -7   1    7.34    0.84
   7   7  -1    4.72    0.78
  -7   7   1    7.23    0.72
  -7   7   1   10.61    1.16
  -5  -7   1   25.95    1.21
  -5   7   1   25.80    1.14
  -5   7   1   25.26    1.62
   5   7  -1   25.98    1.22
  -3  -7   1    9.63    0.91
  -3   7   1    4.97    0.71
   3   7  -1    5.64    0.77
   3   7  -1    6.30    0.99
  -3   7   1    4.04    0.84
  -1  -7   1    2.80    0.57
   1   7  -1    0.37    0.70
  -1   7   1    2.19    0.75
   1   7  -1    1.83    0.49
  -1   7   1    2.40    0.46
   1  -7   1    7.55    0.87
   1   7   1    7.34    1.06
   1   7   1    9.06    0.75
  -1   7  -1    6.37    0.78
  -1   7  -1    7.23    1.08
   3  -7   1    7.58    0.86
   3   7   1    5.83    1.04
   3   7   1    6.28    0.74
  -3   7  -1    8.28    0.79
  -3   7  -1    8.37    1.07
   5  -7   1    1.58    0.55
   5   7   1    0.30    0.44
  -5   7  -1    1.19    0.45
  -5   7  -1    0.57    0.67
   7   7   1    3.12    0.51
  -7   7  -1    4.45    0.79
  -7   7  -1    3.56    0.53
  -9   7  -1    3.44    0.52
   9   7   1    3.04    0.50
  -9   7  -1    3.07    0.75
  11   7   1    0.75    0.45
 -11   7  -1    0.90    0.44
 -11   7  -1    1.15    0.68
 -13   7  -1    6.92    0.71
  13   7   1    7.31    0.75
 -13   7  -1    5.66    0.98
  56   0  -2    4.19    0.65
  56   0  -2    4.72    0.92
  54   0  -2   -0.05    0.44
  54   0  -2    0.45    0.85
  52   0  -2    0.33    0.52
  50   0  -2   20.44    1.10
 -50   0   2   17.03    1.30
 -48   0   2    0.55    0.63
  48   0  -2   -0.12    0.53
 -46   0   2    5.81    0.96
 -46   0   2    6.43    0.82
  46   0  -2    6.80    0.89
 -44   0   2    7.63    1.05
  44   0  -2    9.13    0.90
 -44   0   2    9.55    0.85
  42   0  -2    2.23    0.53
 -42   0   2    2.65    0.71
 -42   0   2    3.05    0.52
  40   0  -2   82.82    2.70
 -40   0   2   74.10    3.32
 -40   0   2   82.09    2.88
  38   0  -2    8.81    0.82
 -38   0   2   11.14    0.82
 -38   0   2    9.03    1.01
 -36   0   2    1.37    0.56
  36   0  -2    0.41    0.44
 -36   0   2    0.84    0.41
 -34   0   2   -0.06    0.49
  34   0  -2    0.14    0.40
 -34   0   2    0.45    0.38
 -32   0   2    3.00    0.58
  32   0  -2    4.37    0.63
 -30   0   2    2.12    0.52
  20   0  -2  231.28    7.81
  18   0  -2   46.64    1.73
  16   0  -2   31.53    1.24
 -16   0   2   32.70    1.43
 -14   0   2   41.52    1.73
 -12   0   2  129.95    5.06
  12   0  -2  132.60    4.38
 -10   0   2  104.22    4.02
  -8   0   2  457.24   14.99
  -8   0   2  451.68   17.17
  -6   0   2    4.27    0.30
  -6   0   2    4.15    0.33
  -4   0   2  122.28    4.08
   0   0  -2   17.49    0.76
   2   0   2    9.90    0.52
   4   0   2  313.16   10.89
   4   0   2  341.70   12.82
   6   0   2  108.42    3.68
   8   0   2    4.68    0.38
  -8   0  -2    4.50    0.42
 -10   0  -2    6.63    0.51
  10   0   2    6.78    0.46
  12   0   2    1.54    0.29
 -12   0  -2    2.94    0.44
  14   0   2    7.38    0.56
  16   0   2   12.92    0.74
  18   0   2   82.43    2.95
  20   0   2  104.64    3.70
  22   0   2    0.36    0.40
  24   0   2   17.73    1.01
  26   0   2   -0.52    0.42
  28   0   2    0.48    0.41
  28   0   2    0.30    0.45
  30   0   2   37.57    1.70
  30   0   2   37.54    1.46
  32   0   2    5.83    0.91
  32   0   2    5.87    0.75
  34   0   2   72.31    2.47
  34   0   2   72.62    2.38
  36   0   2   16.32    1.01
  38   0   2    5.16    0.80
  40   0   2   30.22    2.09
  40   0   2   27.60    1.31
  42   0   2   23.51    1.94
  42   0   2   23.56    1.18
  44   0   2   11.99    0.89
  44   0   2   11.73    1.62
 -46   0  -2    0.26    0.57
  46   0   2   -0.08    0.48
  46   0   2    0.91    0.85
 -48   0  -2    0.84    0.65
  48   0   2    0.97    0.49
  48   0   2    1.43    0.83
  50   0   2    3.79    0.50
  50   0   2    7.30    1.34
  52   0   2    2.58    0.81
  55  -1  -2    4.56    0.88
  55  -1  -2    5.00    0.73
  55   1  -2    6.46    1.25
  55   1  -2    5.05    0.62
  53  -1  -2   11.74    0.91
  53   1  -2   12.06    1.54
  53   1  -2   10.90    0.81
 -53   1   2   11.94    0.82
  51  -1  -2   31.98    1.41
 -51   1   2   29.74    1.27
  51   1  -2   28.04    1.26
 -51   1   2   25.20    1.66
  49  -1  -2    3.32    0.63
 -49   1   2    2.96    0.77
 -49   1   2    4.18    0.74
  49   1  -2    1.75    0.53
  47  -1  -2   15.88    1.10
 -47   1   2   12.61    1.18
 -47   1   2   13.34    0.92
  47   1  -2   12.81    0.97
  45  -1  -2    1.99    0.60
 -45   1   2    1.53    0.71
 -45   1   2    2.11    0.52
  45   1  -2    2.24    0.54
  43  -1  -2   23.13    1.25
 -43   1   2   20.76    1.46
  43   1  -2   22.71    1.16
 -43   1   2   21.29    1.12
  41  -1  -2   33.09    1.46
 -41   1   2   28.80    1.70
  41   1  -2   29.13    1.33
 -41   1   2   29.89    1.33
 -39  -1   2   51.46    2.44
  39  -1  -2   59.12    2.02
  39   1  -2   53.24    1.95
 -39   1   2   52.11    2.46
 -39   1   2   53.74    2.03
  37  -1  -2   11.16    0.86
 -37  -1   2    9.06    0.93
 -37   1   2   12.79    1.15
 -37   1   2   12.72    0.85
  37   1  -2   12.74    0.88
  35  -1  -2   16.24    0.96
 -35  -1   2   15.09    1.06
 -35   1   2   15.66    0.89
  35   1  -2   15.30    0.90
 -35   1   2   16.66    1.19
  33  -1  -2   30.60    1.28
 -33  -1   2   29.14    1.47
 -33   1   2   28.19    1.47
 -33   1   2   25.42    1.15
  33   1  -2   26.63    1.15
 -31  -1   2   34.29    1.59
  31   1  -2   31.21    1.27
 -31   1   2   33.30    1.60
 -29  -1   2   32.01    1.48
 -29   1   2   32.34    1.55
  29   1  -2   31.74    1.46
 -27  -1   2   79.37    3.14
 -27  -1   2   83.30    3.41
  27   1  -2   79.00    2.95
 -27   1   2   80.55    3.15
 -25  -1   2  137.76    5.11
 -25  -1   2  139.61    5.50
 -25   1   2  142.75    5.33
  25   1  -2  144.30    5.01
 -23  -1   2   14.95    0.98
  23   1  -2   14.52    0.85
 -23   1   2   14.66    0.89
 -21  -1   2   39.95    1.79
  21   1  -2   44.35    1.70
 -21   1   2   43.13    1.81
 -19  -1   2   83.83    3.37
 -19   1   2   89.55    3.32
  19   1  -2   86.69    3.11
 -17  -1   2  117.12    4.59
  17   1  -2   99.43    3.46
 -15  -1   2   23.42    1.12
  15   1  -2   32.19    1.25
 -13  -1   2  457.88   17.37
  13   1  -2  443.56   14.78
 -11  -1   2   29.65    1.30
  11   1  -2   27.09    1.05
  -9  -1   2  193.83    7.12
   9  -1  -2  177.72    7.35
   9   1  -2  192.84    6.48
  -7  -1   2  245.68    8.76
   7  -1  -2  213.96    9.05
   7   1  -2  228.24    7.64
  -5  -1   2   72.04    2.76
   5  -1  -2   62.07    2.84
   5  -1  -2   75.53    2.44
   5   1  -2   66.07    2.30
  -3  -1   2   28.09    1.23
   3  -1  -2   30.14    1.10
  -3   1   2   27.70    1.24
   3   1  -2   27.78    1.03
   1  -1  -2 1000.00   31.91
  -1  -1   2  937.00   36.52
  -1   1   2  887.34   34.64
  -1  -1  -2  153.74    5.15
   1   1   2  142.26    5.66
  -3  -1  -2  399.71   16.02
  -3  -1  -2  416.30   13.49
   3   1   2  361.91   12.02
  -5  -1  -2  118.87    4.62
   5  -1   2  111.28    3.91
   5   1   2   99.01    3.35
  -7  -1  -2    5.15    0.52
   7  -1   2    5.20    0.42
   7   1   2    6.48    0.41
   9  -1   2   16.29    0.76
  -9  -1  -2   17.46    0.89
   9   1   2   18.18    0.80
   9   1   2   20.13    0.78
  11  -1   2   42.69    1.64
 -11  -1  -2   46.04    1.93
  11   1   2   43.02    1.56
  11   1   2   41.72    1.51
  13  -1   2   66.31    2.38
  13   1   2   69.86    2.48
  15  -1   2   76.65    2.74
  15   1   2   72.36    2.60
  17  -1   2  158.06    5.44
  17   1   2  161.22    5.53
  19  -1   2   12.94    0.82
  19   1   2   18.12    0.95
  21  -1   2  210.43    7.21
  21   1   2  238.67    8.14
  23  -1   2  131.64    4.64
  23   1   2  128.35    4.53
  25   1   2   27.51    1.32
  27  -1   2   34.70    1.39
  27   1   2   36.85    1.65
  29  -1   2   22.36    1.09
  29   1   2   22.85    1.07
  29   1   2   24.45    1.26
  31  -1   2    5.80    0.75
  31   1   2    7.48    0.71
  31   1   2    8.07    0.83
 -31   1  -2    6.48    0.71
  33  -1   2   73.11    2.50
  33   1   2   68.97    2.39
  33   1   2   73.91    2.82
  35  -1   2   11.48    0.93
  35   1   2    9.14    1.00
  35   1   2    9.59    0.82
  35   1   2    9.37    1.55
  37  -1   2   46.92    1.76
  37  -1   2   44.26    1.78
  37   1   2   37.79    1.88
  37   1   2   41.60    2.44
  37   1   2   38.44    1.54
  39  -1   2    1.59    0.59
  39  -1   2    1.74    0.57
  39   1   2    2.38    0.54
  39   1   2    1.93    1.01
  41  -1   2    9.76    1.56
  41  -1   2    7.77    0.91
  41  -1   2    7.90    0.90
  41   1   2    7.77    1.54
  41   1   2    6.44    0.79
  43  -1   2    2.42    0.58
  43  -1   2    1.30    0.93
  43   1   2    2.24    0.93
  43   1   2    0.87    0.48
  45  -1   2   19.53    1.13
  45  -1   2   19.68    1.70
  45   1   2   20.80    1.76
 -45   1  -2   17.23    1.29
  47  -1   2    0.07    0.75
  47  -1   2   -0.07    0.52
  47   1   2    0.14    0.88
 -47   1  -2    1.14    0.63
  49  -1   2    8.45    1.28
  49  -1   2    5.46    0.77
  49   1   2    9.33    1.46
  51  -1   2   12.14    1.30
  51  -1   2    9.39    0.78
  51   1   2   11.85    1.50
  53   1   2    1.37    0.76
  54  -2  -2    1.46    0.47
  54  -2  -2    0.23    0.48
  54   2  -2    0.52    0.73
 -54   2   2    0.73    0.40
  52  -2  -2    0.50    0.56
  52  -2  -2    0.39    0.53
  52   2  -2    0.81    0.78
 -52   2   2    0.56    0.40
  50  -2  -2   25.50    1.28
 -50   2   2   20.57    1.04
  50   2  -2   20.77    1.69
  50   2  -2   19.47    1.04
  48  -2  -2   11.27    1.02
  48   2  -2   13.01    1.70
 -48   2   2   12.85    0.90
 -48   2   2   12.38    1.19
  48   2  -2   13.57    0.89
  46  -2  -2    2.01    0.63
  46   2  -2    2.71    0.56
 -46   2   2    2.06    0.50
 -46   2   2    1.79    0.76
  46   2  -2    4.63    1.10
  44  -2  -2    7.44    0.97
  44   2  -2    4.88    0.61
 -44   2   2    6.16    0.75
 -44   2   2    6.26    1.03
  42  -2  -2    2.98    0.67
 -42   2   2    4.96    0.73
  42   2  -2    5.16    0.79
 -42   2   2    3.33    0.79
  40  -2  -2    3.46    0.67
 -40   2   2    0.52    0.67
 -40   2   2    2.39    0.49
  40   2  -2    2.57    0.59
  38  -2  -2    4.65    0.64
 -38  -2   2    3.25    0.67
  38   2  -2    3.66    0.57
 -38   2   2    3.14    0.49
 -38   2   2    2.75    0.75
  36  -2  -2   14.42    1.01
 -36  -2   2   13.25    1.13
  36   2  -2   10.54    0.85
 -36   2   2    9.65    0.76
 -36   2   2   10.01    1.09
 -34  -2   2   83.77    2.92
  34  -2  -2   78.43    2.73
  34   2  -2   73.83    2.49
  34   2  -2   77.86    2.98
 -34   2   2   76.72    3.16
 -34   2   2   71.11    2.65
  32  -2  -2    7.14    0.81
 -32  -2   2    6.52    0.90
 -32  -2   2    6.93    1.01
 -32   2   2    5.98    0.64
 -32   2   2    5.98    0.88
  32   2  -2    7.48    0.88
  32   2  -2    7.32    0.73
 -30  -2   2   55.95    2.57
 -30  -2   2   56.42    2.14
 -30   2   2   57.80    2.41
  30   2  -2   54.54    1.89
 -30   2   2   49.84    1.98
  30   2  -2   56.97    2.25
 -28  -2   2   61.51    2.66
 -28  -2   2   56.63    1.99
  28   2  -2   58.94    2.33
  28   2  -2   54.84    1.97
 -28   2   2   63.44    2.52
 -26  -2   2  157.74    4.84
 -26  -2   2  165.74    6.44
  26   2  -2  157.47    5.40
 -26   2   2  149.92    5.74
 -24  -2   2   11.46    0.93
  24   2  -2    8.77    0.77
 -24   2   2    9.57    0.83
 -22  -2   2   58.16    2.52
  22   2  -2   58.01    2.20
 -22   2   2   57.49    2.35
 -20  -2   2  116.10    4.65
 -20   2   2  104.23    3.87
  20   2  -2  100.08    3.62
 -18  -2   2   70.97    2.96
  18   2  -2   67.27    2.47
 -18   2   2   68.49    2.65
 -16  -2   2   14.31    0.95
 -16   2   2   12.16    0.79
  16   2  -2   11.38    0.68
 -14  -2   2   68.37    2.83
  14   2  -2   63.19    2.28
 -12  -2   2   76.35    3.10
  12   2  -2   65.63    2.36
 -10  -2   2   73.18    2.97
  10   2  -2   64.87    2.32
  -8  -2   2  222.71    8.56
   8   2  -2  224.91    7.58
  -6  -2   2   71.66    2.90
   6   2  -2   57.98    2.07
   4  -2  -2  326.45   13.01
  -4  -2   2  334.27   12.60
   4   2  -2  306.23   10.40
  -4   2   2  315.56   12.25
  -2  -2   2  335.57   12.80
   2  -2  -2  336.25   13.23
  -2   2   2  325.66   12.52
   2   2  -2  317.44   12.50
   2   2  -2  310.24   10.63
   0  -2   2   20.19    1.02
   0  -2  -2   19.67    0.96
   0  -2  -2   21.17    1.00
   0   2   2   21.05    1.05
   0   2  -2   19.99    0.90
   0   2   2   18.24    0.74
  -2  -2  -2   20.23    0.95
  -2  -2  -2   20.73    0.94
  -2  -2  -2   19.44    1.01
   2   2   2   17.94    0.71
  -4  -2  -2   21.23    1.07
  -4  -2  -2   20.92    0.99
  -4  -2  -2   22.00    0.96
   4   2   2   17.01    0.68
  -6  -2  -2   44.61    1.66
  -6  -2  -2   44.34    1.84
  -6  -2  -2   45.49    1.97
   6   2   2   37.00    1.34
  -8  -2  -2   39.91    1.72
  -8  -2  -2   41.98    1.87
  -8  -2  -2   42.33    1.55
   8   2   2   38.71    1.42
 -10  -2  -2  130.77    5.22
 -10  -2  -2  125.29    4.96
  10   2   2  122.59    4.19
 -12  -2  -2    1.37    0.34
  12   2   2    1.57    0.31
 -14  -2  -2   11.06    0.72
  14   2   2   12.81    0.73
 -16  -2  -2    7.47    0.67
  16   2   2    7.25    0.62
  18   2   2   30.38    1.31
 -20  -2  -2   14.75    0.92
  20   2   2   15.87    0.92
 -22  -2  -2    3.17    0.53
  22   2   2    2.58    0.47
  24  -2   2   40.72    1.57
  24   2   2   36.46    1.59
  26  -2   2    0.51    0.45
  26   2   2    0.44    0.46
  26   2   2    0.54    0.76
  26   2   2    0.07    0.46
  28  -2   2   26.25    1.24
 -28  -2  -2   25.13    1.29
  28   2   2   25.48    1.26
 -28   2  -2   21.57    1.08
  28   2   2   21.61    1.16
  28   2   2   20.51    1.66
  30  -2   2   10.99    0.92
 -30  -2  -2    9.23    0.94
  30   2   2    8.89    1.36
  30   2   2    7.62    0.90
  30   2   2    9.27    0.89
 -30   2  -2    8.09    0.74
  32  -2   2   26.69    1.30
  32   2   2   18.65    1.18
 -32   2  -2   20.51    1.07
  32   2   2   22.07    1.26
  32   2   2   19.78    1.65
  34  -2   2   12.09    1.05
  34  -2   2   14.26    1.03
  34   2   2   11.26    1.04
  34   2   2    9.84    1.42
 -34   2  -2   12.12    0.87
  34   2   2   11.92    1.03
  36  -2   2    0.91    0.55
  36  -2   2    1.31    0.61
  36   2   2    1.26    0.60
 -36   2  -2    0.82    0.47
  36   2   2    0.78    0.86
  36   2   2    1.67    0.58
  38  -2   2    1.34    0.62
  38  -2   2    2.70    0.62
 -38   2  -2    1.77    0.50
  38   2   2    2.64    0.93
  40  -2   2    7.98    0.93
  40  -2   2    5.92    0.72
 -40   2  -2    4.43    0.79
  40   2   2    4.60    1.02
 -40   2  -2    4.73    0.63
  42  -2   2   10.52    0.95
  42  -2   2    9.47    0.99
 -42   2  -2    8.29    1.05
  42   2   2   10.44    1.60
 -42   2  -2   10.92    0.88
  44  -2   2   12.94    1.01
  44  -2   2   12.44    0.99
 -44   2  -2   10.55    1.11
  44   2   2   14.48    1.64
  46  -2   2   14.70    1.03
  46   2   2   15.62    1.75
  48  -2   2    3.38    0.56
  48   2   2    4.38    0.98
  50  -2   2   11.67    0.82
  50   2   2   16.84    1.52
  51  -3  -2    9.99    0.87
  51  -3  -2   11.96    0.90
 -51   3   2    9.62    0.73
  49  -3  -2    0.95    0.53
  49  -3  -2    2.79    0.63
 -49   3   2    0.97    0.43
  47  -3  -2   13.77    1.07
  47  -3  -2   14.30    1.19
 -47   3   2   14.92    0.91
  45  -3  -2    6.45    0.97
 -45   3   2    4.55    0.84
 -45   3   2    7.06    0.75
  43  -3  -2   16.84    1.17
 -43   3   2   13.28    1.26
 -43   3   2   17.17    0.96
  41  -3  -2   23.99    1.30
 -41   3   2   21.79    1.11
 -41   3   2   20.24    1.48
  39  -3  -2   28.78    1.46
 -39  -3   2   30.66    1.59
 -39   3   2   21.24    1.10
 -39   3   2   21.48    1.50
 -37  -3   2   53.68    2.21
 -37   3   2   49.40    1.93
 -37   3   2   50.50    2.41
 -35  -3   2   59.65    2.23
 -35  -3   2   47.89    2.62
 -35   3   2   48.01    1.87
 -35   3   2   47.09    2.30
  35   3  -2   48.14    2.17
 -33  -3   2   70.26    3.33
 -33  -3   2   77.85    2.77
  33   3  -2   66.74    2.77
 -33   3   2   68.61    2.95
 -33   3   2   66.92    2.45
  33   3  -2   68.83    2.35
 -31  -3   2   11.38    0.90
 -31  -3   2   10.02    1.13
 -31  -3   2   12.61    1.11
  31   3  -2    8.07    0.91
 -31   3   2    8.44    0.98
 -31   3   2    7.98    0.71
  31   3  -2    7.31    0.76
  31   3  -2    7.45    0.94
 -29  -3   2   18.82    1.04
 -29  -3   2   21.03    1.29
 -29  -3   2   18.07    1.37
  29   3  -2   18.48    0.99
 -29   3   2   21.81    1.30
  29   3  -2   19.16    1.18
  29   3  -2   19.00    1.19
 -29   3   2   19.60    0.97
 -27  -3   2    8.42    0.78
 -27  -3   2    7.62    1.04
 -27  -3   2    7.55    1.01
 -27   3   2    7.73    0.88
  27   3  -2    6.91    0.83
  27   3  -2    7.37    0.83
  27   3  -2    6.17    0.70
 -27   3   2    5.43    0.62
 -25  -3   2   29.04    1.50
 -25  -3   2   30.92    1.26
 -25  -3   2   28.60    1.65
 -25  -3   2   30.70    1.28
  25   3  -2   25.88    1.10
  25   3  -2   27.29    1.32
  25   3  -2   24.91    1.30
 -25   3   2   24.36    1.10
 -25   3   2   28.44    1.42
 -23  -3   2   29.71    1.26
 -23  -3   2   31.12    1.30
 -23  -3   2   33.04    1.69
 -23  -3   2   31.18    1.26
  23   3  -2   27.81    1.23
 -23   3   2   31.20    1.50
  23   3  -2   30.42    1.39
 -21  -3   2  127.72    5.04
 -21  -3   2  122.58    3.84
 -21  -3   2  120.99    3.86
  21   3  -2  113.96    4.28
 -21   3   2  128.12    4.61
 -19  -3   2   39.98    1.94
 -19   3   2   32.82    1.55
  19   3  -2   32.98    1.43
 -17  -3   2   14.01    1.05
  17   3  -2   14.04    0.82
 -17   3   2   13.40    0.91
 -15  -3   2    4.27    0.63
 -15  -3   2    4.67    0.79
  15   3  -2    5.24    0.58
 -13  -3   2   25.84    1.15
 -13  -3   2   28.73    1.45
  13   3  -2   24.83    1.11
 -11  -3   2   91.80    3.70
 -11  -3   2   88.01    2.96
  11   3  -2   95.39    3.39
  -9  -3   2   33.46    1.61
   9   3  -2   36.25    1.47
  -7  -3   2   89.29    3.65
   7   3  -2   79.55    2.86
  -5  -3   2   67.26    2.84
  -5   3   2   60.52    2.60
  -5   3   2   58.67    2.12
   5   3  -2   62.68    2.23
   3  -3  -2   72.60    2.95
   3  -3  -2   67.58    3.01
  -3  -3   2   76.21    3.01
  -3   3   2   65.86    2.75
   3   3  -2   63.35    2.32
  -3   3   2   62.47    2.23
   1  -3  -2   52.44    2.42
   1  -3  -2   56.47    2.36
  -1  -3   2   59.91    2.43
  -1   3   2   61.89    2.18
   1   3  -2   62.18    2.26
  -1   3   2   61.30    2.67
   1  -3   2  105.10    4.05
  -1  -3  -2   98.21    3.97
  -1  -3  -2   95.64    3.63
  -1   3  -2   87.55    3.06
   1   3   2   84.75    2.97
   1   3   2   86.16    3.63
   3  -3   2    9.99    0.84
  -3  -3  -2    8.89    0.75
  -3  -3  -2    7.67    0.73
   3   3   2    7.86    0.51
   3   3   2    8.25    0.82
  -5  -3  -2  172.78    6.55
  -5  -3  -2  163.89    5.78
   5   3   2  158.41    5.37
  -7  -3  -2   13.38    0.89
   7   3   2    9.26    0.55
   9   3   2   26.80    1.10
 -11  -3  -2   15.55    0.96
  11   3   2   17.39    0.85
  13   3   2    3.62    0.53
  15   3   2   79.87    2.89
  17   3   2   31.88    1.39
  19  -3   2   18.68    1.03
  19   3   2   16.77    0.97
 -21  -3  -2   13.59    0.86
  21  -3   2   14.04    1.00
  21  -3   2   14.01    0.95
 -21   3  -2   12.04    0.81
  21   3   2   11.15    0.88
  21   3   2   11.61    0.83
  23  -3   2    5.18    0.65
 -23  -3  -2    5.35    0.90
  23  -3   2    4.46    0.60
 -23   3  -2    3.79    0.67
  23   3   2    5.28    0.69
  23   3   2    3.25    0.58
 -25  -3  -2   23.59    1.28
  25  -3   2   23.26    1.20
  25  -3   2   24.77    1.26
 -25   3  -2   18.44    1.05
  25   3   2   21.33    1.20
  25   3   2   20.95    1.11
 -27  -3  -2   54.40    2.21
  27  -3   2   61.54    2.14
  27  -3   2   58.53    2.15
  27   3   2   59.59    2.23
  27   3   2   56.66    2.33
 -27   3  -2   58.07    2.17
  27   3   2   51.82    2.81
  29  -3   2   98.91    3.22
 -29  -3  -2   92.40    3.35
  29  -3   2   97.31    3.22
 -29   3  -2   82.65    2.96
  29   3   2   76.69    3.73
  29   3   2   86.71    3.03
  29   3   2   81.35    3.16
  31  -3   2   17.27    1.13
  31  -3   2   15.52    1.18
 -31  -3  -2   14.50    1.14
  31   3   2   13.69    1.06
 -31   3  -2   13.80    1.13
 -31   3  -2   15.39    0.98
  31   3   2   12.16    1.55
  31   3   2   12.33    1.05
 -33  -3  -2   19.07    1.24
  33  -3   2   19.80    1.23
  33  -3   2   18.69    1.22
 -33   3  -2   16.54    1.22
  33   3   2   15.48    1.14
  33   3   2   16.59    1.15
 -33   3  -2   16.65    1.04
  33   3   2   15.43    1.66
  35  -3   2   25.71    1.39
  35  -3   2   28.66    1.42
 -35   3  -2   21.11    1.41
  35   3   2   23.90    1.88
  35   3   2   23.19    1.36
 -35   3  -2   24.96    1.24
  37  -3   2   39.33    1.66
  37  -3   2   40.27    1.72
 -37   3  -2   38.01    1.62
  37   3   2   37.62    1.70
  37   3   2   37.79    2.28
 -37   3  -2   32.87    1.85
  39  -3   2    8.98    1.04
  39  -3   2    9.01    0.98
  39   3   2    5.70    0.74
 -39   3  -2    8.18    0.84
 -39   3  -2    5.96    0.97
  39   3   2    9.60    1.56
  41  -3   2   21.11    1.23
  41  -3   2   21.36    1.21
  41   3   2   19.22    1.73
  41   3   2   19.68    1.19
 -41   3  -2   19.52    1.09
 -41   3  -2   15.59    1.24
  43  -3   2    8.49    0.93
  43  -3   2    6.80    0.92
  43   3   2    9.66    1.48
 -43   3  -2    8.55    0.81
  45  -3   2    3.76    0.60
 -45   3  -2    3.11    0.50
  45   3   2    4.15    0.94
  47  -3   2    1.20    0.50
  47   3   2    4.21    0.82
 -47   3  -2    1.65    0.47
  46  -4  -2    0.88    0.55
 -46   4   2    1.00    0.40
  44  -4  -2   16.04    1.15
 -44   4   2   11.87    0.82
  42  -4  -2    2.10    0.69
 -42   4   2    0.65    0.43
  40  -4  -2    1.18    0.70
 -40  -4   2    0.96    0.58
 -40   4   2    1.21    0.45
 -38  -4   2    8.05    1.06
 -38   4   2    7.22    0.77
 -36  -4   2   19.06    1.29
 -36   4   2   14.91    0.96
 -34  -4   2   65.94    2.54
  34   4  -2   54.74    2.22
 -34   4   2   53.17    2.06
 -32  -4   2   36.52    1.72
 -32   4   2   34.07    1.48
  32   4  -2   35.52    1.63
 -30  -4   2    8.07    0.89
 -30  -4   2    6.51    1.11
  30   4  -2    4.53    0.72
 -30   4   2    5.21    0.72
  30   4  -2    5.20    0.90
 -28  -4   2   20.93    1.36
 -28  -4   2   16.60    1.45
 -28  -4   2   23.10    1.12
 -28   4   2   17.05    0.95
  28   4  -2   16.44    1.15
  28   4  -2   17.58    1.12
 -26  -4   2    0.17    0.61
 -26  -4   2    0.81    0.59
 -26  -4   2    0.69    0.51
 -26  -4   2    0.38    0.62
  26   4  -2    0.15    0.51
  26   4  -2   -0.22    0.50
 -26   4   2   -0.27    0.36
 -24  -4   2   49.73    1.84
 -24  -4   2   52.20    1.87
 -24  -4   2   48.10    2.44
 -24   4   2   44.09    2.24
  24   4  -2   42.59    1.79
 -24   4   2   41.51    1.67
  24   4  -2   44.81    1.90
 -22  -4   2    4.39    0.77
 -22  -4   2    4.10    0.58
 -22  -4   2    4.45    0.62
 -22   4   2    5.81    0.64
  22   4  -2    5.75    0.76
  22   4  -2    5.30    0.75
 -22   4   2    5.16    0.97
 -20  -4   2    6.26    0.80
 -20  -4   2    5.37    0.72
 -20  -4   2    6.00    0.99
 -20   4   2    3.53    0.59
  20   4  -2    3.56    0.56
  20   4  -2    3.67    0.56
 -20   4   2    4.52    0.93
 -18  -4   2    3.48    0.55
 -18  -4   2    4.99    0.94
 -18  -4   2    4.19    0.58
 -18   4   2    4.43    0.78
  18   4  -2    2.51    0.52
  18   4  -2    4.20    0.72
 -18   4   2    2.37    0.41
 -16  -4   2   36.54    1.49
 -16  -4   2   39.59    1.98
 -16  -4   2   40.25    1.51
 -16   4   2   36.42    1.99
 -16   4   2   35.59    1.45
  16   4  -2   39.22    1.61
  16   4  -2   37.07    1.59
 -14  -4   2   26.97    1.18
 -14  -4   2   28.94    1.58
 -14  -4   2   25.06    1.23
 -14  -4   2   27.51    1.22
 -14   4   2   23.31    1.47
  14   4  -2   23.81    1.14
  14   4  -2   22.53    1.14
 -14   4   2   19.63    0.99
 -12  -4   2    1.34    0.44
 -12  -4   2    1.01    0.49
 -12  -4   2    1.05    0.57
 -12  -4   2   -0.19    0.46
  12   4  -2    1.08    0.44
 -12   4   2    0.52    0.61
  12   4  -2    1.59    0.41
 -10  -4   2    4.79    0.74
 -10  -4   2    5.33    0.92
 -10  -4   2    5.64    0.66
 -10   4   2    4.82    0.53
 -10   4   2    4.69    0.93
  10   4  -2    6.30    0.71
  10   4  -2    4.57    0.65
  -8  -4   2   22.20    1.38
  -8  -4   2   22.21    1.06
   8  -4  -2   21.87    1.32
  -8  -4   2   21.12    1.11
  -8   4   2   17.36    0.85
   8   4  -2   17.51    0.96
  -8   4   2   18.07    1.29
   8   4  -2   20.46    1.03
  -6  -4   2    4.03    0.68
  -6  -4   2    4.35    0.72
  -6  -4   2    4.72    0.69
   6  -4  -2    6.10    0.84
   6   4  -2    3.34    0.50
  -6   4   2    2.94    0.48
  -6   4   2    4.22    0.87
   4  -4  -2    6.24    0.84
  -4  -4   2    4.96    0.88
  -4  -4   2    6.20    0.75
  -4   4   2    4.48    0.53
  -4   4   2    5.92    0.89
   4   4  -2    3.93    0.63
  -2  -4   2   40.75    1.95
   2  -4  -2   36.24    1.84
  -2   4   2   32.50    1.79
   2   4  -2   33.53    1.45
  -2   4   2   34.40    1.35
   0  -4  -2   33.81    1.70
   0  -4   2   33.87    1.77
   0   4   2   31.55    1.76
   0   4   2   33.50    1.32
   0   4  -2   32.89    1.43
   2  -4   2   65.26    2.91
   2   4   2   48.03    2.44
  -2   4  -2   51.97    2.01
   2   4   2   53.18    1.91
   4  -4   2   26.16    1.51
  -4   4  -2   20.75    1.08
  -4   4  -2   23.36    1.13
   4   4   2   23.51    1.01
   4   4   2   22.21    1.38
   6  -4   2   43.39    2.06
   6  -4   2   37.96    1.54
  -6   4  -2   32.58    1.47
  -6   4  -2   39.23    1.58
   6   4   2   34.18    1.89
   6   4   2   39.42    1.46
   8  -4   2   21.27    1.35
   8  -4   2   17.80    1.02
  -8   4  -2   14.89    0.91
   8   4   2   14.90    0.86
   8   4   2   16.21    1.18
   8   4   2   17.25    0.85
  10  -4   2   39.62    1.57
  10  -4   2   42.37    2.09
  10   4   2   35.76    1.42
  10   4   2   31.65    1.37
  10   4   2   31.80    1.77
 -10   4  -2   33.25    1.39
  12  -4   2    6.77    0.83
  12   4   2    6.90    0.68
  12   4   2    8.25    0.71
 -12   4  -2    7.69    0.71
  14  -4   2   38.71    1.56
 -14   4  -2   31.70    1.37
  14   4   2   35.18    1.44
  14   4   2   29.33    1.35
  16  -4   2    5.68    0.82
  16   4   2    6.96    0.74
  16   4   2    6.49    0.73
 -16   4  -2    6.45    0.68
  18  -4   2    8.16    0.90
 -18   4  -2    7.98    0.75
  18   4   2    9.29    0.83
  18   4   2    8.02    0.83
  20  -4   2   16.10    1.13
  20  -4   2   16.96    1.07
 -20  -4  -2   14.86    1.20
  20   4   2   15.05    1.04
 -20   4  -2   15.46    0.96
  20   4   2   15.32    1.00
 -22  -4  -2   53.59    2.13
 -22  -4  -2   52.21    1.94
  22  -4   2   51.77    2.02
  22  -4   2   54.13    2.00
 -22   4  -2   47.84    1.88
  22   4   2   47.61    1.91
  22   4   2   45.94    2.02
  24  -4   2   47.28    1.84
 -24  -4  -2   45.92    1.95
  24  -4   2   47.76    1.88
 -24  -4  -2   46.08    1.90
  24   4   2   37.74    1.76
  24   4   2   40.09    1.67
 -24   4  -2   35.89    1.60
  26  -4   2   31.01    1.47
 -26  -4  -2   30.08    1.55
  26  -4   2   32.11    1.54
 -26   4  -2   29.20    1.38
  26   4   2   30.59    1.43
  26   4   2   28.42    1.52
  28  -4   2   25.44    1.33
  28  -4   2   27.31    1.46
 -28  -4  -2   22.56    1.40
 -28   4  -2   21.95    1.19
  28   4   2   23.62    1.29
  30  -4   2   18.62    1.20
  30  -4   2   20.85    1.30
 -30  -4  -2   18.65    1.28
  30   4   2   14.12    1.10
 -30   4  -2   16.28    1.02
 -32  -4  -2    6.72    1.01
  32  -4   2    6.07    0.94
  32  -4   2    5.68    0.80
 -32   4  -2    4.68    0.78
  32   4   2    7.40    0.95
  34  -4   2    5.68    0.72
  34  -4   2    7.29    0.81
 -34  -4  -2    5.73    0.70
  34   4   2    6.78    0.95
 -34   4  -2    5.06    0.80
  36  -4   2    1.48    0.68
  36  -4   2    0.79    0.60
 -36   4  -2    0.73    0.47
  36   4   2    1.31    0.59
  38  -4   2    2.10    0.64
  38  -4   2    1.15    0.60
  38   4   2    0.89    0.56
 -38   4  -2    0.85    0.47
  40  -4   2   11.99    1.00
  40  -4   2   11.85    0.99
 -40   4  -2   10.53    0.83
  40   4   2   10.91    0.91
  42  -4   2    1.14    0.50
  42  -4   2    1.63    0.55
 -42   4  -2    0.44    0.41
  42   4   2    0.63    0.49
  44  -4   2    2.58    0.52
 -44   4  -2    2.39    0.42
 -41   5   2    5.09    0.61
 -39  -5   2    7.04    0.92
 -39   5   2    4.21    0.65
 -37  -5   2    3.43    0.59
 -37   5   2    2.28    0.46
 -35  -5   2    0.58    0.55
 -35   5   2    0.61    0.44
  35   5  -2    0.51    0.54
 -33  -5   2    7.51    1.04
 -33   5   2    7.80    0.74
  33   5  -2    5.74    0.92
 -31  -5   2    3.92    0.65
 -31   5   2    3.86    0.53
  31   5  -2    3.18    0.60
 -29  -5   2    9.90    1.15
 -29  -5   2   11.07    0.90
  29   5  -2    6.41    0.93
 -29   5   2    8.06    0.77
 -27  -5   2    6.51    0.80
 -27  -5   2    4.83    0.73
 -27   5   2    3.56    0.54
  27   5  -2    6.42    0.88
 -27   5   2    5.11    0.91
 -25  -5   2   19.11    1.36
 -25  -5   2   20.01    1.13
 -25  -5   2   20.87    1.19
  25   5  -2   16.75    1.11
 -25   5   2   15.66    1.43
 -25   5   2   14.73    0.94
 -23  -5   2   11.35    1.00
 -23  -5   2   13.61    0.95
 -23   5   2   11.23    0.85
  23   5  -2    9.70    0.95
 -23   5   2   11.28    1.30
 -21  -5   2    0.84    0.51
 -21  -5   2    0.23    0.58
 -21   5   2    0.89    0.46
 -21   5   2    0.44    0.71
  21   5  -2    0.53    0.51
 -19  -5   2   27.17    1.30
 -19  -5   2   24.44    1.23
  19   5  -2   22.91    1.28
 -19   5   2   22.18    1.12
 -19   5   2   21.18    1.63
  19   5  -2   22.58    1.22
 -17  -5   2    1.67    0.53
 -17  -5   2    2.66    0.62
  17   5  -2    0.45    0.51
 -17   5   2    0.41    0.74
 -17   5   2    0.24    0.43
  17   5  -2    0.46    0.48
 -15  -5   2   12.55    0.95
 -15  -5   2   11.03    0.97
 -15  -5   2   10.17    1.17
 -15   5   2    9.67    0.81
  15   5  -2   11.64    0.96
 -15   5   2   12.36    1.30
  15   5  -2   10.88    0.94
 -13  -5   2   17.65    1.40
 -13  -5   2   20.15    1.08
 -13  -5   2   18.22    1.11
 -13   5   2   14.55    0.94
  13   5  -2   16.77    1.09
 -13   5   2   17.24    1.44
  13   5  -2   17.49    1.07
 -11  -5   2   49.98    1.80
 -11  -5   2   44.65    2.37
 -11  -5   2   46.93    1.82
 -11   5   2   40.56    1.63
  11   5  -2   41.72    1.74
  11   5  -2   39.94    1.79
 -11   5   2   40.29    2.23
  -9  -5   2    2.32    0.56
  -9  -5   2    2.77    0.64
  -9  -5   2    2.48    0.76
  -9   5   2    4.12    0.68
  -9   5   2    3.55    0.84
   9   5  -2    3.40    0.57
   9   5  -2    4.77    0.82
   9   5  -2    4.88    1.03
  -7  -5   2   24.16    1.63
  -7  -5   2   24.36    1.35
  -7  -5   2   25.03    1.24
  -7   5   2   23.34    1.64
   7   5  -2   25.23    1.58
  -7   5   2   22.50    1.13
   7   5  -2   23.96    1.26
   7   5  -2   23.05    1.27
  -5  -5   2   16.06    1.37
  -5  -5   2   16.13    1.01
  -5  -5   2   16.60    1.14
  -5   5   2   14.75    1.33
   5   5  -2   13.68    1.00
  -5   5   2   13.83    0.89
   5   5  -2   14.87    1.01
  -3  -5   2   20.28    1.49
  -3  -5   2   22.47    1.17
  -3  -5   2   20.21    1.29
   3   5  -2   18.14    1.07
  -3   5   2   17.39    1.40
  -3   5   2   17.93    0.91
   3   5  -2   17.01    1.10
  -3   5   2   17.09    0.97
  -1  -5   2   17.13    1.41
  -1  -5   2   18.38    1.20
  -1  -5   2   19.61    1.11
  -1   5   2   18.28    1.38
   1   5  -2   15.12    1.06
   1   5  -2   15.44    1.06
  -1   5   2   16.25    0.88
  -1   5   2   16.92    0.96
   1  -5   2   53.67    2.10
   1  -5   2   50.74    2.58
   1  -5   2   51.98    1.96
   1   5   2   44.72    1.79
   1   5   2   45.89    2.38
   1   5   2   42.87    1.79
  -1   5  -2   48.09    1.99
  -1   5  -2   48.18    1.91
   3  -5   2   41.10    1.63
   3  -5   2   37.01    2.15
   3   5   2   34.95    1.96
   3   5   2   32.26    1.43
  -3   5  -2   33.77    1.55
  -3   5  -2   35.80    1.63
   3   5   2   33.87    1.44
   5  -5   2    3.29    0.84
   5   5   2    4.20    0.72
  -5   5  -2    3.96    0.63
   5   5   2    4.38    0.62
   5   5   2    4.27    0.83
  -5   5  -2    4.35    0.65
   7  -5   2    9.39    0.93
   7  -5   2    6.21    1.18
   7   5   2    7.80    1.11
  -7   5  -2    6.75    0.85
  -7   5  -2    7.01    0.86
   7   5   2    6.88    0.77
   7   5   2    6.45    0.70
   9  -5   2   16.48    1.42
   9  -5   2   16.00    1.12
   9   5   2   12.25    0.88
  -9   5  -2   12.21    0.98
  -9   5  -2   12.32    0.97
   9   5   2   11.47    0.85
   9   5   2   12.50    1.29
  11  -5   2   87.26    2.85
  11  -5   2   77.82    3.71
  11   5   2   63.80    2.61
 -11   5  -2   69.58    2.72
  11   5   2   71.55    2.54
 -11   5  -2   71.68    2.61
  13  -5   2   46.62    1.86
 -13   5  -2   44.90    1.82
 -13   5  -2   41.82    1.89
  13   5   2   44.28    1.77
  13   5   2   40.25    1.80
  15  -5   2   21.66    1.25
  15   5   2   14.98    1.01
 -15   5  -2   15.69    1.05
 -15   5  -2   16.52    1.08
  15   5   2   13.09    1.00
  17  -5   2    7.97    1.08
  17  -5   2    9.38    1.00
  17   5   2    5.43    0.86
 -17   5  -2    6.41    0.84
  19  -5   2   23.06    1.36
 -19  -5  -2   22.42    1.41
  19  -5   2   23.84    1.32
 -19   5  -2   20.87    1.18
  19   5   2   18.69    1.17
  21  -5   2   12.36    1.08
 -21  -5  -2   12.43    1.15
  21  -5   2   11.70    1.18
  21   5   2   11.54    1.03
 -21   5  -2   11.34    0.95
  23  -5   2    5.01    0.72
  23  -5   2    5.32    0.78
 -23  -5  -2    4.29    0.69
 -23   5  -2    6.22    0.84
  23   5   2    4.81    0.68
  25  -5   2    1.44    0.66
 -25  -5  -2    1.99    0.61
  25  -5   2    2.42    0.71
  25   5   2    1.81    0.59
 -25   5  -2    1.82    0.54
  27  -5   2    6.66    0.76
 -27  -5  -2    5.83    0.72
  27  -5   2    7.17    1.10
 -27   5  -2    6.70    0.83
 -27   5  -2    6.72    1.13
  27   5   2    7.21    0.94
  29  -5   2   10.30    1.10
  29  -5   2   10.14    1.02
  29   5   2    8.53    0.95
 -29   5  -2    8.14    0.85
  31  -5   2    1.11    0.59
  31  -5   2    1.53    0.67
  31   5   2    1.69    0.58
 -31   5  -2    1.80    0.51
  33  -5   2   11.12    0.99
  33  -5   2   10.48    1.05
  33   5   2    8.12    0.93
 -33   5  -2    9.10    0.82
  35  -5   2   14.47    1.08
  35  -5   2   12.37    0.99
  35   5   2    9.93    0.93
 -35   5  -2   10.99    0.82
  37  -5   2    0.17    0.47
  37  -5   2    1.37    0.53
 -37   5  -2    0.34    0.41
  37   5   2    0.83    0.48
 -32  -6   2   11.31    0.95
  32   6  -2    9.34    0.81
 -30  -6   2    7.10    0.92
 -30   6   2    6.17    0.67
  30   6  -2    5.45    0.79
 -28  -6   2    1.06    0.52
 -28   6   2    1.50    0.43
  28   6  -2    2.48    0.54
 -26  -6   2    2.14    0.60
 -26  -6   2    1.55    0.50
 -26   6   2    1.84    0.72
 -26   6   2    1.99    0.46
  26   6  -2    1.67    0.57
 -24  -6   2    3.15    0.65
 -24  -6   2    3.75    0.53
 -24   6   2    3.39    0.50
  24   6  -2    4.04    0.63
 -24   6   2    3.41    0.82
 -22  -6   2    5.09    0.70
 -22  -6   2    5.45    0.71
 -22  -6   2    6.77    0.77
 -22   6   2    4.90    0.72
 -22   6   2    3.38    0.87
  22   6  -2    4.28    0.63
 -20  -6   2    5.20    0.67
 -20  -6   2    3.63    0.55
  20   6  -2    4.87    0.86
 -20   6   2    4.39    0.57
 -20   6   2    4.11    0.88
 -18  -6   2   -0.50    0.57
 -18  -6   2    0.38    0.46
 -18   6   2    0.45    0.77
 -18   6   2   -0.14    0.45
  18   6  -2   -0.52    0.51
 -16  -6   2   18.81    1.05
 -16  -6   2   18.03    1.16
 -16   6   2   17.70    1.01
  16   6  -2   16.49    1.09
 -16   6   2   16.32    1.49
 -14  -6   2    2.07    0.65
 -14  -6   2    1.61    0.52
  14   6  -2    2.10    0.57
 -14   6   2    3.23    0.87
 -14   6   2    2.41    0.51
 -12  -6   2    8.98    1.01
 -12  -6   2    9.95    0.87
 -12   6   2    5.55    1.24
 -12   6   2    8.51    0.80
  12   6  -2    8.98    0.91
 -10  -6   2    1.60    0.61
 -10  -6   2    1.08    0.52
 -10   6   2    0.95    0.47
  10   6  -2    0.75    0.55
 -10   6   2    0.95    0.78
  -8  -6   2   13.55    0.96
  -8  -6   2   14.03    1.08
   8   6  -2   12.17    1.44
   8   6  -2   11.50    1.02
  -8   6   2   13.19    0.93
  -8   6   2   14.50    1.40
  -6  -6   2   46.47    1.80
  -6  -6   2   47.06    1.87
  -6   6   2   44.02    1.77
   6   6  -2   42.92    1.86
  -6   6   2   43.93    2.38
   6   6  -2   43.34    2.34
  -4  -6   2   47.19    1.81
  -4  -6   2   45.86    1.83
  -4   6   2   46.69    2.42
  -4   6   2   42.62    1.77
   4   6  -2   41.34    1.87
   4   6  -2   45.17    2.36
  -2  -6   2   81.74    2.77
  -2  -6   2   80.71    2.79
  -2   6   2   75.01    2.74
   2   6  -2   73.41    3.51
  -2   6   2   75.21    3.58
   2   6  -2   78.03    2.87
   0  -6   2   36.12    1.55
   0  -6   2   33.71    1.79
   0  -6   2   37.93    1.60
   0   6  -2   29.00    1.76
   0   6   2   21.84    1.25
   0   6   2   27.86    1.85
   0   6  -2   26.82    1.39
   2  -6   2   22.03    1.27
   2  -6   2   22.59    1.36
   2  -6   2   22.63    1.18
  -2   6  -2   19.58    1.18
  -2   6  -2   18.43    1.50
   2   6   2   18.60    1.58
   2   6   2   16.64    1.08
   4  -6   2    7.00    1.11
   4  -6   2    9.02    1.06
   4  -6   2    8.34    1.00
  -4   6  -2    8.49    1.26
   4   6   2    9.53    1.29
   4   6   2    6.43    0.81
  -4   6  -2    5.13    0.91
   6  -6   2   24.12    1.41
   6  -6   2   21.86    1.31
  -6   6  -2   20.47    1.63
   6   6   2   22.71    1.18
  -6   6  -2   23.84    1.28
   6   6   2   22.14    1.65
   8  -6   2    4.42    0.75
   8  -6   2    7.66    1.06
   8   6   2    3.06    0.89
  -8   6  -2    1.67    0.62
  -8   6  -2    4.32    0.92
   8   6   2    3.01    0.57
  10  -6   2   -0.37    0.67
  10  -6   2    0.89    0.71
  10   6   2    0.30    0.53
 -10   6  -2    0.05    0.56
 -10   6  -2    0.74    0.80
  12  -6   2    1.40    0.71
  12  -6   2    0.85    0.73
 -12   6  -2    0.63    0.57
  12   6   2    0.35    0.52
 -12   6  -2    1.56    0.83
  14  -6   2    6.20    0.80
 -14   6  -2    6.65    0.90
 -14   6  -2    5.37    1.19
  14   6   2    5.65    0.88
  16  -6   2    4.18    0.73
  16   6   2    2.28    0.59
 -16   6  -2    3.66    0.87
 -16   6  -2    3.06    0.62
  18  -6   2    6.47    1.02
 -18   6  -2    5.88    0.88
 -18   6  -2    6.27    1.15
  18   6   2    6.29    0.87
  20  -6   2    9.07    1.02
 -20   6  -2    6.20    0.86
 -20   6  -2    6.57    1.11
  20   6   2    7.86    0.89
  22  -6   2   10.83    1.03
  22  -6   2   11.46    1.00
  22   6   2    9.93    0.95
 -22   6  -2    9.99    0.88
 -22   6  -2    8.78    1.16
  24  -6   2    0.39    0.48
  24  -6   2   -0.13    0.56
  24   6   2    0.33    0.52
 -24   6  -2   -0.15    0.65
 -24   6  -2    0.45    0.48
  26  -6   2    0.55    0.57
  26  -6   2    1.46    0.47
  26   6   2    2.13    0.52
 -26   6  -2    1.35    0.64
 -26   6  -2    0.85    0.46
  28  -6   2    3.39    0.61
  28   6   2    1.66    0.49
 -28   6  -2    1.27    0.45
 -13  -7   2    2.69    0.56
 -13   7   2    2.43    0.76
  13   7  -2    2.10    0.52
 -11  -7   2    3.66    0.58
  11   7  -2    2.84    0.52
 -11   7   2    5.70    1.02
  -9  -7   2   17.70    1.04
  -9   7   2   16.74    0.85
  -9   7   2   16.28    1.32
   9   7  -2   16.05    0.99
  -7  -7   2   15.91    1.02
  -7   7   2   10.39    0.72
   7   7  -2   12.54    0.88
  -7   7   2   11.79    1.18
  -5  -7   2    5.45    0.84
   5   7  -2    3.57    0.53
  -5   7   2    3.38    0.80
  -5   7   2    4.19    0.60
  -3  -7   2    5.25    0.61
   3   7  -2    4.59    0.76
  -3   7   2    6.45    1.07
   3   7  -2    3.95    0.78
  -3   7   2    4.47    0.62
  -1  -7   2    7.91    0.88
  -1   7   2    7.23    0.69
   1   7  -2    6.87    1.00
  -1   7   2    6.72    1.07
   1   7  -2    8.18    0.80
   1  -7   2    3.65    0.59
   1   7   2    1.54    0.70
  -1   7  -2    2.07    0.50
   1   7   2    1.01    0.42
  -1   7  -2    0.93    0.68
   3  -7   2    2.09    0.53
   3   7   2    1.34    0.73
  -3   7  -2    2.08    0.50
   3   7   2    1.45    0.43
  -3   7  -2    2.23    0.72
   5  -7   2    2.54    0.54
  -5   7  -2    3.22    0.75
  -5   7  -2    2.60    0.51
   5   7   2    2.99    0.46
   7  -7   2    8.44    0.87
  -7   7  -2    6.87    0.80
  -7   7  -2    7.97    1.07
   7   7   2    7.35    0.72
   9   7   2    0.59    0.39
  -9   7  -2    0.58    0.46
  -9   7  -2    0.54    0.65
  11   7   2    1.10    0.39
 -11   7  -2    0.45    0.43
 -11   7  -2    0.97    0.67
  56   0  -3    4.30    0.69
  56   0  -3    5.03    0.93
  54   0  -3   27.71    1.25
  52   0  -3    2.50    0.55
  50   0  -3   17.18    1.07
 -50   0   3   14.96    1.21
 -50   0   3   17.71    1.09
  48   0  -3   22.72    1.22
 -48   0   3   24.20    1.19
 -48   0   3   19.24    1.42
 -46   0   3   36.92    1.51
  46   0  -3   33.55    1.46
 -46   0   3   28.75    1.78
  44   0  -3   67.43    2.38
 -44   0   3   60.96    2.90
 -44   0   3   72.57    2.54
 -42   0   3    8.82    1.06
 -42   0   3   11.41    0.87
  42   0  -3   11.10    0.91
 -40   0   3   71.36    3.13
  40   0  -3   73.35    2.52
 -40   0   3   75.09    2.68
 -38   0   3    0.73    0.42
  38   0  -3   -0.48    0.43
 -38   0   3    0.16    0.58
  36   0  -3   67.34    2.33
 -36   0   3   70.78    2.93
 -36   0   3   68.69    2.49
 -34   0   3   27.85    1.46
  34   0  -3   26.36    1.14
 -34   0   3   24.70    1.17
 -32   0   3    0.07    0.49
  32   0  -3    0.59    0.41
 -30   0   3    2.56    0.56
 -28   0   3   60.00    2.47
 -26   0   3   15.55    0.97
 -24   0   3  152.35    5.62
 -22   0   3   38.20    1.64
 -18   0   3   10.48    0.72
 -16   0   3   61.27    2.48
 -14   0   3   12.31    0.69
 -12   0   3    5.79    0.47
 -10   0   3   82.25    3.24
 -10   0   3   84.65    2.84
  -8   0   3    2.84    0.33
  -8   0   3    3.38    0.32
  -6   0   3  561.36   21.75
  -6   0   3  591.86   19.03
  -4   0   3  736.88   24.30
   2   0  -3  769.43   29.46
  -2   0   3  738.72   24.99
   0   0  -3  564.70   22.50
   0   0   3  586.27   19.10
  -2   0  -3  306.89   12.46
   2   0   3  309.21   10.57
   2   0   3  336.43   12.47
   4   0   3  161.89    5.54
   4   0   3  167.91    6.53
   6   0   3    8.30    0.48
   6   0   3    8.96    0.58
   8   0   3   18.64    0.80
   8   0   3   18.98    0.94
  -8   0  -3   18.95    0.91
  10   0   3  121.46    4.92
 -10   0  -3  123.86    4.91
 -12   0  -3  243.02    9.52
  12   0   3  238.43    8.12
 -14   0  -3   73.90    3.05
  14   0   3   74.04    2.66
  16   0   3  111.34    3.91
  18   0   3  235.55    8.02
  20   0   3    0.55    0.39
  22   0   3   82.44    3.04
  24   0   3  198.91    6.89
  26   0   3   15.80    0.84
  26   0   3   19.23    1.06
  28   0   3   76.37    3.00
  28   0   3   81.01    2.61
  30   0   3   88.82    2.89
  30   0   3   87.61    3.35
  32   0   3    7.09    0.93
  32   0   3    7.03    0.78
  32   0   3    9.92    1.44
  34   0   3    0.45    0.49
  34   0   3    0.41    0.84
  36   0   3   15.70    1.65
  36   0   3   13.74    0.95
  38   0   3    1.53    0.93
  38   0   3    2.62    0.56
  40   0   3    3.85    0.59
  40   0   3    4.63    0.96
  42   0   3    1.48    0.86
  42   0   3    1.31    0.53
  44   0   3   28.82    1.94
  44   0   3   25.78    1.21
 -46   0  -3   -0.28    0.56
  46   0   3   -0.40    0.43
  46   0   3    0.70    0.85
  48   0   3    0.46    0.84
  50   0   3    6.15    0.93
  52   0   3    3.30    0.73
  55  -1  -3    0.95    0.49
  55   1  -3    0.99    0.85
  55   1  -3    1.32    0.44
 -55   1   3    0.20    0.39
  53  -1  -3    4.87    0.64
  53   1  -3    3.91    0.54
 -53   1   3    3.92    0.67
  51  -1  -3    4.75    0.67
 -51   1   3    4.10    0.79
 -51   1   3    6.40    0.74
  51   1  -3    5.06    0.79
  49  -1  -3    5.51    0.73
  49   1  -3    3.56    0.63
 -49   1   3    5.15    0.75
 -49   1   3    3.85    0.81
  47  -1  -3   -0.73    0.56
 -47   1   3   -0.31    0.66
  47   1  -3    0.79    0.52
 -47   1   3    0.53    0.45
  45  -1  -3   -0.16    0.57
  45   1  -3    0.02    0.51
 -45   1   3    0.00    0.69
 -45   1   3    0.92    0.47
  43  -1  -3   17.30    1.09
  43   1  -3   16.09    1.03
 -43   1   3   17.07    0.98
 -43   1   3   14.12    1.26
  41  -1  -3   20.31    1.13
 -41   1   3   21.45    1.43
 -41   1   3   20.60    1.09
  41   1  -3   19.74    1.12
  39  -1  -3    9.50    0.89
  39   1  -3    6.70    0.79
 -39   1   3    7.25    0.73
 -39   1   3    6.22    1.02
 -37  -1   3    1.57    0.50
  37  -1  -3    1.52    0.53
  37   1  -3    1.10    0.49
 -37   1   3    1.98    0.43
 -37   1   3    1.38    0.68
 -35  -1   3    8.75    0.79
 -35  -1   3   10.18    0.85
  35  -1  -3    9.79    0.84
 -35  -1   3    8.83    0.90
 -35   1   3   11.46    1.07
 -35   1   3   11.19    0.75
  35   1  -3    9.70    0.79
 -33  -1   3   36.27    1.69
 -33  -1   3   35.29    1.55
 -33  -1   3   36.14    1.57
  33  -1  -3   34.99    1.41
 -33   1   3   31.06    1.31
 -33   1   3   33.03    1.68
  33   1  -3   32.79    1.28
 -31  -1   3    6.54    0.76
  31   1  -3    8.35    0.67
 -31   1   3    7.90    0.89
 -29  -1   3   15.02    0.97
 -29  -1   3   14.23    0.83
 -29  -1   3   17.48    1.15
 -29   1   3   13.10    0.97
 -27  -1   3   20.82    1.10
 -27  -1   3   20.38    1.23
 -27   1   3   20.19    1.15
 -25  -1   3   53.99    2.36
 -25  -1   3   53.93    2.18
  25   1  -3   49.81    1.94
 -25   1   3   50.07    2.10
 -23  -1   3  112.56    4.25
 -23  -1   3  116.85    4.59
  23   1  -3  114.43    4.10
 -23   1   3  119.77    4.40
  21  -1  -3    8.32    0.60
 -21  -1   3   10.65    0.79
 -21   1   3   11.04    0.78
  21   1  -3   10.71    0.71
  19  -1  -3   28.29    1.20
 -19  -1   3   31.40    1.40
 -19   1   3   30.43    1.35
  19   1  -3   29.87    1.23
 -17  -1   3   16.94    0.92
  17  -1  -3   16.49    0.80
  17   1  -3   15.25    0.76
  15  -1  -3   21.44    0.91
 -15  -1   3   19.71    1.01
  15   1  -3   22.28    0.95
 -13  -1   3  247.47    9.50
  13  -1  -3  249.78    8.32
  13   1  -3  248.13    8.33
  11  -1  -3  213.51    6.94
 -11  -1   3  199.46    7.90
  11   1  -3  184.38    6.22
  -9  -1   3  234.95    9.23
   9  -1  -3  249.26    8.10
   9   1  -3  255.79    8.57
   7  -1  -3   23.12    0.95
  -7  -1   3   21.45    1.03
   7   1  -3   23.68    0.96
  -5  -1   3   21.61    0.99
   5  -1  -3   22.18    0.92
   5   1  -3   18.86    0.78
  -3  -1   3  649.73   24.98
   3  -1  -3  673.13   21.84
   3   1  -3  620.27   20.55
  -3   1   3  617.07   24.21
  -1  -1   3  210.99    8.14
   1  -1  -3  215.73    7.14
  -1   1   3  197.63    7.85
   1   1   3   15.40    0.68
   1   1   3   15.26    0.84
   1   1   3   14.00    0.58
   3  -1   3    5.60    0.43
   3   1   3    4.49    0.55
   3   1   3    4.67    0.41
   3   1   3    3.80    0.31
   5  -1   3   43.92    1.63
  -5  -1  -3   45.63    1.93
   5   1   3   40.44    1.49
   5   1   3   43.36    1.81
   5   1   3   38.11    1.45
   7  -1   3   13.60    0.68
  -7  -1  -3   14.19    0.80
   7   1   3   15.67    0.69
   7   1   3   16.47    0.74
  -9  -1  -3    5.19    0.57
   9  -1   3    6.08    0.50
   9   1   3    8.76    0.51
   9   1   3    8.65    0.54
 -11  -1  -3   83.51    3.44
  11  -1   3   82.90    2.95
  11   1   3   76.90    2.72
  11   1   3   78.00    2.70
 -13  -1  -3   25.61    1.28
  13  -1   3   26.20    1.13
  13   1   3   35.48    1.38
  13   1   3   34.56    1.33
 -15  -1  -3   15.92    0.96
  15  -1   3   17.71    0.89
  15   1   3   17.48    0.89
  17  -1   3    9.71    0.73
  17   1   3    9.14    0.71
  19  -1   3  192.85    6.64
  19   1   3  195.20    6.70
  21  -1   3   99.90    3.61
  21   1   3   94.84    3.42
  23  -1   3   11.06    0.85
  23   1   3   11.24    0.85
  25  -1   3   28.89    1.22
  25  -1   3   30.36    1.27
  25  -1   3   29.92    1.41
  25   1   3   33.35    1.52
  27  -1   3   34.91    1.38
  27  -1   3   36.09    1.43
  27   1   3   26.77    1.87
  27   1   3   30.84    1.40
  27   1   3   27.31    1.18
  29  -1   3   16.95    0.97
  29  -1   3   17.16    0.99
  29   1   3   15.16    1.03
  29   1   3   14.34    1.01
  29   1   3   15.03    1.55
  29   1   3   14.51    0.87
  31  -1   3   13.28    0.89
  31  -1   3   11.92    0.91
  31   1   3   11.46    0.84
  31   1   3   11.28    0.99
  31   1   3   12.71    0.97
  31   1   3   11.61    1.51
  33  -1   3   85.12    2.77
  33  -1   3   84.81    3.85
  33  -1   3   85.51    2.86
  33   1   3   81.21    2.72
  33   1   3   77.96    3.83
  33   1   3   89.06    3.24
  33   1   3   83.59    3.09
  35  -1   3    1.55    0.86
  35  -1   3    1.62    0.47
  35  -1   3    0.01    0.49
  35   1   3    1.26    0.47
  35   1   3    1.14    0.61
  35   1   3    2.30    0.85
  37  -1   3   23.62    1.91
  37  -1   3   27.49    1.30
  37   1   3   22.71    1.41
  37   1   3   24.43    1.85
  39  -1   3    2.16    0.87
  39  -1   3    2.80    0.61
  39   1   3    1.49    0.90
  41  -1   3   35.45    1.54
  41  -1   3   36.42    2.18
  41   1   3   34.00    2.22
  43  -1   3    2.22    0.85
  43  -1   3    2.57    0.58
  43   1   3    4.63    1.02
  45  -1   3    0.89    0.52
  45  -1   3    0.90    0.82
  45   1   3    1.27    0.92
 -45   1  -3    0.94    0.64
  47  -1   3   10.30    0.85
  47  -1   3   11.95    1.41
  47   1   3   15.20    1.68
  49  -1   3   28.66    1.77
  49  -1   3   28.85    1.18
  49   1   3   34.53    2.09
  51   1   3    5.86    0.89
  54  -2  -3    8.92    0.90
  54  -2  -3    8.18    0.83
 -54   2   3    8.38    0.69
  54   2  -3    9.01    1.20
  52  -2  -3   15.80    1.02
  52   2  -3   17.07    1.47
 -52   2   3   14.10    0.88
  52   2  -3   14.59    0.84
  50  -2  -3    4.79    0.66
  50   2  -3    5.17    1.09
 -50   2   3    5.18    0.70
  50   2  -3    5.24    0.74
  48  -2  -3    4.68    0.69
 -48   2   3    3.30    0.52
 -48   2   3    2.53    0.75
  48   2  -3    3.60    0.56
  46  -2  -3   16.73    1.14
 -46   2   3   16.78    0.97
  46   2  -3   16.07    0.98
 -46   2   3   14.25    1.31
  44  -2  -3   20.58    1.22
 -44   2   3   15.93    1.37
  44   2  -3   17.55    1.05
 -44   2   3   17.18    1.02
  42  -2  -3   49.62    1.93
  42   2  -3   48.85    1.80
 -42   2   3   45.23    1.84
 -42   2   3   45.99    2.33
 -40  -2   3   19.24    1.17
  40  -2  -3   19.27    1.17
 -40   2   3   14.89    1.31
 -40   2   3   16.83    0.96
  40   2  -3   15.64    1.01
 -38  -2   3   82.11    3.02
  38  -2  -3   83.51    2.82
 -38   2   3   74.67    3.29
  38   2  -3   78.90    2.61
 -38   2   3   77.55    2.76
 -36  -2   3   64.23    2.47
  36  -2  -3   65.31    2.32
 -36   2   3   54.27    2.07
 -36   2   3   55.81    2.53
  36   2  -3   56.89    2.00
 -34  -2   3   20.67    1.47
 -34  -2   3   19.99    1.26
 -34   2   3   14.85    0.86
  34   2  -3   15.00    0.93
 -34   2   3   15.80    1.20
 -32  -2   3   68.44    2.60
 -32  -2   3   70.61    2.58
 -32  -2   3   72.36    3.16
 -32   2   3   69.98    2.89
  32   2  -3   68.59    2.29
 -32   2   3   65.38    2.40
 -30  -2   3  108.12    4.39
 -30  -2   3  109.45    3.31
 -30  -2   3  100.92    3.62
 -30  -2   3  102.76    3.32
 -30  -2   3  103.35    3.59
  30   2  -3  104.82    3.80
  30   2  -3  101.71    3.24
 -30   2   3   98.05    3.48
 -30   2   3  106.85    4.06
 -28  -2   3   84.00    2.66
 -28  -2   3   79.15    2.65
 -28  -2   3   83.19    3.51
  28   2  -3   80.63    2.69
 -28   2   3   83.32    3.36
  28   2  -3   87.34    3.15
 -26  -2   3   71.17    3.09
 -26  -2   3   71.64    2.33
  26   2  -3   63.98    2.44
 -26   2   3   62.56    2.62
 -24  -2   3   61.52    2.68
 -24   2   3   55.81    2.34
  24   2  -3   56.47    2.18
 -22  -2   3   28.51    1.48
  22   2  -3   30.92    1.34
 -22   2   3   30.80    1.45
 -20  -2   3  164.73    6.48
 -20   2   3  150.47    5.50
  20   2  -3  147.21    5.15
 -18  -2   3  220.07    8.54
  18   2  -3  196.98    6.97
 -18   2   3  212.45    7.44
 -16  -2   3   59.92    2.55
 -16   2   3   62.84    2.42
  16   2  -3   58.81    2.23
 -14  -2   3  136.88    5.39
  14   2  -3  121.27    4.28
 -14   2   3  126.41    4.58
  12  -2  -3   38.07    1.60
 -12  -2   3   41.74    1.78
  12   2  -3   39.68    1.54
  10  -2  -3   62.54    2.40
 -10  -2   3   68.41    2.71
  10   2  -3   63.94    2.31
   8  -2  -3  102.18    3.58
  -8  -2   3  101.75    4.04
   8   2  -3  101.55    3.54
  -6  -2   3  124.99    4.85
   6  -2  -3  121.77    4.26
   6   2  -3  122.17    4.20
   4  -2  -3  202.14    6.90
  -4  -2   3  205.48    7.86
   4   2  -3  179.43    6.20
  -4   2   3  186.41    7.31
   2  -2  -3   72.05    2.61
  -2  -2   3   72.96    2.93
   2   2  -3   71.30    2.58
  -2   2   3   74.75    3.07
   0  -2  -3   45.27    1.74
   0  -2   3   44.90    1.94
   0  -2  -3   47.32    2.00
   0   2   3   39.60    1.81
  -2  -2  -3   60.61    2.20
  -2  -2  -3   60.41    2.58
   2   2   3   61.79    2.53
   2   2   3   54.73    1.99
  -4  -2  -3   29.71    1.21
  -4  -2  -3   29.17    1.42
   4   2   3   24.04    1.24
   4   2   3   21.57    0.87
  -6  -2  -3  204.75    6.92
  -6  -2  -3  206.58    8.23
   6   2   3  189.52    6.37
  -8  -2  -3    1.82    0.41
   8   2   3    3.19    0.41
 -10  -2  -3   54.75    2.42
  10   2   3   47.10    1.74
 -12  -2  -3   27.56    1.40
  12  -2   3   26.29    1.18
  12   2   3   27.23    1.15
  14   2   3    8.91    0.67
  16   2   3    2.39    0.41
  18   2   3    8.09    0.71
  20   2   3   27.05    1.26
  22  -2   3  138.72    4.31
  22  -2   3  138.11    4.33
  22   2   3  130.39    4.62
  24  -2   3   19.49    1.05
  24  -2   3   19.95    1.09
 -24   2  -3   20.08    0.92
  24   2   3   19.73    1.53
  24   2   3   18.66    1.06
  24   2   3   20.59    1.12
  26  -2   3   40.81    1.61
  26  -2   3   40.56    1.62
  26   2   3   38.90    1.65
  26   2   3   35.09    1.54
  26   2   3   33.40    2.04
 -26   2  -3   35.88    1.35
 -26   2  -3   35.94    1.50
  28  -2   3    8.69    0.88
  28  -2   3    6.22    0.86
 -28   2  -3    5.80    0.73
  28   2   3    6.94    0.84
  28   2   3    5.11    0.90
  28   2   3    7.52    0.83
  30  -2   3   46.53    1.84
  30  -2   3   47.63    1.80
  30   2   3   44.59    1.87
  30   2   3   43.13    2.42
  30   2   3   46.03    1.97
  32  -2   3    8.12    0.92
  32  -2   3    7.26    0.93
 -32   2  -3    6.54    0.80
  32   2   3    7.60    1.38
  32   2   3    6.19    0.88
  32   2   3    7.20    0.91
  34  -2   3    0.75    0.62
  34  -2   3    1.16    0.55
  34   2   3    1.18    0.56
  34   2   3    0.64    0.58
 -34   2  -3    1.08    0.50
  34   2   3    1.09    0.86
  36  -2   3   20.82    1.21
  36  -2   3   18.78    1.12
 -36   2  -3   18.95    1.14
  36   2   3   21.02    1.82
  36   2   3   17.66    1.23
  36   2   3   18.86    1.23
  38  -2   3    0.45    0.54
  38  -2   3    1.43    0.60
  38   2   3    0.67    0.59
  38   2   3    0.94    0.92
  40  -2   3    1.84    0.58
  40  -2   3    0.85    0.56
  40   2   3    1.05    0.96
  42  -2   3    2.43    0.61
  42   2   3    1.30    0.97
 -42   2  -3    1.99    0.68
  44  -2   3    4.40    0.60
  44   2   3    4.34    1.06
 -44   2  -3    4.70    0.75
  46  -2   3    0.98    0.48
  46   2   3    0.54    0.88
  48  -2   3    0.79    0.44
  48   2   3    1.52    0.86
  50   2   3    0.40    0.72
  51  -3  -3    6.35    0.95
  51  -3  -3    5.37    0.78
 -51   3   3    5.35    0.63
  49  -3  -3   -0.04    0.54
 -49   3   3    1.16    0.41
  47  -3  -3    0.87    0.57
 -47   3   3    0.96    0.42
  45  -3  -3   35.37    1.55
 -45   3   3   31.92    1.33
 -45   3   3   27.54    1.70
 -43  -3   3    7.34    0.96
 -43   3   3    5.89    0.73
 -43   3   3    5.22    0.87
 -41  -3   3   25.82    1.49
  41   3  -3   20.06    1.15
 -41   3   3   21.66    1.49
 -41   3   3   21.56    1.09
 -39  -3   3   72.65    2.77
 -39   3   3   58.59    2.18
  39   3  -3   56.07    2.05
 -39   3   3   59.28    2.69
 -37  -3   3   47.12    2.04
  37   3  -3   37.98    1.58
 -37   3   3   41.69    2.08
 -37   3   3   41.14    1.62
 -35  -3   3   28.12    1.81
 -35  -3   3   32.83    1.60
 -35   3   3   29.96    1.73
  35   3  -3   29.82    1.31
 -35   3   3   29.43    1.30
 -33  -3   3   32.59    1.63
 -33  -3   3   30.51    1.85
 -33  -3   3   32.95    1.66
  33   3  -3   26.12    1.46
 -33   3   3   27.95    1.61
  33   3  -3   25.35    1.21
 -33   3   3   26.42    1.20
 -31  -3   3   51.03    2.12
 -31  -3   3   51.62    1.87
 -31  -3   3   47.20    2.47
 -31  -3   3   51.38    2.10
 -31   3   3   43.56    1.70
 -31   3   3   45.03    2.13
  31   3  -3   43.77    1.97
  31   3  -3   44.21    1.66
 -29  -3   3   17.32    1.27
 -29  -3   3   15.69    1.21
 -29  -3   3   15.84    1.30
 -29  -3   3   15.84    0.97
  29   3  -3   12.13    0.82
 -29   3   3   11.58    0.77
  29   3  -3   11.65    0.98
 -29   3   3   13.99    1.10
 -27  -3   3   14.63    0.91
 -27  -3   3   14.76    0.92
 -27  -3   3   12.97    1.16
 -27  -3   3   15.05    1.21
 -27   3   3   10.52    1.00
  27   3  -3   10.89    0.76
 -27   3   3    9.85    0.70
  27   3  -3   11.91    1.07
  27   3  -3   10.46    0.90
 -25  -3   3   10.66    0.82
 -25  -3   3    9.23    0.84
 -25  -3   3    8.89    1.06
 -25  -3   3    9.85    0.76
  25   3  -3    7.15    0.84
 -25   3   3    6.21    0.60
  25   3  -3    7.63    0.71
 -25   3   3    7.99    0.88
  25   3  -3    8.42    0.81
 -23  -3   3   20.07    1.27
 -23  -3   3   18.43    0.97
 -23  -3   3   17.65    0.95
 -23  -3   3   16.13    0.94
  23   3  -3   15.83    0.97
  23   3  -3   14.95    0.84
 -23   3   3   15.35    1.05
 -21  -3   3    8.89    0.72
 -21  -3   3    8.14    0.72
 -21  -3   3    9.02    0.78
 -21  -3   3    9.24    0.99
  21   3  -3    9.33    0.77
 -21   3   3    9.13    0.85
 -19  -3   3   18.36    1.21
 -19  -3   3   16.90    0.93
 -19   3   3   17.72    1.04
  19   3  -3   15.82    0.93
 -17  -3   3    7.66    0.72
 -17  -3   3    8.50    0.91
 -17   3   3    5.43    0.69
  17   3  -3    6.06    0.62
 -15  -3   3   21.97    1.07
 -15  -3   3   24.39    1.34
 -15   3   3   19.54    1.09
  15   3  -3   18.85    0.96
 -13  -3   3   30.79    1.54
 -13  -3   3   28.30    1.24
  13   3  -3   29.02    1.27
 -13   3   3   28.92    1.46
 -11  -3   3    3.89    0.73
 -11  -3   3    3.90    0.53
  11   3  -3    4.70    0.58
  -9  -3   3  131.27    5.06
  -9  -3   3  120.93    4.02
   9   3  -3  112.32    3.95
  -7  -3   3    8.46    0.80
  -7  -3   3    8.05    0.70
   7   3  -3    8.25    0.66
  -5  -3   3   12.49    0.94
   5  -3  -3   12.65    0.81
   5   3  -3   11.65    0.72
   3  -3  -3   19.87    1.03
  -3  -3   3   18.94    1.11
   3  -3  -3   17.89    1.02
   3   3  -3   17.77    0.88
  -3   3   3   16.37    1.06
   1  -3  -3    0.02    0.32
  -1  -3   3    1.11    0.44
   1   3  -3    0.63    0.33
  -1   3   3    1.33    0.47
  -1  -3  -3    1.51    0.39
   1  -3   3    1.33    0.47
   1   3   3    0.79    0.44
   1   3   3    1.25    0.22
  -1   3  -3    1.32    0.37
   3  -3   3   33.53    1.58
  -3  -3  -3   29.31    1.54
   3   3   3   29.86    1.15
   3   3   3   31.44    1.61
  -5  -3  -3  168.46    6.86
   5   3   3  166.53    6.87
   5   3   3  169.35    5.68
   7   3   3   72.48    2.56
   7   3   3   72.34    3.20
   9   3   3    7.11    0.90
   9   3   3    5.42    0.52
  11   3   3   41.64    1.62
  13   3   3   25.08    1.14
  15  -3   3    5.60    0.67
  15   3   3    4.28    0.63
  17  -3   3    1.77    0.54
  17  -3   3    1.03    0.46
  17   3   3    0.52    0.40
  19  -3   3   84.42    2.77
  19  -3   3   81.89    2.77
  19   3   3   78.40    2.78
  19   3   3   69.17    2.62
 -19   3  -3   73.22    2.65
  21  -3   3   20.22    1.14
  21  -3   3   22.70    1.15
  21   3   3   19.12    1.04
 -21   3  -3   19.84    1.06
  21   3   3   20.90    1.14
  21   3   3   19.88    1.58
  23  -3   3    9.04    0.89
  23  -3   3    7.87    0.92
  23   3   3    5.70    0.76
 -23   3  -3    5.30    0.72
  23   3   3    6.20    0.79
  23   3   3    4.60    0.90
  25  -3   3   36.63    1.58
  25  -3   3   37.55    1.60
  25   3   3   31.23    1.54
  25   3   3   32.29    1.47
 -25   3  -3   34.99    1.46
  25   3   3   32.23    2.04
  27  -3   3   49.18    1.90
  27  -3   3   49.00    1.93
 -27   3  -3   38.17    1.61
  27   3   3   36.17    2.22
  27   3   3   37.38    1.73
  27   3   3   38.66    1.66
  29  -3   3   39.59    1.72
  29  -3   3   42.36    1.70
  29   3   3   29.58    2.08
  29   3   3   33.50    1.54
 -29   3  -3   36.75    1.51
  29   3   3   30.42    1.59
  31  -3   3   59.48    2.19
  31  -3   3   55.88    2.14
  31   3   3   45.63    2.07
 -31   3  -3   49.24    1.94
  31   3   3   48.24    1.99
  31   3   3   46.20    2.61
  33  -3   3    6.19    0.97
  33  -3   3    6.50    0.99
 -33   3  -3    6.17    0.94
  33   3   3    6.96    0.94
  33   3   3    7.18    1.47
 -33   3  -3    5.49    0.85
  35  -3   3    3.15    0.66
  35  -3   3    2.99    0.65
 -35   3  -3    4.09    0.74
  35   3   3    5.20    0.71
 -35   3  -3    4.98    0.83
  35   3   3    4.88    1.04
  37  -3   3    1.71    0.61
  37  -3   3    0.59    0.59
 -37   3  -3    1.05    0.51
 -37   3  -3    0.45    0.60
  37   3   3    0.04    0.89
  37   3   3    0.60    0.58
  39  -3   3   11.25    1.00
  39  -3   3   12.05    1.03
 -39   3  -3   11.11    0.89
  39   3   3    9.10    0.94
  39   3   3    9.60    1.58
 -39   3  -3    8.30    1.01
  41  -3   3   21.98    1.18
  41  -3   3   21.94    1.12
 -41   3  -3   19.86    1.09
  41   3   3   20.00    1.77
  41   3   3   20.64    1.22
  43  -3   3    7.14    0.83
  43   3   3    9.93    1.42
  45  -3   3    1.17    0.50
  45   3   3    2.82    0.81
  47  -3   3   17.29    0.93
  46  -4  -3   20.59    1.20
 -46   4   3   15.30    0.87
  44  -4  -3   13.36    1.20
 -44  -4   3   13.01    0.93
 -44   4   3   15.23    0.89
 -42   4   3   14.75    0.90
 -40  -4   3   26.42    1.44
 -40   4   3   23.20    1.13
 -38  -4   3   11.91    1.13
 -38   4   3   12.88    0.89
 -36  -4   3   13.61    1.19
 -36   4   3   10.87    0.83
 -34  -4   3   19.17    1.31
 -34   4   3   15.78    0.92
 -32  -4   3    6.97    0.86
 -32  -4   3    6.78    0.89
 -32  -4   3    8.01    1.13
  32   4  -3    5.90    1.04
 -32   4   3    5.88    0.70
 -30  -4   3    3.19    0.79
 -30  -4   3    5.22    0.83
 -30  -4   3    3.47    0.72
  30   4  -3    5.86    0.87
  30   4  -3    5.09    0.71
 -30   4   3    5.26    0.67
 -28  -4   3    7.15    1.09
 -28  -4   3    8.99    0.89
 -28  -4   3    8.06    1.18
 -28   4   3    7.48    0.68
  28   4  -3    8.83    0.92
  28   4  -3    7.72    0.93
 -26  -4   3   12.88    0.92
 -26  -4   3   11.19    1.00
 -26  -4   3   12.59    1.24
  26   4  -3   11.57    0.98
 -26   4   3    9.47    0.72
  26   4  -3   10.55    0.95
 -24  -4   3   52.57    1.91
 -24  -4   3   49.17    2.54
 -24  -4   3   55.24    1.92
 -24   4   3   39.65    1.56
  24   4  -3   41.45    1.82
  24   4  -3   40.72    1.73
 -24   4   3   40.71    2.15
 -22  -4   3   23.15    1.10
 -22  -4   3   22.07    1.13
 -22  -4   3   20.56    1.47
 -22   4   3   24.08    1.48
  22   4  -3   21.53    1.22
  22   4  -3   20.89    1.15
 -22   4   3   20.78    0.99
 -20  -4   3    0.98    0.47
 -20  -4   3    1.03    0.52
 -20  -4   3    0.85    0.65
 -20   4   3    0.94    0.36
  20   4  -3    0.55    0.46
 -20   4   3    0.36    0.59
  20   4  -3    0.96    0.47
 -18  -4   3   37.57    1.51
 -18  -4   3   40.21    2.01
 -18  -4   3   36.30    1.50
  18   4  -3   31.23    1.38
 -18   4   3   28.66    1.70
 -18   4   3   26.44    1.19
  18   4  -3   31.06    1.40
 -16  -4   3   69.10    2.48
 -16  -4   3   73.59    3.16
 -16  -4   3   70.01    2.37
 -16  -4   3   69.36    2.38
  16   4  -3   65.77    2.55
 -16   4   3   65.33    3.08
  16   4  -3   67.16    2.47
 -14  -4   3   32.78    1.42
 -14  -4   3   35.53    1.43
 -14  -4   3   36.66    1.51
 -14  -4   3   40.03    1.94
  14   4  -3   25.73    1.26
  14   4  -3   26.60    1.26
 -14   4   3   25.95    1.60
 -12  -4   3   10.87    0.90
 -12  -4   3   14.33    1.14
 -12  -4   3   12.67    0.85
 -12  -4   3   11.32    0.86
  12   4  -3   12.34    0.91
 -12   4   3   12.69    1.18
  12   4  -3   14.23    0.91
 -10  -4   3    0.72    0.58
 -10  -4   3    0.69    0.49
 -10  -4   3    0.35    0.47
 -10  -4   3    0.65    0.42
  10   4  -3    0.38    0.43
 -10   4   3    0.62    0.58
  10   4  -3    0.54    0.41
  -8  -4   3    4.44    0.67
  -8  -4   3    3.52    0.53
  -8  -4   3    3.47    0.70
  -8  -4   3    3.64    0.59
   8   4  -3    3.10    0.50
   8   4  -3    2.76    0.50
  -8   4   3    3.28    0.69
  -8   4   3    2.68    0.67
  -6  -4   3   16.71    1.01
  -6  -4   3   17.98    1.23
  -6  -4   3   16.49    0.94
  -6  -4   3   15.88    0.99
   6   4  -3   13.95    0.90
  -6   4   3   15.05    1.20
  -6   4   3   14.07    1.12
   6   4  -3   14.94    0.93
  -4  -4   3   10.55    1.03
  -4  -4   3   10.83    0.89
  -4  -4   3    9.65    0.85
  -4  -4   3   11.03    0.80
  -4   4   3    9.77    1.03
  -4   4   3    9.77    0.58
   4   4  -3    9.88    0.80
   4   4  -3    9.09    0.81
  -4   4   3    9.84    1.03
  -2  -4   3   11.23    0.88
  -2  -4   3   10.80    1.07
  -2  -4   3   13.67    0.83
  -2   4   3   10.28    0.58
  -2   4   3   10.27    0.98
   2   4  -3    9.45    0.81
   2   4  -3    8.75    0.78
  -2   4   3   11.10    1.07
   0  -4   3   28.42    1.28
   0  -4   3   30.42    1.66
   0  -4   3   29.37    1.25
   0   4  -3   23.64    1.16
   0   4   3   25.28    1.51
   0   4   3   24.30    1.01
   0   4  -3   24.70    1.20
   0   4   3   24.54    1.35
   2  -4   3   28.69    1.26
   2  -4   3   30.31    1.65
   2  -4   3   28.85    1.30
   2   4   3   25.25    1.08
   2   4   3   26.09    1.42
  -2   4  -3   28.99    1.27
  -2   4  -3   24.98    1.22
   2   4   3   25.54    1.54
   4  -4   3    0.80    0.45
   4  -4   3    1.55    0.54
   4  -4   3    1.41    0.60
   4   4   3    2.65    0.45
   4   4   3    3.26    0.66
   4   4   3    1.12    0.61
  -4   4  -3    2.79    0.50
  -4   4  -3    2.58    0.47
   6  -4   3   20.88    1.05
   6  -4   3   18.97    1.31
   6  -4   3   17.87    1.05
  -6   4  -3   16.64    0.99
   6   4   3   17.05    0.83
  -6   4  -3   16.18    0.94
   6   4   3   15.52    1.17
   6   4   3   15.60    1.23
   6   4   3   15.19    0.85
   8  -4   3    5.84    0.96
   8  -4   3    6.12    0.82
   8  -4   3    6.08    0.75
   8   4   3    6.77    1.00
  -8   4  -3    8.75    0.78
   8   4   3    7.20    0.63
  -8   4  -3    8.06    0.75
   8   4   3    6.19    0.65
  10  -4   3   17.39    1.07
  10  -4   3   15.46    0.96
  10  -4   3   15.88    1.25
  10   4   3   12.24    0.79
 -10   4  -3   13.69    0.88
  10   4   3   11.70    1.14
  10   4   3   12.91    0.80
  12  -4   3   28.77    1.71
  12  -4   3   29.25    1.39
  12  -4   3   30.47    1.31
  12   4   3   24.80    1.17
  12   4   3   22.87    1.14
 -12   4  -3   26.50    1.20
  14  -4   3   16.06    1.17
  14  -4   3   17.19    1.02
  14   4   3   15.96    0.95
 -14   4  -3   16.55    0.97
  14   4   3   15.63    0.97
  16  -4   3    8.15    1.06
  16  -4   3   10.54    0.93
  16   4   3    7.83    0.78
  16   4   3    7.42    0.79
 -16   4  -3    7.06    0.78
  18  -4   3   41.00    1.68
  18  -4   3   40.56    1.75
 -18   4  -3   33.73    1.47
  18   4   3   31.57    1.52
  18   4   3   32.98    1.45
  20  -4   3   13.85    1.18
  20  -4   3   12.85    1.04
  20   4   3   10.97    0.94
  20   4   3   12.84    0.94
 -20   4  -3   10.09    0.88
  22  -4   3  100.64    3.33
  22  -4   3   98.13    3.36
  22   4   3   81.74    3.16
  22   4   3   81.90    3.01
 -22   4  -3   85.30    3.02
  24  -4   3   20.96    1.35
  24  -4   3   21.03    1.25
 -24   4  -3   15.73    1.01
  24   4   3   14.03    1.06
  24   4   3   13.47    1.06
  26  -4   3   12.56    1.22
  26  -4   3   10.53    1.05
  26   4   3   10.31    0.98
 -26   4  -3   10.20    0.92
  28  -4   3  102.90    3.45
  28  -4   3  102.02    3.42
 -28   4  -3   84.76    3.05
  28   4   3   82.79    3.08
  30  -4   3   15.07    1.25
  30  -4   3   15.60    1.15
 -30   4  -3   13.46    0.97
  30   4   3   12.36    1.09
  32  -4   3    8.40    1.01
  32  -4   3    9.75    1.07
 -32   4  -3    6.99    0.86
  32   4   3    7.88    0.96
  34  -4   3    2.19    0.63
  34  -4   3    2.10    0.66
 -34   4  -3    1.95    0.53
  34   4   3    2.54    0.62
  36  -4   3    3.66    0.61
  36  -4   3    6.22    0.91
 -36   4  -3    3.60    0.56
  36   4   3    4.80    0.67
  38  -4   3    9.85    0.96
  38  -4   3   10.21    0.97
  38   4   3    7.75    0.90
 -38   4  -3    9.21    0.78
  40  -4   3    8.70    0.82
  40  -4   3    9.74    0.89
 -40   4  -3    7.41    0.73
  40   4   3    7.43    0.83
  42  -4   3   11.80    0.86
 -42   4  -3    9.87    0.76
  42   4   3   11.63    0.85
 -41   5   3    1.77    0.36
 -39  -5   3    0.20    0.48
 -39   5   3    0.86    0.38
 -37  -5   3    2.73    0.57
 -37   5   3    2.35    0.43
 -35  -5   3    0.11    0.53
 -35   5   3    0.05    0.39
 -33  -5   3    5.79    0.96
  33   5  -3    5.16    0.91
 -33   5   3    5.17    0.67
 -31  -5   3   -0.34    0.48
 -31  -5   3   -0.38    0.56
 -31  -5   3   -0.02    0.66
  31   5  -3    0.27    0.55
 -31   5   3    0.21    0.41
 -29  -5   3    8.14    1.14
 -29  -5   3    7.15    1.11
 -29  -5   3    6.10    0.83
 -29   5   3    6.72    0.71
  29   5  -3    7.39    0.93
 -27  -5   3   12.39    1.21
 -27  -5   3   10.09    0.92
 -27   5   3   10.75    0.77
 -27   5   3    8.83    1.31
  27   5  -3    9.07    0.93
 -25  -5   3    2.52    0.70
 -25  -5   3    2.31    0.55
 -25  -5   3    2.78    0.67
 -25   5   3    2.52    0.81
  25   5  -3    2.34    0.61
 -25   5   3    1.93    0.46
 -23  -5   3    5.56    0.70
 -23  -5   3    6.51    0.82
  23   5  -3    5.47    0.84
 -23   5   3    4.63    0.67
 -23   5   3    5.28    0.94
 -21  -5   3   13.27    0.98
 -21  -5   3   11.55    0.93
 -21   5   3    8.51    0.73
  21   5  -3    9.61    0.93
 -21   5   3    9.72    1.27
 -19  -5   3   26.33    1.29
 -19  -5   3   26.96    1.26
 -19   5   3   18.92    1.03
  19   5  -3   22.34    1.19
 -19   5   3   20.84    1.58
 -17  -5   3    5.71    0.83
 -17  -5   3    4.68    0.66
 -17   5   3    4.36    0.89
  17   5  -3    5.48    0.83
 -17   5   3    4.34    0.66
  17   5  -3    4.69    0.67
 -15  -5   3   14.40    1.05
 -15  -5   3   14.39    0.99
 -15   5   3   15.09    1.41
  15   5  -3   13.19    0.98
 -15   5   3   12.08    0.83
  15   5  -3   13.00    1.03
 -13  -5   3   32.95    1.95
 -13  -5   3   36.55    1.48
 -13  -5   3   33.97    1.57
 -13  -5   3   33.91    1.50
  13   5  -3   32.99    1.48
  13   5  -3   29.70    1.48
 -13   5   3   29.16    1.29
 -13   5   3   30.47    1.93
 -11  -5   3   43.43    1.69
 -11  -5   3   44.12    1.72
 -11  -5   3   39.32    2.23
 -11  -5   3   43.46    1.82
 -11   5   3   38.67    2.18
 -11   5   3   36.58    1.56
  11   5  -3   39.10    1.69
  11   5  -3   37.20    1.71
  -9  -5   3   11.66    1.24
  -9  -5   3   12.78    0.99
  -9  -5   3   11.24    0.95
  -9  -5   3   12.08    1.07
  -9   5   3   10.33    1.26
  -9   5   3    7.22    0.76
   9   5  -3   10.03    0.93
   9   5  -3    8.38    0.87
  -7  -5   3   11.44    1.27
  -7  -5   3   13.72    0.95
  -7  -5   3   12.32    1.02
  -7  -5   3   13.02    1.15
   7   5  -3   14.10    1.02
  -7   5   3   15.79    1.37
  -7   5   3   12.35    0.84
   7   5  -3   12.22    0.99
  -5  -5   3   26.43    1.40
  -5  -5   3   25.66    1.28
  -5  -5   3   24.36    1.66
  -5  -5   3   27.83    1.30
   5   5  -3   24.79    1.33
  -5   5   3   23.85    1.66
  -5   5   3   22.54    1.10
   5   5  -3   25.45    1.30
  -3  -5   3    1.35    0.56
  -3  -5   3    1.90    0.62
  -3  -5   3    0.22    0.66
  -3  -5   3    1.11    0.72
  -3   5   3    1.38    0.71
   3   5  -3    1.67    0.55
   3   5  -3    1.57    0.52
  -3   5   3    2.14    0.45
  -1  -5   3   28.37    1.48
  -1  -5   3   30.11    1.40
  -1  -5   3   26.93    1.75
  -1  -5   3   28.27    1.35
  -1   5   3   24.58    1.65
   1   5  -3   23.09    1.32
  -1   5   3   22.90    1.14
   1   5  -3   26.74    1.32
   1  -5   3   18.68    1.15
   1  -5   3   20.33    1.26
   1  -5   3   22.95    1.24
   1  -5   3   15.17    1.41
  -1   5  -3   19.88    1.16
   1   5   3   15.61    0.96
  -1   5  -3   14.75    1.13
   1   5   3   20.19    1.46
   3  -5   3   36.24    1.57
   3  -5   3   36.36    1.62
   3  -5   3   36.24    2.06
  -3   5  -3   33.83    1.54
   3   5   3   33.86    1.96
  -3   5  -3   32.20    1.61
   3   5   3   30.87    1.38
   5  -5   3   46.38    1.80
   5  -5   3   44.97    1.78
   5  -5   3   41.95    2.34
  -5   5  -3   45.09    1.78
   5   5   3   36.58    1.60
  -5   5  -3   36.69    1.79
   5   5   3   40.80    2.21
   7  -5   3   35.93    1.55
   7  -5   3   36.30    1.57
   7  -5   3   32.66    2.04
   7   5   3   29.69    1.33
  -7   5  -3   28.07    1.50
   7   5   3   31.13    1.87
  -7   5  -3   31.37    1.46
   9  -5   3   23.01    1.27
   9  -5   3   21.55    1.29
  -9   5  -3   20.54    1.17
  -9   5  -3   18.12    1.17
   9   5   3   19.41    1.06
   9   5   3   20.09    1.52
   9   5   3   16.59    1.01
  11  -5   3    4.77    0.71
  11  -5   3    6.39    1.00
  11   5   3    5.20    0.78
  11   5   3    4.21    0.56
 -11   5  -3    5.21    0.81
  11   5   3    5.02    0.95
 -11   5  -3    4.18    0.64
  13  -5   3   30.18    1.45
  13  -5   3   25.36    1.38
 -13   5  -3   20.86    1.29
  13   5   3   23.03    1.21
 -13   5  -3   26.58    1.28
  13   5   3   22.40    1.19
  15  -5   3   10.83    1.15
  15  -5   3    9.96    0.99
  15   5   3    6.86    0.83
 -15   5  -3    6.78    0.87
  17  -5   3   14.72    1.13
  17  -5   3   15.89    1.23
 -17   5  -3   13.23    1.00
  17   5   3   12.73    0.98
  19  -5   3    5.78    0.75
  19  -5   3    6.17    0.82
  19   5   3    7.74    0.90
 -19   5  -3    7.63    0.87
  21  -5   3   16.12    1.14
  21  -5   3   13.37    1.21
 -21   5  -3   14.74    1.01
  21   5   3   13.66    1.05
  23  -5   3    1.56    0.63
  23  -5   3    0.60    0.71
 -23   5  -3    1.54    0.53
  23   5   3    1.23    0.59
  25  -5   3    5.72    0.81
  25  -5   3    6.99    1.00
 -25   5  -3    5.53    0.82
  25   5   3    4.88    0.68
  27  -5   3    9.85    1.03
  27  -5   3    9.97    1.09
 -27   5  -3    9.06    0.88
  27   5   3    9.85    0.98
  29  -5   3    8.04    1.02
  29  -5   3    6.22    0.99
  29   5   3    6.64    0.91
 -29   5  -3    5.28    0.79
  31  -5   3   10.49    1.02
  31  -5   3   11.56    1.03
  31   5   3    9.59    0.94
 -31   5  -3    9.90    0.85
  33  -5   3    0.97    0.57
  33  -5   3    1.91    0.58
  33   5   3    1.27    0.53
 -33   5  -3    1.56    0.48
  35  -5   3   14.17    0.95
 -35   5  -3   12.74    0.85
  35   5   3   13.75    0.92
 -32  -6   3    4.22    0.56
 -30  -6   3    6.70    0.92
 -30   6   3    6.41    0.59
  30   6  -3    5.38    0.63
 -28  -6   3    4.65    0.68
 -28  -6   3    7.79    0.95
 -28   6   3    5.54    0.62
  28   6  -3    5.51    0.80
 -26  -6   3    1.21    0.46
 -26  -6   3    1.74    0.58
 -26  -6   3    1.60    0.64
  26   6  -3    2.79    0.57
 -26   6   3    2.04    0.72
 -26   6   3    1.70    0.40
 -24  -6   3   17.86    1.24
 -24  -6   3   19.75    1.01
  24   6  -3   15.92    1.04
 -24   6   3   14.41    0.86
 -24   6   3   14.70    1.36
 -22  -6   3    5.62    0.70
 -22  -6   3    4.30    0.68
 -22  -6   3    5.11    0.60
 -22   6   3    6.24    1.17
 -22   6   3    5.30    0.66
  22   6  -3    6.19    0.88
 -20  -6   3    0.23    0.58
 -20  -6   3    0.28    0.46
  20   6  -3    0.59    0.55
 -20   6   3    0.86    0.78
 -20   6   3    0.79    0.43
 -18  -6   3    5.36    0.67
 -18  -6   3    5.08    0.61
 -18   6   3    4.33    0.97
 -18   6   3    4.98    0.67
  18   6  -3    4.02    0.64
 -16  -6   3    9.40    0.96
 -16  -6   3    8.63    0.86
  16   6  -3    8.22    0.91
 -16   6   3    8.59    1.32
 -16   6   3    8.21    0.72
 -14  -6   3    5.26    0.79
 -14  -6   3    6.19    0.91
 -14   6   3    4.91    0.68
  14   6  -3    7.25    0.87
 -14   6   3    4.94    1.00
 -12  -6   3    8.54    0.96
 -12  -6   3    5.77    0.66
 -12   6   3    4.52    0.54
 -12   6   3    4.31    0.98
  12   6  -3    5.12    0.84
 -10  -6   3    2.72    0.57
 -10  -6   3    4.06    0.69
  10   6  -3    2.68    0.61
 -10   6   3    2.87    0.49
  -8  -6   3   50.90    1.89
  -8  -6   3   49.61    1.94
  -8   6   3   46.27    1.80
   8   6  -3   48.86    1.97
  -8   6   3   44.44    2.52
  -6   6   3    1.59    0.49
  -6   6   3    3.12    0.89
   6   6  -3    2.92    0.63
  -4  -6   3   11.30    1.14
  -4  -6   3    9.61    1.05
  -4  -6   3   12.70    1.00
   4   6  -3    9.50    1.02
  -4   6   3   11.68    0.86
  -4   6   3    8.28    1.30
   4   6  -3   11.46    1.26
  -2  -6   3   12.92    1.07
  -2  -6   3   11.60    1.20
  -2  -6   3   12.40    1.03
   2   6  -3   10.80    1.30
  -2   6   3   12.71    0.89
   2   6  -3    8.00    1.02
  -2   6   3   11.62    1.36
   0  -6   3   26.49    1.32
   0  -6   3   26.38    1.37
   0  -6   3   27.71    1.52
   0   6  -3   23.76    1.68
   0   6   3   25.40    1.19
   0   6   3   26.76    1.78
   0   6  -3   23.28    1.36
   2  -6   3   28.43    1.39
   2  -6   3   27.57    1.33
   2  -6   3   26.87    1.49
  -2   6  -3   24.52    1.31
   2   6   3   23.47    1.17
  -2   6  -3   22.74    1.67
   2   6   3   21.87    1.70
   4  -6   3   12.20    1.03
   4  -6   3   11.51    1.17
   4  -6   3   13.71    1.07
  -4   6  -3   10.05    1.32
   4   6   3    8.30    0.86
   4   6   3    8.21    1.28
  -4   6  -3   10.60    0.99
   6  -6   3    1.61    0.66
   6  -6   3    0.54    0.74
   6  -6   3    0.59    0.59
   6   6   3    0.83    0.48
  -6   6  -3    1.07    0.56
   6   6   3    1.09    0.83
  -6   6  -3    0.76    0.82
   8  -6   3   25.43    1.47
   8  -6   3   26.74    1.33
   8  -6   3   25.67    1.35
  -8   6  -3   25.96    1.33
   8   6   3   24.28    1.24
   8   6   3   22.78    1.66
  -8   6  -3   23.32    1.68
  10  -6   3    8.07    1.01
  10  -6   3    7.79    1.08
  10  -6   3    9.44    0.98
  10   6   3    6.79    0.89
 -10   6  -3    8.57    1.25
 -10   6  -3    9.58    0.98
  12  -6   3    6.05    0.95
  12  -6   3    4.58    0.69
  12  -6   3    4.72    0.80
 -12   6  -3    3.48    0.66
 -12   6  -3    3.53    0.88
  12   6   3    3.65    0.58
  14  -6   3    7.83    1.09
  14  -6   3    8.79    0.99
  14  -6   3    8.08    0.94
  14   6   3    8.82    0.91
 -14   6  -3    8.09    0.94
 -14   6  -3    7.58    1.23
  16  -6   3    0.92    0.58
  16  -6   3    1.07    0.71
  16  -6   3    0.94    0.63
  16   6   3    0.08    0.51
 -16   6  -3    1.71    0.80
 -16   6  -3    0.12    0.51
  18  -6   3    2.16    0.58
  18  -6   3    3.16    0.66
  18  -6   3    2.76    0.74
 -18   6  -3    2.71    0.57
 -18   6  -3    1.47    0.77
  18   6   3    1.55    0.55
  20  -6   3    3.38    0.58
  20  -6   3    4.17    0.75
  20  -6   3    3.99    0.66
 -20   6  -3    4.79    0.83
 -20   6  -3    3.51    0.58
  20   6   3    3.64    0.58
  22  -6   3    8.42    0.97
  22  -6   3    8.58    0.85
  22   6   3    6.79    0.83
 -22   6  -3    5.68    0.81
 -22   6  -3    7.52    1.00
  24  -6   3   12.09    0.89
  24  -6   3   14.67    0.99
 -24   6  -3   12.15    0.89
 -24   6  -3   10.08    1.05
  24   6   3   12.23    0.91
  26  -6   3    2.04    0.53
  26   6   3    2.03    0.49
 -26   6  -3    1.53    0.46
 -13   7   3   17.32    1.33
  13   7  -3   17.53    1.02
 -11  -7   3    8.05    0.82
  11   7  -3    5.30    0.76
 -11   7   3    5.14    0.99
  -9  -7   3    6.10    0.84
   9   7  -3    0.75    0.49
  -9   7   3    2.61    0.75
  -7  -7   3   11.02    0.96
   7   7  -3    9.55    0.84
  -7   7   3    9.65    1.10
  -5  -7   3   11.71    0.97
  -5   7   3    8.53    1.08
   5   7  -3    7.94    0.81
  -3  -7   3   10.84    0.95
  -3   7   3   10.47    1.12
   3   7  -3   10.38    0.84
  -1  -7   3    8.53    0.92
   1   7  -3    5.72    0.76
  -1   7   3    7.05    1.05
   1  -7   3   12.18    0.92
  -1   7  -3   11.14    0.85
  -1   7  -3   10.28    1.04
   1   7   3   10.86    1.12
   3  -7   3    5.34    0.87
  -3   7  -3    2.68    0.70
  -3   7  -3    2.91    0.52
   5  -7   3    1.93    0.55
  -5   7  -3    0.87    0.45
  -5   7  -3   -0.48    0.62
  -7   7  -3    3.49    0.77
  -7   7  -3    3.31    0.52
  56   0  -4    0.51    0.48
  54   0  -4    1.05    0.50
  52   0  -4   17.51    1.05
 -52   0   4   14.66    0.98
  50   0  -4    5.04    0.66
 -50   0   4    3.28    0.56
 -50   0   4    3.01    0.72
 -48   0   4    0.44    0.48
  48   0  -4    0.35    0.52
 -48   0   4    0.57    0.65
 -46   0   4    1.72    0.53
  46   0  -4    3.38    0.66
 -46   0   4    3.53    0.73
 -44   0   4   12.96    1.21
  44   0  -4   13.72    1.01
 -44   0   4   14.80    0.97
 -42   0   4    5.30    0.74
  42   0  -4    4.66    0.63
 -42   0   4    4.44    0.83
 -40   0   4    4.05    0.71
  40   0  -4    3.22    0.56
 -40   0   4    2.54    0.70
 -38   0   4   38.39    1.59
 -38   0   4   38.96    1.94
  38   0  -4   38.68    1.54
  36   0  -4   25.93    1.18
 -36   0   4   26.82    1.21
 -36   0   4   26.67    1.22
 -36   0   4   25.60    1.48
 -34   0   4    0.71    0.39
 -34   0   4    0.54    0.46
 -34   0   4    1.51    0.56
  34   0  -4    1.54    0.43
 -34   0   4    1.37    0.47
 -32   0   4   57.55    2.08
 -32   0   4   62.36    2.52
  32   0  -4   57.42    1.99
 -32   0   4   58.58    2.19
 -30   0   4    8.76    0.84
 -30   0   4    9.28    0.68
 -28   0   4   40.02    1.79
 -26   0   4    8.86    0.77
 -24   0   4   79.05    3.07
 -22   0   4    1.18    0.40
 -20   0   4   23.92    1.17
 -20   0   4   24.64    1.21
 -18   0   4   24.23    1.15
 -16   0   4   76.09    3.03
 -14   0   4  166.91    6.42
 -12   0   4  465.52   15.46
 -12   0   4  468.44   17.68
 -10   0   4  799.69   26.15
 -10   0   4  784.80   29.91
  -8   0   4  170.25    6.73
  -8   0   4  182.93    5.93
  -6   0   4  873.16   28.80
  -4   0   4  183.83    6.17
  -2   0   4  383.73   12.79
   0   0   4    3.60    0.32
   2   0   4  203.63    6.84
   4   0   4    9.86    0.52
   4   0   4   10.05    0.67
   6   0   4  410.32   16.03
   6   0   4  405.79   13.63
   8   0   4   34.89    1.57
 -10   0  -4  115.74    4.67
  10   0   4  114.32    3.99
  10   0   4  116.88    4.67
 -12   0  -4  130.87    5.12
  12   0   4  126.33    5.12
  12   0   4  122.92    4.38
  14   0   4    1.22    0.34
  14   0   4    1.05    0.35
 -14   0  -4    0.47    0.31
  16   0   4   35.64    1.66
 -16   0  -4   36.48    1.64
  18   0   4   50.72    1.99
  20   0   4   57.83    2.24
  22   0   4    8.86    0.79
  24   0   4   15.50    1.01
  26   0   4   21.35    1.04
  26   0   4   19.75    1.69
  26   0   4   23.41    1.23
  28   0   4   42.99    1.62
  28   0   4   45.40    1.95
  28   0   4   41.74    2.36
  30   0   4    1.12    0.59
  30   0   4    1.27    0.78
  30   0   4    0.77    0.46
  32   0   4    2.61    0.85
  32   0   4    2.00    0.51
  32   0   4    2.29    0.65
  34   0   4   -0.25    0.75
  34   0   4   -0.05    0.47
  36   0   4  119.48    3.84
  36   0   4  121.87    5.18
  38   0   4   14.87    0.98
  38   0   4   16.26    1.62
  40   0   4    2.51    0.55
  40   0   4    2.40    0.93
  42   0   4   23.11    1.12
  42   0   4   23.74    1.87
  44   0   4   12.81    1.61
  46   0   4    6.92    1.38
  48   0   4    0.52    0.75
  50   0   4   11.87    1.26
  55  -1  -4   -0.05    0.49
 -55   1   4    0.77    0.38
  55   1  -4    0.42    0.43
  53  -1  -4    0.83    0.55
 -53   1   4    1.09    0.43
  53   1  -4    1.39    0.51
  51  -1  -4    3.05    0.60
 -51   1   4    3.01    0.52
  51   1  -4    3.46    0.58
 -51   1   4    1.79    0.70
  49  -1  -4   14.60    1.08
  49   1  -4   13.04    0.95
 -49   1   4   14.61    0.92
 -49   1   4   11.07    1.18
  47  -1  -4    1.18    0.61
 -47   1   4    2.09    0.51
  47   1  -4    0.60    0.53
 -47   1   4    1.13    0.70
  45  -1  -4   26.72    1.32
 -45   1   4   26.43    1.71
 -45   1   4   31.41    1.37
  45   1  -4   27.83    1.35
 -43  -1   4   18.68    1.20
  43  -1  -4   21.25    1.18
 -43   1   4   19.09    1.43
  43   1  -4   19.40    1.12
 -43   1   4   19.78    1.08
 -41  -1   4    2.81    0.55
 -41  -1   4    1.99    0.58
  41  -1  -4    2.81    0.65
 -41   1   4    3.33    0.81
 -41   1   4    3.42    0.53
  41   1  -4    4.16    0.65
 -39  -1   4   28.57    1.48
 -39  -1   4   30.13    1.39
  39  -1  -4   31.21    1.37
 -39  -1   4   28.37    1.36
 -39   1   4   26.50    1.65
  39   1  -4   27.89    1.26
 -39   1   4   26.74    1.23
 -37  -1   4   74.99    2.74
 -37  -1   4   76.33    2.60
 -37  -1   4   73.58    2.71
  37  -1  -4   74.82    2.54
 -37   1   4   72.94    2.59
  37   1  -4   71.58    2.44
 -37   1   4   71.35    3.10
  35  -1  -4   10.42    0.83
 -35  -1   4    9.71    0.91
 -35  -1   4    9.82    0.88
 -35  -1   4    9.15    0.82
  35   1  -4    9.82    0.76
 -35   1   4   10.87    1.06
 -35   1   4    8.77    0.72
 -33  -1   4   15.65    0.92
  33  -1  -4   12.75    0.86
 -33  -1   4   13.76    1.11
 -33  -1   4   13.36    1.01
 -33  -1   4   13.16    1.02
 -33  -1   4   15.03    0.94
 -33   1   4   12.05    0.75
 -33   1   4   12.47    1.06
  33   1  -4   12.20    0.79
 -31  -1   4   65.78    2.47
 -31  -1   4   68.58    2.78
 -31  -1   4   69.11    2.26
 -31   1   4   75.27    3.02
  31   1  -4   70.73    2.39
 -29  -1   4   37.53    1.76
 -29  -1   4   39.08    1.46
 -29  -1   4   42.33    1.95
 -29   1   4   34.34    1.66
 -27  -1   4   56.99    2.37
 -27  -1   4   61.67    2.58
 -27  -1   4   56.72    1.93
 -27   1   4   57.33    2.40
 -25  -1   4   16.32    1.05
 -25  -1   4   15.57    0.93
 -25   1   4   15.32    0.97
 -23  -1   4   35.39    1.54
 -23  -1   4   36.26    1.68
 -23   1   4   39.46    1.73
  21  -1  -4    0.19    0.26
 -21  -1   4   -0.01    0.36
 -21   1   4   -0.10    0.35
  21   1  -4    0.18    0.33
 -19  -1   4   32.95    1.48
  19  -1  -4   30.88    1.28
 -19   1   4   34.16    1.51
  19   1  -4   33.89    1.36
  17  -1  -4   19.44    0.92
 -17  -1   4   20.75    1.04
  17   1  -4   20.28    0.92
 -17   1   4   19.78    1.02
 -15  -1   4    2.57    0.34
 -15  -1   4    2.53    0.48
  15  -1  -4    2.71    0.46
  15   1  -4    2.03    0.32
  13  -1  -4   44.33    1.67
 -13  -1   4   45.00    1.88
  13   1  -4   44.71    1.65
  11  -1  -4   42.32    1.59
 -11  -1   4   41.74    1.76
  11   1  -4   39.44    1.48
  -9  -1   4  302.60   11.64
   9  -1  -4  309.20   10.21
   9   1  -4  312.26   10.45
  -7  -1   4  534.41   20.47
   7  -1  -4  547.25   17.92
   7   1  -4  538.75   17.94
  -5  -1   4   61.58    2.48
   5  -1  -4   62.34    2.22
   5   1  -4   61.70    2.18
  -3  -1   4   87.49    3.43
   3   1  -4   81.67    2.80
  -3   1   4   79.79    2.82
  -1  -1   4  667.27   25.22
  -1   1   4  606.48   20.82
  -1   1   4  629.34   20.86
  -1   1   4  652.15   24.68
   1  -1   4    4.98    0.43
   1   1   4    4.65    0.32
   1   1   4    3.47    0.41
   1   1   4    4.75    0.61
   3  -1   4   82.18    2.88
   3   1   4   74.70    2.56
  -3   1  -4   68.13    3.00
   3   1   4   75.86    2.63
   3   1   4   79.25    3.12
   5  -1   4   49.61    1.83
   5   1   4   53.46    1.99
   5   1   4   53.51    1.93
   5   1   4   56.83    2.38
   7  -1   4   37.60    1.41
  -7  -1  -4   34.32    1.63
   7   1   4   37.14    1.41
   7   1   4   35.94    1.46
   7   1   4   40.51    1.77
  -9  -1  -4    3.95    0.56
   9  -1   4    2.50    0.48
   9   1   4    3.86    0.45
  -9   1  -4    4.64    0.39
   9   1   4    3.23    0.66
  11  -1   4   77.78    2.76
 -11  -1  -4   75.59    3.22
  11   1   4   76.69    3.28
  11   1   4   76.37    2.74
 -11   1  -4   78.05    3.13
  13  -1   4   21.25    1.00
 -13  -1  -4   19.78    1.10
  13   1   4   18.55    1.15
  13   1   4   19.69    0.94
  15  -1   4   34.38    1.44
 -15  -1  -4   33.15    1.62
  15   1   4   41.10    1.61
  15   1   4   39.31    1.93
  17  -1   4   22.46    1.12
  17   1   4   20.13    1.02
  19  -1   4   27.18    1.30
  19   1   4   27.31    1.25
  21  -1   4   53.60    2.15
  21   1   4   48.39    1.94
  23  -1   4   21.61    1.08
  23  -1   4   21.80    0.99
  23  -1   4   22.53    1.21
  23   1   4   20.49    1.12
  25  -1   4   18.29    0.93
  25  -1   4   20.08    1.03
  25  -1   4   18.75    1.15
  25   1   4   21.89    1.22
  25   1   4   19.32    1.61
  25   1   4   22.87    1.21
  27  -1   4    5.98    1.00
  27  -1   4    5.84    0.68
  27  -1   4    7.32    0.80
  27   1   4    6.67    0.84
  27   1   4    6.30    0.82
  27   1   4    4.99    0.89
  29  -1   4    5.89    0.69
  29  -1   4    5.05    0.81
  29  -1   4    6.64    1.30
  29   1   4    6.13    0.84
  29   1   4    7.39    0.86
  29   1   4    8.41    1.32
  31  -1   4    3.80    0.63
  31  -1   4    5.15    0.89
  31   1   4    3.55    0.66
  31   1   4    4.55    0.91
  31   1   4    5.66    0.85
  33  -1   4   10.62    0.96
  33  -1   4   11.12    1.38
  33   1   4    9.64    1.49
  33   1   4   10.95    1.04
  33   1   4   10.67    1.01
  35  -1   4    2.39    0.59
  35  -1   4    2.34    0.82
  35   1   4    2.24    0.89
  35   1   4    3.28    0.71
  35   1   4    2.70    0.64
  37  -1   4   11.74    1.45
  37  -1   4   10.03    0.92
  37   1   4   12.41    1.64
  39  -1   4   15.72    1.60
  39  -1   4   12.71    0.97
  39   1   4   15.09    1.72
  41  -1   4    5.22    0.82
  41  -1   4    4.32    0.94
  41   1   4    5.57    1.12
  43  -1   4    7.27    1.43
  43  -1   4    6.22    0.75
  43   1   4    6.46    1.13
  45  -1   4    0.31    0.43
  45  -1   4    1.23    0.78
  45   1   4    1.36    0.88
  47  -1   4    1.62    0.41
  47  -1   4    2.50    0.87
  47   1   4    3.77    0.90
  49   1   4    9.13    1.32
  54  -2  -4    3.33    0.55
  54   2  -4    2.67    0.43
  54   2  -4    3.83    0.76
 -54   2   4    3.45    0.44
  52  -2  -4   15.65    1.01
  52   2  -4   12.52    1.53
 -52   2   4   15.08    0.86
  52   2  -4   13.22    0.85
  50  -2  -4    1.06    0.56
  50   2  -4    2.98    1.00
  50   2  -4    1.71    0.49
 -50   2   4    1.62    0.45
  48  -2  -4    8.90    0.98
  48   2  -4    5.20    0.77
 -48   2   4    7.61    0.75
 -48   2   4    7.55    1.03
  46  -2  -4   38.26    1.65
  46   2  -4   33.73    1.42
 -46   2   4   34.02    1.44
 -46   2   4   30.17    1.82
  44  -2  -4    4.75    0.71
 -44  -2   4    4.95    0.70
 -44   2   4    4.04    0.86
  44   2  -4    6.18    0.82
 -44   2   4    6.72    0.75
  42  -2  -4    4.00    0.68
 -42  -2   4    3.56    0.65
 -42   2   4    3.93    0.70
 -42   2   4    3.65    0.80
  42   2  -4    3.33    0.62
 -40  -2   4   17.65    1.15
  40  -2  -4   17.95    1.26
 -40   2   4   16.61    0.97
  40   2  -4   15.62    1.02
 -40   2   4   16.46    1.35
 -38  -2   4    2.60    0.63
 -38  -2   4    1.09    0.58
  38   2  -4    1.15    0.50
 -38   2   4    0.90    0.70
 -38   2   4    1.02    0.43
 -36  -2   4   71.16    2.61
 -36  -2   4   66.94    2.61
 -36   2   4   62.38    2.34
 -36   2   4   68.21    2.91
  36   2  -4   64.82    2.25
 -34  -2   4   30.75    1.76
 -34  -2   4   28.51    1.48
 -34  -2   4   29.04    1.49
 -34   2   4   22.80    1.51
 -34   2   4   25.09    1.12
  34   2  -4   25.67    1.15
 -32  -2   4   26.36    1.21
 -32  -2   4   24.79    1.36
 -32  -2   4   24.61    1.33
 -32  -2   4   26.62    1.58
 -32   2   4   21.11    1.36
  32   2  -4   20.96    1.03
 -32   2   4   19.56    0.96
 -30  -2   4   65.36    2.18
 -30  -2   4   61.73    2.36
 -30  -2   4   60.83    2.42
 -30  -2   4   64.39    2.15
 -30  -2   4   64.18    2.88
  30   2  -4   51.88    1.89
 -30   2   4   53.22    1.97
 -30   2   4   60.18    2.47
 -28  -2   4    7.66    0.70
 -28  -2   4    8.53    0.70
 -28  -2   4    7.55    0.94
 -28  -2   4    6.75    0.93
 -28   2   4    6.42    0.85
  28   2  -4    6.46    0.61
 -26  -2   4   34.57    1.31
 -26  -2   4   33.33    1.73
 -26  -2   4   33.18    1.30
  26   2  -4   29.58    1.20
 -26   2   4   33.21    1.59
  26   2  -4   31.20    1.42
 -24  -2   4  106.23    4.30
 -24  -2   4  103.36    3.23
 -24   2   4   99.55    3.82
  24   2  -4   96.21    3.54
 -22  -2   4   64.24    2.78
  22   2  -4   68.71    2.58
 -22   2   4   69.86    2.79
 -20  -2   4   80.51    3.35
 -20   2   4   76.30    2.99
  20   2  -4   75.38    2.77
 -18  -2   4  139.49    5.54
  18   2  -4  137.81    4.81
 -18   2   4  139.28    5.15
 -16  -2   4  152.87    6.02
  16   2  -4  128.73    4.48
 -16   2   4  128.90    4.79
 -14  -2   4  103.11    4.14
  14   2  -4  104.41    3.74
 -14   2   4  108.67    4.01
 -12  -2   4   12.13    0.83
  12  -2  -4   10.60    0.77
 -12   2   4   13.61    0.84
  12   2  -4   13.67    0.78
 -10  -2   4  332.29   12.42
  10  -2  -4  315.97   10.90
  10   2  -4  307.45    9.93
 -10   2   4  281.78   10.54
  -8  -2   4   39.32    1.73
   8  -2  -4   38.99    1.57
   8   2  -4   37.92    1.48
  -6  -2   4   50.66    2.11
   6  -2  -4   48.44    1.87
   6   2  -4   44.82    1.69
   4  -2  -4   24.21    1.08
  -4  -2   4   24.76    1.20
  -4   2   4   27.86    1.42
   4   2  -4   28.09    1.15
   2  -2  -4   48.36    1.89
  -2  -2   4   51.12    2.11
   2   2  -4   49.40    1.84
  -2   2   4   50.30    2.23
   0  -2   4   78.76    3.13
   0  -2  -4   76.03    2.78
   0   2   4   78.75    3.34
  -2  -2  -4   99.78    4.18
  -2  -2  -4  101.35    3.54
   2  -2   4  101.86    4.01
   2   2   4  104.18    3.53
   2   2   4  103.52    4.31
  -4  -2  -4  139.55    5.69
   4   2   4  133.07    5.41
   4   2   4  130.41    4.47
  -6  -2  -4  113.46    4.69
   6   2   4   97.66    3.41
   6   2   4  100.31    4.17
  -8  -2  -4  168.87    6.85
   8   2   4  181.65    7.35
   8   2   4  179.76    6.13
 -10  -2  -4   60.57    2.66
  10   2   4   62.40    2.77
  10   2   4   60.53    2.23
  12  -2   4   72.79    2.68
  12   2   4   71.51    3.19
  12   2   4   72.01    2.59
  14  -2   4  139.93    4.91
  14   2   4  146.33    4.97
  14   2   4  140.62    5.98
  16   2   4    3.48    0.61
  18  -2   4   36.58    1.44
  18   2   4   35.24    1.51
  20  -2   4   45.50    1.65
  20  -2   4   43.25    1.67
  20   2   4   41.37    1.69
 -20   2  -4   37.92    1.44
  22  -2   4    6.42    0.79
  22  -2   4    7.31    0.79
  22   2   4    7.12    1.26
 -22   2  -4    7.53    0.67
  22   2   4    7.98    0.78
  22   2   4    8.70    0.80
  24  -2   4    5.47    0.78
  24  -2   4    5.28    0.60
 -24   2  -4    5.42    0.62
 -24   2  -4    4.21    0.75
  24   2   4    4.01    0.88
  24   2   4    4.63    0.71
  24   2   4    5.17    0.77
  26  -2   4   28.03    1.25
  26  -2   4   27.56    1.30
 -26   2  -4   24.13    1.04
  26   2   4   23.00    1.21
  26   2   4   22.75    1.78
  26   2   4   21.26    1.25
  28  -2   4   82.67    2.77
  28  -2   4   85.27    2.85
 -28   2  -4   78.56    2.44
  28   2   4   71.59    2.74
  28   2   4   71.98    2.86
  28   2   4   73.15    3.49
  30  -2   4   12.02    0.94
  30  -2   4   11.05    1.00
 -30   2  -4   13.73    0.83
  30   2   4   13.91    1.03
  30   2   4   13.14    1.04
  30   2   4   12.90    1.58
  32  -2   4   46.35    1.79
  32  -2   4   48.32    1.89
  32   2   4   47.05    2.63
  32   2   4   45.89    1.94
  32   2   4   44.62    2.03
  34  -2   4    8.41    0.96
  34  -2   4   10.79    1.01
  34   2   4   10.32    1.02
  34   2   4   11.34    1.01
  34   2   4   10.37    1.61
  36  -2   4   31.69    1.48
  36   2   4   27.75    2.12
  36   2   4   29.09    1.48
  38  -2   4    1.32    0.57
  38   2   4    1.72    0.63
  38   2   4    1.31    0.95
  40  -2   4    0.26    0.51
  40   2   4   -0.02    0.58
  40   2   4   -0.16    0.92
  42  -2   4   17.02    1.02
 -42   2  -4   12.20    1.12
  42   2   4   16.85    1.66
  44  -2   4    3.51    0.51
  44   2   4    4.40    1.02
  46  -2   4    1.81    0.47
  46   2   4    0.97    0.86
  48   2   4   13.34    1.37
 -51   3   4    5.29    0.62
 -49   3   4    4.80    0.63
 -47   3   4   11.23    0.79
 -45  -3   4    1.81    0.61
  45   3  -4    1.02    0.50
 -45   3   4    1.89    0.73
 -45   3   4    1.30    0.42
 -43  -3   4    1.75    0.60
 -43   3   4    0.25    0.71
 -43   3   4    0.91    0.43
  43   3  -4    1.13    0.49
 -41  -3   4   11.01    1.17
 -41   3   4    9.74    1.20
 -41   3   4   10.39    0.80
  41   3  -4   11.43    0.88
 -39  -3   4    1.47    0.64
  39   3  -4    2.72    0.55
 -39   3   4    1.70    0.44
 -39   3   4    1.75    0.75
 -37  -3   4    3.55    0.72
 -37  -3   4    2.91    0.67
  37   3  -4    1.37    0.51
 -37   3   4    0.45    0.41
 -37   3   4    1.03    0.71
 -35  -3   4   65.99    2.57
 -35  -3   4   65.12    2.53
  35   3  -4   59.45    2.10
 -35   3   4   58.64    2.68
 -35   3   4   58.57    2.17
 -33  -3   4   13.61    1.30
 -33  -3   4   15.69    1.21
 -33  -3   4   15.48    0.98
 -33  -3   4   15.21    1.25
  33   3  -4   12.87    0.90
 -33   3   4   13.00    1.18
 -33   3   4   12.74    0.80
 -31  -3   4   33.03    1.95
 -31  -3   4   35.18    1.45
 -31  -3   4   33.07    1.68
 -31  -3   4   35.81    1.72
 -31  -3   4   37.69    1.48
  31   3  -4   29.34    1.27
  31   3  -4   29.71    1.61
 -31   3   4   30.45    1.27
 -31   3   4   30.02    1.66
 -29  -3   4   -0.06    0.44
 -29  -3   4    0.74    0.57
 -29  -3   4   -0.23    0.47
 -29  -3   4    0.27    0.64
 -29  -3   4    0.31    0.66
 -29   3   4    0.32    0.35
  29   3  -4    0.86    0.54
  29   3  -4   -0.53    0.42
 -29   3   4    1.36    0.64
 -27  -3   4   17.80    1.33
 -27  -3   4   16.26    0.98
 -27  -3   4   20.52    1.04
 -27  -3   4   19.65    1.27
 -27   3   4   16.82    0.85
  27   3  -4   16.32    1.10
 -27   3   4   17.87    1.22
  27   3  -4   17.28    0.92
 -25  -3   4   19.71    1.36
 -25  -3   4   20.15    1.00
 -25  -3   4   18.50    1.04
 -25  -3   4   18.54    0.97
 -25   3   4   18.46    1.15
  25   3  -4   14.57    0.97
 -25   3   4   12.66    0.75
  25   3  -4   15.61    0.84
 -23  -3   4    2.55    0.48
 -23  -3   4    2.22    0.49
 -23  -3   4    2.04    0.62
 -23  -3   4    2.00    0.46
 -23   3   4    1.95    0.59
  23   3  -4    2.93    0.43
  23   3  -4    2.62    0.51
 -21  -3   4   18.97    1.32
 -21  -3   4   18.98    0.99
 -21  -3   4   20.66    0.99
 -21  -3   4   21.07    0.96
 -21   3   4   17.74    1.11
  21   3  -4   15.42    0.96
  21   3  -4   14.79    0.83
 -19  -3   4   16.17    0.85
 -19  -3   4   14.88    0.88
 -19  -3   4   16.34    1.17
 -19  -3   4   16.50    0.90
  19   3  -4   13.24    0.88
 -19   3   4   15.69    1.04
  19   3  -4   13.80    0.79
 -17  -3   4   20.01    0.99
 -17  -3   4   22.27    1.32
 -17  -3   4   20.23    1.01
 -17  -3   4   22.39    1.07
  17   3  -4   22.13    1.10
 -17   3   4   22.86    1.25
 -15  -3   4   50.19    2.26
 -15  -3   4   47.85    1.81
 -15   3   4   44.63    1.93
  15   3  -4   43.28    1.76
 -13  -3   4    4.98    0.78
 -13  -3   4    4.57    0.65
 -13   3   4    3.63    0.68
  13   3  -4    3.56    0.59
 -11  -3   4   42.28    1.62
 -11  -3   4   42.85    1.99
 -11   3   4   38.98    1.75
  11   3  -4   39.74    1.61
  -9  -3   4    8.21    0.72
  -9  -3   4    7.84    0.84
   9   3  -4    9.69    0.72
   7  -3  -4  122.51    5.44
  -7  -3   4  136.83    4.26
  -7  -3   4  141.13    5.34
   7   3  -4  133.89    4.69
   5  -3  -4   11.07    0.80
  -5  -3   4   11.18    0.91
  -5  -3   4   11.47    0.78
   5   3  -4    9.82    0.71
  -3  -3   4   70.44    2.82
   3  -3  -4   61.07    2.83
   3   3  -4   60.65    2.20
  -3   3   4   55.73    2.61
   1  -3  -4    4.64    0.63
  -1  -3   4    4.77    0.72
   1   3  -4    5.79    0.61
  -1   3   4    5.56    0.79
   1  -3   4    5.68    0.74
  -1   3  -4    4.60    0.58
   1   3   4    5.19    0.80
   3  -3   4    6.05    0.78
   3   3   4    4.71    0.79
   3   3   4    4.46    0.41
   5  -3   4    8.84    0.85
   5   3   4    7.80    0.92
   5   3   4    8.57    0.53
   7   3   4   18.63    0.86
   9   3   4   63.88    2.33
  11  -3   4    6.72    0.66
  11  -3   4    7.11    0.74
  11   3   4    5.88    0.61
  13  -3   4    6.90    0.87
  13  -3   4    8.70    0.77
  13   3   4    8.31    0.70
  15  -3   4    3.06    0.49
  15  -3   4    2.84    0.57
 -15   3  -4    1.23    0.46
  15   3   4    1.19    0.41
  15   3   4    1.59    0.42
  17  -3   4   18.57    1.02
  17  -3   4   18.20    1.09
  17   3   4   16.77    0.95
 -17   3  -4   18.45    1.00
  17   3   4   15.86    1.49
  17   3   4   17.93    1.01
  19  -3   4    7.20    0.89
  19  -3   4    5.95    0.79
  19   3   4    6.55    0.75
  19   3   4    4.24    0.71
  19   3   4    4.76    0.93
 -19   3  -4    6.32    0.73
  21  -3   4   25.12    1.24
  21  -3   4   27.08    1.31
  21   3   4   20.18    1.14
  21   3   4   19.74    1.66
  21   3   4   20.00    1.09
 -21   3  -4   20.86    1.10
  23  -3   4   12.59    0.97
  23  -3   4   12.81    1.04
 -23   3  -4   12.36    0.90
  23   3   4   11.72    0.93
  23   3   4   10.26    1.46
  23   3   4   12.88    0.97
  25  -3   4   43.56    1.77
  25  -3   4   43.45    1.76
  25   3   4   33.03    2.20
  25   3   4   35.49    1.66
 -25   3  -4   37.01    1.58
  25   3   4   37.61    1.60
  27  -3   4    8.64    0.97
  27  -3   4    6.87    0.99
 -27   3  -4    7.07    0.83
  27   3   4    6.40    0.88
  27   3   4    4.70    1.02
  27   3   4    6.61    0.84
  29  -3   4    3.00    0.65
  29  -3   4    2.25    0.63
 -29   3  -4    1.96    0.53
  29   3   4   -0.05    0.88
  29   3   4    2.01    0.58
  29   3   4    0.54    0.55
  31  -3   4   11.14    1.01
  31  -3   4    9.69    1.02
  31   3   4   10.53    0.98
 -31   3  -4   10.15    0.92
  31   3   4    7.06    1.15
  33  -3   4    3.44    0.67
  33  -3   4    3.79    0.60
  33   3   4    2.64    0.63
 -33   3  -4    2.53    0.56
  33   3   4    2.51    0.98
  35  -3   4    2.65    0.60
  35  -3   4    2.83    0.57
 -35   3  -4    1.76    0.63
 -35   3  -4    1.50    0.50
  35   3   4    1.13    0.58
  35   3   4    1.25    0.94
  37  -3   4    2.09    0.55
  37  -3   4    1.35    0.56
  37   3   4    1.06    0.92
 -37   3  -4    0.28    0.58
  37   3   4    0.99    0.56
  39  -3   4    0.76    0.53
  39   3   4    1.15    0.57
  39   3   4    1.82    0.92
  41  -3   4   -0.21    0.49
  41   3   4    0.19    0.54
  41   3   4    1.17    0.85
  43  -3   4    3.59    0.54
  43   3   4    3.19    0.59
  43   3   4    3.36    0.87
  45  -3   4    1.34    0.54
  45  -3   4    0.35    0.41
  45   3   4    0.25    0.69
 -46  -4   4    1.18    0.51
 -46   4   4    1.74    0.39
 -44  -4   4    2.39    0.55
 -44   4   4    1.09    0.40
 -42  -4   4    9.44    0.94
 -42   4   4    6.45    0.70
 -40  -4   4   23.40    1.37
 -40   4   4   17.67    0.97
 -38  -4   4   13.71    1.20
 -38   4   4   12.51    0.82
 -36  -4   4   46.33    1.99
 -36  -4   4   45.08    1.99
 -36   4   4   36.90    1.50
 -34  -4   4    6.86    1.14
 -34  -4   4    6.31    1.05
 -34   4   4    3.90    0.64
 -32  -4   4   41.40    1.96
 -32  -4   4   41.86    1.67
 -32  -4   4   40.99    1.92
 -32   4   4   32.88    1.35
 -30  -4   4    2.72    0.69
 -30  -4   4    2.92    0.79
 -30  -4   4    2.44    0.55
 -30   4   4    1.45    0.39
  30   4  -4    1.73    0.65
 -28  -4   4    3.58    0.74
 -28  -4   4    3.75    0.60
  28   4  -4    3.23    0.65
 -28   4   4    2.84    0.42
 -26  -4   4   17.82    1.05
 -26  -4   4   18.12    1.13
 -26  -4   4   17.13    1.41
 -26   4   4   15.58    0.84
  26   4  -4   16.49    1.11
  26   4  -4   16.83    1.09
 -24  -4   4   33.17    1.38
 -24  -4   4   32.57    1.38
 -24  -4   4   28.59    1.81
  24   4  -4   27.74    1.33
  24   4  -4   25.22    1.34
 -24   4   4   24.71    1.08
 -24   4   4   24.51    1.66
 -22  -4   4   12.92    0.88
 -22  -4   4   10.09    1.18
 -22  -4   4   11.26    0.90
  22   4  -4   10.03    0.88
 -22   4   4    9.65    1.20
  22   4  -4   10.27    0.89
 -20  -4   4    6.28    0.79
 -20  -4   4    6.00    0.83
 -20  -4   4    6.44    1.06
  20   4  -4    6.29    0.79
 -20   4   4    4.54    0.82
  20   4  -4    3.51    0.60
 -18  -4   4   22.12    1.50
 -18  -4   4   22.12    1.11
 -18  -4   4   23.68    1.11
 -18   4   4   16.19    1.32
  18   4  -4   17.21    1.04
  18   4  -4   15.58    1.05
 -16  -4   4   17.43    1.33
 -16  -4   4   17.71    0.98
 -16  -4   4   18.39    1.08
 -16  -4   4   17.65    1.00
  16   4  -4   20.11    1.14
 -16   4   4   19.85    1.44
  16   4  -4   19.72    1.11
 -14  -4   4   76.73    2.54
 -14  -4   4   74.03    2.65
 -14  -4   4   75.38    2.51
 -14  -4   4   76.05    3.35
  14   4  -4   63.51    2.39
  14   4  -4   63.28    2.46
 -14   4   4   62.95    3.00
 -12  -4   4   27.64    1.22
 -12  -4   4   27.65    1.63
 -12  -4   4   28.99    1.34
 -12  -4   4   28.87    1.23
  12   4  -4   26.20    1.29
  12   4  -4   24.60    1.25
 -12   4   4   25.49    1.63
 -12   4   4   27.02    1.46
 -10  -4   4   31.18    1.34
 -10  -4   4   32.46    1.33
 -10  -4   4   34.55    1.47
 -10  -4   4   32.18    1.77
  10   4  -4   29.40    1.39
  10   4  -4   32.01    1.43
 -10   4   4   31.30    1.58
 -10   4   4   28.16    1.75
  -8  -4   4    2.41    0.64
  -8  -4   4    3.97    0.60
  -8  -4   4    2.52    0.51
  -8  -4   4    3.25    0.51
   8   4  -4    3.59    0.55
  -8   4   4    3.93    0.74
  -8   4   4    3.88    0.74
   8   4  -4    3.98    0.69
  -6  -4   4    1.31    0.58
  -6  -4   4    1.15    0.54
  -6  -4   4    1.47    0.45
  -6  -4   4    1.38    0.50
  -6   4   4    0.63    0.59
   6   4  -4    1.80    0.47
   6   4  -4    1.11    0.45
  -6   4   4    1.66    0.62
  -4  -4   4   18.89    1.31
  -4  -4   4   20.35    1.03
  -4  -4   4   19.85    1.06
  -4  -4   4   19.51    1.10
   4   4  -4   16.49    1.03
  -4   4   4   17.30    1.30
  -4   4   4   17.17    1.20
   4   4  -4   16.69    1.03
  -2  -4   4   30.55    1.42
  -2  -4   4   32.34    1.32
  -2  -4   4   31.25    1.36
  -2  -4   4   32.22    1.76
  -2   4   4   30.51    1.68
  -2   4   4   27.87    1.52
   2   4  -4   27.29    1.32
   2   4  -4   27.27    1.35
   0  -4   4   93.83    3.91
   0  -4   4   89.18    2.98
   0  -4   4   90.23    2.97
   0   4  -4   83.14    3.02
   0   4  -4   86.36    3.15
   0   4   4   83.75    3.27
   0   4   4   82.73    3.78
   2  -4   4    3.12    0.70
   2  -4   4    2.45    0.49
   2  -4   4    3.37    0.55
  -2   4  -4    3.34    0.51
  -2   4  -4    3.90    0.68
   2   4   4    3.97    0.71
   2   4   4    2.94    0.72
   4  -4   4   30.24    1.34
   4  -4   4   31.28    1.73
   4  -4   4   30.19    1.33
  -4   4  -4   30.68    1.38
   4   4   4   26.55    1.15
   4   4   4   28.58    1.52
  -4   4  -4   26.85    1.28
   4   4   4   27.54    1.67
   6  -4   4   21.91    1.42
   6  -4   4   22.34    1.14
   6  -4   4   20.80    1.12
   6   4   4   16.35    0.86
   6   4   4   16.79    1.32
   6   4   4   17.18    1.22
   6   4   4   15.91    0.87
  -6   4  -4   16.86    0.98
  -6   4  -4   18.86    1.08
   8  -4   4   10.27    0.94
   8  -4   4   12.17    0.88
   8  -4   4   11.04    1.11
   8   4   4   10.74    1.10
  -8   4  -4    9.61    0.83
  -8   4  -4   11.30    0.90
   8   4   4   10.59    0.75
   8   4   4   11.16    0.73
   8   4   4   11.78    1.16
  10  -4   4    6.90    0.88
  10  -4   4    7.21    0.81
  10  -4   4    6.71    1.00
 -10   4  -4    6.67    0.74
  10   4   4    4.70    1.00
  10   4   4    5.98    0.85
  10   4   4    6.85    0.65
  10   4   4    6.70    0.66
  12  -4   4   28.73    1.32
  12  -4   4   27.42    1.68
  12  -4   4   28.58    1.34
 -12   4  -4   24.61    1.21
  12   4   4   25.23    1.16
  12   4   4   24.39    1.19
  12   4   4   23.58    1.58
  14  -4   4    6.46    1.03
  14  -4   4    7.24    0.84
  14  -4   4    8.43    0.93
 -14   4  -4    5.83    0.78
  14   4   4    6.11    0.73
  14   4   4    6.05    0.73
  16  -4   4   10.99    0.96
  16  -4   4   13.10    1.02
  16  -4   4   11.43    1.17
  16   4   4   11.87    0.90
 -16   4  -4   11.12    0.88
  16   4   4   10.25    0.86
  18  -4   4    3.84    0.65
  18  -4   4    3.56    0.62
 -18   4  -4    2.76    0.54
  18   4   4    2.56    0.52
  18   4   4    2.62    0.55
  20  -4   4   32.81    1.52
  20  -4   4   31.82    1.51
  20   4   4   24.38    1.35
 -20   4  -4   29.81    1.36
  20   4   4   29.50    1.37
  22  -4   4   18.79    1.23
  22  -4   4   20.00    1.23
  22   4   4   11.93    1.01
 -22   4  -4   17.94    1.05
  22   4   4   15.66    1.06
  24  -4   4    4.08    0.68
  24  -4   4    4.55    0.69
  24   4   4    3.45    0.62
 -24   4  -4    3.54    0.58
  26  -4   4   14.10    1.10
  26  -4   4   15.57    1.16
  26   4   4   13.31    1.08
 -26   4  -4   16.75    1.05
  28  -4   4   21.72    1.27
  28  -4   4   21.71    1.28
 -28   4  -4   18.17    1.11
  28   4   4   18.65    1.19
  30  -4   4    5.96    0.74
  30  -4   4    5.22    0.67
 -30   4  -4    4.81    0.79
  30   4   4    5.17    0.91
  32  -4   4    2.67    0.65
  32  -4   4    0.43    0.58
 -32   4  -4    1.50    0.52
  32   4   4    1.20    0.57
  34  -4   4   12.86    1.02
  34  -4   4   10.78    0.99
  34   4   4   10.76    0.99
 -34   4  -4    8.86    0.87
  36  -4   4   16.21    1.04
  36  -4   4   14.53    0.97
  36  -4   4   15.74    1.11
  36   4   4   16.20    1.06
 -36   4  -4   15.20    0.97
  38  -4   4    8.73    0.87
  38  -4   4    8.23    0.93
  38   4   4    8.09    0.84
 -38   4  -4    7.44    0.75
  40  -4   4    8.76    0.83
  40   4   4    8.40    0.82
 -41   5   4    0.68    0.32
 -39  -5   4   -0.23    0.48
 -39   5   4    0.13    0.34
 -37  -5   4   10.23    1.00
 -37   5   4    7.78    0.65
 -35  -5   4    7.84    1.07
 -35  -5   4    6.59    1.00
 -35   5   4    6.58    0.66
 -33  -5   4    1.22    0.63
 -33  -5   4   -0.18    0.52
 -33   5   4    0.19    0.38
 -31  -5   4    7.55    1.07
 -31  -5   4    9.85    0.85
 -31  -5   4    8.20    1.13
 -31   5   4    5.29    0.62
 -29  -5   4   28.93    1.62
 -29  -5   4   28.75    1.56
 -29  -5   4   28.59    1.29
 -29   5   4   22.87    1.06
  29   5  -4   23.71    1.29
 -27  -5   4    1.05    0.65
 -27  -5   4    1.11    0.54
 -27   5   4    1.82    0.43
  27   5  -4    0.45    0.54
 -25  -5   4   18.96    1.07
 -25  -5   4   19.84    1.18
 -25  -5   4   18.63    1.36
 -25   5   4   13.75    0.84
 -25   5   4   15.93    1.44
  25   5  -4   15.20    1.09
 -23  -5   4    7.43    0.82
 -23  -5   4    5.98    0.72
 -23   5   4    5.05    0.97
  23   5  -4    6.82    0.88
 -21  -5   4    1.76    0.54
 -21  -5   4    2.31    0.59
 -21   5   4    2.68    0.84
  21   5  -4    1.61    0.57
 -19  -5   4    3.24    0.61
 -19  -5   4    2.48    0.55
  19   5  -4    1.89    0.57
 -19   5   4    2.00    0.84
 -17  -5   4   45.46    1.76
 -17  -5   4   45.76    1.78
 -17   5   4   35.12    2.15
  17   5  -4   38.82    1.66
 -15  -5   4    1.80    0.59
 -15  -5   4    0.95    0.52
 -15   5   4    0.78    0.78
  15   5  -4    2.07    0.58
  15   5  -4    1.68    0.55
 -13  -5   4   22.67    1.20
 -13  -5   4   22.62    1.21
 -13  -5   4   22.84    1.32
  13   5  -4   17.45    1.15
  13   5  -4   20.69    1.16
 -13   5   4   19.74    1.59
 -11  -5   4    6.86    0.98
 -11  -5   4    7.86    0.89
 -11  -5   4    6.45    0.96
  11   5  -4    6.84    0.91
 -11   5   4    5.68    0.99
  11   5  -4    5.63    0.80
  -9  -5   4    8.58    1.15
  -9  -5   4    8.02    0.98
  -9  -5   4    7.21    1.06
  -9  -5   4    9.75    0.93
   9   5  -4    6.27    0.87
  -9   5   4   11.44    1.31
   9   5  -4    6.77    0.89
  -7  -5   4   36.81    2.17
  -7  -5   4   43.62    1.66
  -7  -5   4   40.08    1.65
  -7  -5   4   41.63    1.82
  -7   5   4   40.29    2.23
   7   5  -4   35.77    1.74
   7   5  -4   38.09    1.69
  -5  -5   4    9.71    1.06
  -5  -5   4    9.72    0.98
  -5  -5   4    7.90    0.93
  -5  -5   4    7.28    1.15
   5   5  -4    7.18    0.86
  -5   5   4    8.33    1.24
   5   5  -4    5.56    0.86
  -3  -5   4   16.49    1.25
  -3  -5   4   18.54    1.11
  -3  -5   4   18.42    1.13
  -3  -5   4   16.06    1.40
  -3   5   4   14.31    1.42
   3   5  -4   13.88    1.05
   3   5  -4   14.31    1.09
  -1  -5   4   21.02    1.21
  -1  -5   4   19.30    1.16
  -1  -5   4   17.43    1.45
  -1  -5   4   20.07    1.31
  -1   5   4   19.28    1.52
   1   5  -4   18.11    1.15
   1   5  -4   17.96    1.18
   1  -5   4   25.10    1.31
   1  -5   4   23.08    1.25
   1  -5   4   20.54    1.56
   1  -5   4   22.88    1.37
   1   5   4   21.43    1.63
   1   5   4   22.02    1.49
  -1   5  -4   24.38    1.29
  -1   5  -4   20.92    1.33
   3  -5   4    3.63    0.66
   3  -5   4    2.67    0.71
   3  -5   4    2.69    0.66
   3   5   4    2.35    0.85
  -3   5  -4    1.46    0.56
   3   5   4    2.27    0.77
  -3   5  -4    1.04    0.56
   3   5   4    1.84    0.45
   5  -5   4    1.76    0.67
   5  -5   4    3.06    0.73
   5  -5   4    2.80    0.61
   5   5   4    2.50    0.86
  -5   5  -4    1.43    0.58
  -5   5  -4    1.95    0.57
   5   5   4    1.73    0.77
   5   5   4    2.03    0.46
   7  -5   4   10.18    1.08
   7  -5   4   11.09    1.04
  -7   5  -4    8.60    0.95
   7   5   4   12.33    1.31
   7   5   4    9.75    1.20
   7   5   4   10.37    0.83
  -7   5  -4   11.08    0.97
   9  -5   4   32.57    1.51
   9  -5   4   33.55    1.54
   9   5   4   27.08    1.28
   9   5   4   27.58    1.80
  -9   5  -4   26.60    1.43
  -9   5  -4   27.15    1.38
  11  -5   4   10.87    1.09
  11  -5   4   12.52    1.07
  11   5   4    9.03    0.87
 -11   5  -4   10.56    0.94
  11   5   4    8.69    1.24
  13  -5   4    7.69    1.02
  13  -5   4    9.20    1.06
 -13   5  -4    6.71    0.88
  13   5   4    6.63    0.84
  15  -5   4    9.84    1.01
  15  -5   4    7.77    1.06
  15   5   4    7.71    0.88
 -15   5  -4    7.70    0.88
  17  -5   4    1.41    0.64
  17  -5   4    1.10    0.61
  17   5   4    1.41    0.53
 -17   5  -4    0.80    0.52
  19  -5   4   20.73    1.28
  19  -5   4   22.12    1.30
 -19   5  -4   16.69    1.06
  19   5   4   14.75    1.08
  21  -5   4   17.00    1.21
  21  -5   4   21.23    1.22
 -21   5  -4   16.02    1.07
  21   5   4   16.45    1.09
  23  -5   4    8.04    1.00
  23  -5   4    6.59    0.97
 -23   5  -4    4.57    0.80
  23   5   4    4.97    0.66
  25  -5   4    2.28    0.63
  25  -5   4    2.99    0.65
  25   5   4    2.59    0.60
 -25   5  -4    1.93    0.53
  27  -5   4    6.09    0.70
  27  -5   4    7.38    0.94
  27   5   4    6.40    0.87
 -27   5  -4    5.30    0.79
  29  -5   4    4.13    0.63
  29  -5   4    4.47    0.64
  29   5   4    3.40    0.60
 -29   5  -4    2.31    0.51
  31  -5   4    0.84    0.57
  31  -5   4    1.61    0.54
  31   5   4    0.26    0.51
 -31   5  -4    0.82    0.44
  33  -5   4    0.48    0.47
  33  -5   4    0.45    0.49
  33   5   4    0.77    0.48
 -33   5  -4    0.79    0.43
 -30  -6   4    6.23    0.92
 -28  -6   4   12.37    1.04
 -28  -6   4   11.24    1.02
 -28  -6   4   11.00    0.81
  28   6  -4    9.62    0.88
 -26  -6   4    1.00    0.62
 -26  -6   4    0.24    0.54
 -26  -6   4    0.12    0.43
 -26   6   4   -0.19    0.64
  26   6  -4    0.11    0.51
 -24  -6   4   17.17    1.22
 -24  -6   4   17.21    1.27
 -24  -6   4   17.46    0.97
  24   6  -4   15.52    1.04
 -24   6   4   15.32    1.35
 -22  -6   4    2.62    0.64
 -22  -6   4    2.85    0.52
 -22   6   4    1.88    0.80
  22   6  -4    2.73    0.58
 -20  -6   4    0.27    0.57
 -20  -6   4   -0.37    0.43
 -20   6   4   -0.32    0.75
  20   6  -4    0.02    0.52
 -18  -6   4    6.66    0.91
 -18  -6   4    6.28    0.79
 -18   6   4    6.28    1.25
  18   6  -4    5.54    0.87
 -16  -6   4    0.28    0.48
 -16  -6   4   -0.15    0.55
 -16   6   4    0.00    0.78
  16   6  -4   -0.02    0.52
 -14  -6   4    3.70    0.59
 -14  -6   4    3.28    0.64
 -14   6   4    4.66    0.94
  14   6  -4    3.39    0.62
 -12  -6   4    4.21    0.64
 -12  -6   4    3.66    0.60
 -12   6   4    4.49    0.95
  12   6  -4    3.44    0.60
 -10  -6   4    2.79    0.63
 -10  -6   4    2.78    0.58
 -10   6   4    5.87    1.25
  10   6  -4    2.69    0.62
  -8  -6   4   25.24    1.28
  -8  -6   4   24.14    1.38
  -8  -6   4   23.24    1.22
  -8   6   4   25.51    1.77
   8   6  -4   23.09    1.32
  -6  -6   4   23.92    1.46
  -6  -6   4   29.10    1.33
  -6  -6   4   29.38    1.39
   6   6  -4   24.82    1.34
   6   6  -4   24.89    1.64
  -6   6   4   21.60    1.72
  -4  -6   4    7.17    0.91
   4   6  -4    9.36    1.22
  -4   6   4   11.67    1.36
   4   6  -4    6.71    0.95
  -2  -6   4   45.98    2.01
  -2  -6   4   49.66    1.88
  -2  -6   4   48.26    1.87
   2   6  -4   43.90    1.86
  -2   6   4   41.83    2.35
   2   6  -4   40.47    2.29
   0   6   4    8.75    1.30
   0   6  -4    8.67    1.24
   0   6  -4    5.37    0.95
   2  -6   4   31.39    1.42
   2  -6   4   31.24    1.46
   2  -6   4   31.50    1.64
  -2   6  -4   27.75    1.42
   2   6   4   29.24    1.26
   2   6   4   26.61    1.83
   4  -6   4   10.04    1.01
   4  -6   4   10.07    1.12
   4  -6   4    7.57    0.93
  -4   6  -4    8.36    0.91
   4   6   4    6.98    1.25
   4   6   4    6.94    0.79
   6  -6   4    2.13    0.60
   6  -6   4    4.15    0.81
   6  -6   4    2.16    0.66
   6   6   4    2.72    0.87
  -6   6  -4    1.72    0.59
   8  -6   4   25.37    1.25
   8  -6   4   23.47    1.29
   8  -6   4   23.03    1.43
  -8   6  -4   24.40    1.27
   8   6   4   21.85    1.61
   8   6   4   22.35    1.16
  10  -6   4    8.99    0.97
  10  -6   4    9.59    0.95
  10  -6   4   10.16    1.16
  10   6   4    9.15    0.85
 -10   6  -4    8.18    0.90
  12  -6   4    4.71    0.69
  12  -6   4    4.01    0.81
  12  -6   4    4.67    0.67
  12   6   4    5.65    0.78
 -12   6  -4    4.65    0.67
  14  -6   4    5.61    0.67
  14  -6   4    4.86    0.69
  14  -6   4    5.39    0.84
 -14   6  -4    6.39    1.10
 -14   6  -4    5.58    0.87
  14   6   4    5.49    0.83
  16  -6   4   13.98    1.00
  16  -6   4   12.13    1.03
  16  -6   4   12.96    1.12
  16   6   4   11.94    0.90
 -16   6  -4   11.41    1.24
 -16   6  -4   10.60    0.96
  18  -6   4    1.39    0.55
  18  -6   4    2.52    0.69
  18  -6   4    1.36    0.59
 -18   6  -4    1.66    0.54
  18   6   4    1.08    0.48
 -18   6  -4    1.08    0.72
  20  -6   4   13.54    1.00
  20  -6   4   11.97    0.95
 -20   6  -4   10.60    0.91
 -20   6  -4   11.30    1.13
  20   6   4   10.36    0.87
  22  -6   4    1.49    0.50
  22  -6   4    1.98    0.55
 -22   6  -4    1.43    0.50
  22   6   4    1.64    0.47
 -22   6  -4    2.79    0.66
  24  -6   4   -0.12    0.45
  24  -6   4    0.05    0.49
 -24   6  -4    0.20    0.44
  24   6   4    0.27    0.43
  -9   7   4    6.69    1.08
   7   7  -4   20.66    1.08
  -7   7   4   21.71    1.43
   5   7  -4    9.61    0.80
  -5   7   4    9.99    1.11
   3   7  -4    6.68    0.74
   1   7  -4   13.37    0.88
  -1   7  -4    6.89    0.76
  56   0  -5    7.74    0.77
 -54   0   5    0.78    0.45
  54   0  -5    1.56    0.52
 -52   0   5   11.32    0.88
  52   0  -5   12.51    0.97
 -50   0   5    0.95    0.48
  50   0  -5    0.53    0.54
 -50   0   5    0.81    0.66
 -48   0   5    2.00    0.74
  48   0  -5    2.95    0.64
 -48   0   5    3.13    0.56
 -46   0   5    8.02    0.85
  46   0  -5    6.82    0.90
 -46   0   5    5.78    0.88
 -44   0   5    8.31    1.05
  44   0  -5    9.37    0.94
 -44   0   5    9.81    0.87
 -42   0   5   19.84    1.40
 -42   0   5   21.54    1.21
 -42   0   5   19.35    1.10
  42   0  -5   19.17    1.13
 -40   0   5   17.60    1.34
 -40   0   5   18.33    1.12
 -40   0   5   20.27    1.06
  40   0  -5   18.77    1.07
  38   0  -5    8.25    0.81
 -38   0   5    7.35    0.99
 -38   0   5    7.74    0.76
 -38   0   5    8.43    0.85
  36   0  -5    5.33    0.70
 -36   0   5    4.37    0.85
 -36   0   5    4.39    0.68
 -36   0   5    5.12    0.77
 -34   0   5    9.68    0.85
 -34   0   5    9.76    0.97
 -34   0   5   10.12    0.77
 -34   0   5    9.29    0.89
  34   0  -5    9.01    0.76
  32   0  -5   15.87    0.88
 -32   0   5   16.52    1.02
 -32   0   5   15.31    1.11
 -32   0   5   16.13    0.98
 -32   0   5   14.40    0.89
 -32   0   5   15.95    0.85
 -30   0   5   14.46    1.04
 -30   0   5   15.32    0.84
 -30   0   5   16.54    1.03
 -30   0   5   15.16    0.95
 -28   0   5   51.41    1.78
 -28   0   5   54.82    2.27
 -26   0   5  113.74    4.33
 -24   0   5   -0.14    0.36
 -22   0   5   10.06    0.74
 -20   0   5   10.06    0.71
 -20   0   5    8.99    0.71
 -18   0   5    0.86    0.31
 -18   0   5    1.04    0.37
 -16   0   5   45.86    1.89
 -16   0   5   47.56    1.95
 -14   0   5   26.99    1.20
 -12   0   5   23.78    1.06
 -10   0   5   44.99    1.82
  -2   0   5  441.07   14.70
   0   0   5   22.84    0.92
   2   0   5    4.26    0.39
   4   0   5   84.44    2.95
   6   0   5   59.41    2.27
   6   0   5   56.70    2.10
   8   0   5   12.92    0.67
   8   0   5   11.05    0.77
 -10   0  -5   52.92    2.26
  10   0   5   51.77    2.27
  12   0   5   46.65    1.79
 -12   0  -5   46.31    2.03
  12   0   5   44.86    2.04
  14   0   5    5.12    0.60
 -14   0  -5    4.54    0.57
  14   0   5    5.62    0.65
  16   0   5   18.63    1.02
  18   0   5  118.84    4.25
  20   0   5  123.97    4.45
  22   0   5    7.83    0.84
  24   0   5   61.67    3.08
  24   0   5   70.62    2.63
  24   0   5   65.29    2.23
  26   0   5   11.85    0.99
  26   0   5   13.02    1.39
  26   0   5   10.94    0.83
  26   0   5   13.09    1.02
  28   0   5    2.07    0.50
  28   0   5    1.52    0.78
  28   0   5    1.52    0.57
  28   0   5    2.33    0.61
  30   0   5    0.85    0.79
  30   0   5    0.00    0.46
  30   0   5   -0.18    0.57
  32   0   5   59.11    2.17
  32   0   5   64.39    2.62
  32   0   5   64.25    3.12
  34   0   5   53.88    1.99
  34   0   5   53.32    2.47
  34   0   5   59.44    2.92
  36   0   5   24.26    1.94
  38   0   5    2.36    0.94
  40   0   5    8.80    1.52
  42   0   5   10.65    1.51
  44   0   5    6.22    0.96
  44   0   5    7.86    1.38
  46   0   5   42.21    2.26
  48   0   5   23.38    1.52
  55  -1  -5    4.74    0.60
 -55   1   5    6.69    0.67
  55   1  -5    5.69    0.73
  53  -1  -5   49.97    1.87
 -53   1   5   49.29    1.84
  53   1  -5   46.31    1.76
  51  -1  -5    5.48    0.68
  51   1  -5    2.83    0.55
 -51   1   5    2.71    0.50
  49  -1  -5    6.43    0.93
  49   1  -5    7.88    0.88
 -49   1   5    8.66    0.81
 -49   1   5    6.77    1.08
  47  -1  -5    4.40    0.68
 -47  -1   5    4.21    0.65
  47   1  -5    2.64    0.59
 -47   1   5    4.23    0.57
 -47   1   5    3.78    0.83
 -45  -1   5   12.09    1.03
 -45  -1   5   12.40    0.94
  45  -1  -5   12.17    1.04
 -45   1   5   14.75    0.97
 -45   1   5   11.74    1.23
  45   1  -5   15.11    1.02
 -43  -1   5    6.51    0.83
 -43  -1   5    8.65    0.97
  43  -1  -5    7.12    0.94
  43   1  -5    5.80    0.86
 -43   1   5    5.89    0.78
 -43   1   5    5.60    1.04
  41  -1  -5   -0.03    0.56
 -41  -1   5   -0.10    0.53
 -41  -1   5   -0.14    0.54
 -41  -1   5    0.61    0.46
 -41   1   5   -0.01    0.40
 -41   1   5    0.21    0.66
  41   1  -5    0.96    0.53
  39  -1  -5   54.15    1.97
 -39  -1   5   51.96    2.05
 -39  -1   5   52.79    2.03
 -39  -1   5   52.14    2.15
  39   1  -5   52.19    1.93
 -39   1   5   53.21    2.50
 -39   1   5   53.03    2.01
 -37  -1   5   26.11    1.28
  37  -1  -5   25.37    1.22
 -37  -1   5   25.51    1.36
 -37  -1   5   24.58    1.25
 -37   1   5   25.37    1.51
 -37   1   5   21.56    1.10
  37   1  -5   23.95    1.12
 -35  -1   5    5.01    0.84
 -35  -1   5    4.22    0.59
 -35  -1   5    3.63    0.55
 -35  -1   5    4.49    0.56
 -35   1   5    5.39    0.94
  35   1  -5    3.54    0.50
 -35   1   5    2.94    0.44
 -33  -1   5    0.54    0.44
 -33  -1   5    1.79    0.46
 -33  -1   5    0.78    0.47
 -33  -1   5    0.55    0.51
  33   1  -5    0.23    0.36
 -33   1   5    0.27    0.58
 -33   1   5    0.23    0.35
 -31  -1   5   19.33    0.98
 -31  -1   5   21.62    1.16
 -31  -1   5   19.22    1.05
 -31  -1   5   19.72    1.33
 -31  -1   5   19.49    1.05
 -31   1   5   18.12    1.22
 -31   1   5   17.47    0.91
  31   1  -5   18.69    0.90
 -29  -1   5   91.30    3.27
 -29  -1   5   92.87    2.96
 -29  -1   5   98.44    3.95
 -29   1   5   89.19    2.96
 -29   1   5   90.11    3.58
  29   1  -5   89.19    2.85
 -27  -1   5   20.31    1.16
 -27  -1   5   23.04    1.28
 -27  -1   5   22.45    0.97
 -27   1   5   22.86    1.27
 -25  -1   5   11.76    0.82
 -25  -1   5   12.35    0.93
 -25   1   5   14.34    0.97
 -23  -1   5   58.52    2.40
 -23  -1   5   62.19    2.59
 -23   1   5   54.53    2.27
 -21  -1   5   17.42    1.00
 -21  -1   5   17.53    0.92
 -21   1   5   14.55    0.91
 -19  -1   5    0.48    0.33
 -19   1   5    0.45    0.35
 -17  -1   5   37.84    1.66
 -17   1   5   35.92    1.58
 -15  -1   5   81.65    3.15
 -15  -1   5   75.02    2.73
 -15   1   5   76.84    2.97
 -13  -1   5    2.80    0.38
 -13  -1   5    3.49    0.47
 -13   1   5    5.34    0.57
  13   1  -5    5.74    0.50
 -11  -1   5   23.67    1.10
 -11   1   5   25.84    1.21
  11   1  -5   26.99    1.09
  -9  -1   5   39.00    1.65
   9   1  -5   36.00    1.37
  -7  -1   5  258.45    9.87
   7   1  -5  263.18    8.85
  -5  -1   5   39.82    1.66
  -5   1   5   36.72    1.35
   5   1  -5   40.71    1.45
  -3  -1   5   31.84    1.37
  -3   1   5   28.15    1.03
   3   1  -5   28.10    1.11
  -1  -1   5   56.86    2.30
  -1   1   5   44.67    1.56
   1   1  -5   43.05    1.62
   1  -1   5   23.45    1.06
   1   1   5   28.04    1.40
   1   1   5   28.05    1.06
   3  -1   5   11.23    0.65
   3  -1   5   12.28    0.66
   3   1   5    7.94    0.66
   3   1   5    9.22    0.79
   3   1   5    9.60    0.50
   5  -1   5  156.58    5.37
   5   1   5  151.93    6.10
   5   1   5  146.66    5.10
   5   1   5  151.58    5.49
   7  -1   5   47.63    1.79
  -7  -1  -5   45.94    2.08
   7   1   5   53.70    2.35
   7   1   5   52.16    2.09
   7   1   5   51.01    1.91
  -9  -1  -5   36.61    1.72
   9  -1   5   37.09    1.49
   9   1   5   35.59    1.41
   9   1   5   36.47    1.75
 -11  -1  -5   13.93    0.91
  11  -1   5   13.56    0.81
  11   1   5   14.91    0.79
  11   1   5   13.68    0.99
  13  -1   5   45.62    1.74
 -13  -1  -5   40.34    1.96
  13   1   5   37.52    1.87
  13   1   5   39.30    1.55
  15  -1   5   54.98    2.14
  15   1   5   58.63    2.19
  15   1   5   56.13    2.61
  17  -1   5   32.34    1.45
  17   1   5   32.97    1.41
  17   1   5   30.25    1.66
  19  -1   5   13.58    0.93
  19   1   5   13.97    1.08
  19   1   5   16.42    0.96
  21  -1   5   97.61    3.10
  21  -1   5   93.87    3.54
  21   1   5   92.25    3.40
  23  -1   5    1.53    0.51
  23  -1   5    2.20    0.49
  23   1   5    2.79    0.51
  23   1   5    2.41    0.53
  23   1   5    2.23    0.80
  25  -1   5   12.91    1.01
  25  -1   5   11.72    0.92
  25   1   5   11.36    0.92
  25   1   5   14.27    0.99
  25   1   5   13.32    1.48
  27  -1   5   23.42    1.37
  27  -1   5   22.99    1.77
  27  -1   5   27.17    1.23
  27   1   5   23.71    1.27
  27   1   5   24.64    1.84
  27   1   5   23.66    1.32
  29  -1   5   25.87    1.23
  29  -1   5   23.80    1.78
  29   1   5   27.41    1.42
  29   1   5   24.75    1.36
  29   1   5   26.75    1.95
  31  -1   5   10.68    1.48
  31  -1   5   11.51    0.93
  31   1   5   13.01    1.07
  31   1   5   11.25    1.04
  31   1   5   15.52    1.65
  33  -1   5   17.45    1.07
  33  -1   5   16.27    1.65
  33   1   5   17.03    1.75
  33   1   5   13.80    1.16
  33   1   5   15.31    1.15
  35  -1   5   14.13    1.60
  35  -1   5   12.75    0.96
  35   1   5   12.46    1.70
  35   1   5   12.39    1.12
  37  -1   5    1.82    0.89
  37  -1   5    1.47    0.51
  37   1   5    0.11    0.90
  39  -1   5    9.88    1.47
  39  -1   5    9.67    0.83
  39   1   5   12.03    1.66
  41  -1   5    6.12    0.72
  41  -1   5    7.29    1.44
  41   1   5    8.77    1.50
 -41   1  -5    7.18    0.69
  43  -1   5    2.68    0.47
  43   1   5    2.65    0.93
  45   1   5    3.01    0.89
  47  -1   5    1.38    0.57
  47   1   5    2.59    0.81
  54  -2  -5    4.58    0.73
  54   2  -5    3.82    0.59
 -54   2   5    3.41    0.60
  52  -2  -5    6.24    0.84
  52   2  -5    5.71    0.72
 -52   2   5    8.45    0.72
  50  -2  -5    5.07    0.66
  50   2  -5    3.75    0.52
 -50   2   5    5.04    0.67
  48  -2  -5    1.68    0.63
  48   2  -5    1.94    0.53
 -48   2   5    3.06    0.50
 -48   2   5    3.19    0.78
  46  -2  -5   16.29    1.13
 -46  -2   5   18.34    1.19
  46   2  -5   16.68    1.01
 -46   2   5   16.85    0.96
 -46   2   5   13.83    1.32
 -44  -2   5    1.93    0.62
 -44   2   5    0.75    0.44
 -44   2   5   -0.02    0.68
  44   2  -5    0.82    0.54
 -42  -2   5   22.06    1.38
 -42  -2   5   20.79    1.28
  42   2  -5   14.63    1.04
 -42   2   5   17.15    1.38
 -42   2   5   17.41    0.99
 -40  -2   5   22.14    1.31
 -40  -2   5   19.56    1.25
 -40   2   5   19.38    1.04
 -40   2   5   19.78    1.45
  40   2  -5   18.89    1.11
 -38  -2   5    4.63    0.68
 -38  -2   5    6.32    1.00
 -38  -2   5    4.59    0.75
  38   2  -5    4.32    0.59
 -38   2   5    2.95    0.79
 -38   2   5    2.73    0.46
 -36  -2   5   36.57    2.04
 -36  -2   5   35.08    1.66
 -36  -2   5   37.11    1.72
 -36   2   5   30.28    1.75
 -36   2   5   30.49    1.31
  36   2  -5   32.57    1.34
 -34  -2   5   16.21    1.33
 -34  -2   5   15.66    1.15
 -34  -2   5   16.41    1.04
 -34  -2   5   17.28    1.18
 -34   2   5   13.86    1.16
  34   2  -5   13.23    0.90
 -34   2   5   13.14    0.81
 -32  -2   5   23.71    1.34
 -32  -2   5   22.13    1.27
 -32  -2   5   25.69    1.17
 -32  -2   5   23.68    1.52
  32   2  -5   20.84    1.03
 -32   2   5   22.12    1.01
 -32   2   5   22.78    1.41
 -30  -2   5   28.80    1.19
 -30  -2   5   29.39    1.47
 -30  -2   5   29.91    1.25
 -30  -2   5   27.22    1.37
 -30  -2   5   27.20    1.63
  30   2  -5   24.48    1.07
 -30   2   5   24.05    1.42
 -30   2   5   23.96    1.04
 -28  -2   5   26.52    1.53
 -28  -2   5   25.32    1.38
 -28  -2   5   26.78    1.13
 -28  -2   5   26.13    1.10
  28   2  -5   24.49    1.06
 -28   2   5   26.27    1.41
 -28   2   5   23.05    1.03
 -26  -2   5   72.10    3.10
 -26  -2   5   69.75    2.34
 -26  -2   5   69.75    2.64
 -26  -2   5   73.99    2.34
 -26   2   5   68.43    2.74
  26   2  -5   62.13    2.15
 -24  -2   5   29.08    1.53
 -24  -2   5   27.59    1.15
  24   2  -5   26.61    1.13
 -24   2   5   31.44    1.51
 -22  -2   5   17.47    1.13
 -22  -2   5   17.40    0.86
 -22   2   5   13.87    1.03
  22   2  -5   16.20    0.89
 -20  -2   5   17.59    1.10
 -20   2   5   14.16    0.99
  20   2  -5   16.02    0.88
 -18  -2   5   54.15    2.38
  18   2  -5   51.45    2.02
 -18   2   5   53.88    2.23
 -16  -2   5    3.57    0.66
  16   2  -5    3.70    0.54
 -16   2   5    3.23    0.63
 -14  -2   5   34.98    1.36
 -14  -2   5   35.81    1.66
 -14   2   5   38.55    1.67
  14   2  -5   36.29    1.51
 -12  -2   5   32.80    1.53
 -12  -2   5   32.40    1.28
  12   2  -5   28.95    1.24
 -12   2   5   29.08    1.38
 -10  -2   5   69.55    2.88
  10   2  -5   69.22    2.50
 -10   2   5   67.50    2.69
  -8  -2   5    1.70    0.39
   8   2  -5    2.64    0.38
  -8   2   5    2.61    0.44
  -6  -2   5  177.41    6.90
   6   2  -5  165.71    5.69
  -6   2   5  165.97    6.07
  -4  -2   5   65.92    2.73
   4   2  -5   55.62    2.04
  -4   2   5   54.67    2.21
  -2  -2   5   30.22    1.42
  -2   2   5   28.03    1.30
   2   2  -5   28.76    1.20
  -2   2   5   29.54    1.51
   0  -2   5  132.89    5.23
   0   2   5  127.61    5.16
   0   2  -5  125.88    4.32
   0   2   5  119.57    4.60
  -2  -2  -5   13.72    0.96
   2  -2   5   15.27    0.88
   2   2   5   11.45    0.97
   2   2   5   11.60    0.78
   2   2   5   12.90    0.58
  -4  -2  -5   69.86    3.09
   4  -2   5   73.10    2.94
   4   2   5   67.96    2.99
   4   2   5   65.89    2.62
   4   2   5   68.26    2.37
  -6  -2  -5   28.40    1.50
   6   2   5   32.30    1.68
   6   2   5   33.51    1.28
   6   2   5   31.79    1.43
   8   2   5   74.29    2.89
   8   2   5   75.78    3.31
   8   2   5   74.68    2.67
  10   2   5   29.78    1.62
  10   2   5   29.03    1.23
  12   2   5    3.57    0.64
  12   2   5    4.97    0.57
  14  -2   5    8.22    0.76
  14  -2   5   10.08    0.79
  14   2   5    7.87    0.69
  16  -2   5    1.09    0.43
  16  -2   5    1.21    0.42
  16  -2   5    1.21    0.44
 -16   2  -5    1.50    0.35
  16   2   5    1.45    0.42
  18  -2   5    0.42    0.43
  18  -2   5    0.61    0.40
  18   2   5    1.12    0.44
 -18   2  -5    0.85    0.35
  18   2   5    1.23    0.43
  18   2   5    1.85    0.75
  20  -2   5   93.50    2.97
  20  -2   5   89.41    3.00
  20   2   5   83.93    3.77
 -20   2  -5   84.10    2.68
  20   2   5   78.33    2.94
  20   2   5   86.67    3.11
  22  -2   5   46.82    1.77
  22  -2   5   45.60    1.70
 -22   2  -5   41.19    1.52
  22   2   5   41.93    1.78
  22   2   5   41.40    2.35
  22   2   5   41.11    1.70
  24  -2   5    1.39    0.47
  24  -2   5    1.65    0.50
  24   2   5    1.90    0.85
  24   2   5    1.91    0.50
 -24   2  -5    1.19    0.41
  24   2   5    1.36    0.50
  26  -2   5   73.74    2.47
  26  -2   5   73.89    2.56
  26   2   5   64.31    3.27
  26   2   5   65.54    2.53
  26   2   5   66.52    2.67
 -26   2  -5   71.90    2.28
  28  -2   5   26.88    1.21
  28  -2   5   27.62    1.34
  28   2   5   24.98    1.96
  28   2   5   25.89    1.31
  28   2   5   24.01    1.39
 -28   2  -5   27.79    1.17
  30  -2   5    1.26    0.55
 -30   2  -5    1.35    0.45
  30   2   5    0.61    0.89
  30   2   5    1.76    0.56
  30   2   5    0.49    0.53
  32  -2   5   15.08    1.07
  32   2   5   12.65    1.68
 -32   2  -5   13.94    0.86
  32   2   5   14.98    1.10
  34  -2   5   22.61    1.21
  34   2   5   28.85    2.12
  34   2   5   30.03    1.50
  36  -2   5    5.40    0.82
  36   2   5    3.80    1.03
  36   2   5    3.75    0.67
  38  -2   5    3.37    0.57
  38   2   5    1.96    0.62
  38   2   5    3.04    1.02
  40  -2   5    7.55    0.81
  40   2   5    3.94    1.04
  40   2   5    6.04    0.86
  42  -2   5    6.63    0.74
  42   2   5    9.27    1.47
  44  -2   5    1.34    0.59
  44  -2   5    0.53    0.41
  44   2   5    0.08    0.81
  46  -2   5    3.83    0.62
  46   2   5    4.16    0.84
 -51   3   5    3.23    0.55
 -49   3   5    7.29    0.65
 -47  -3   5    1.49    0.57
  47   3  -5    1.83    0.46
 -47   3   5    1.84    0.41
 -45  -3   5   33.82    1.53
  45   3  -5   26.42    1.20
 -45   3   5   25.85    1.63
 -45   3   5   28.22    1.20
 -43  -3   5    1.28    0.61
 -43   3   5    1.07    0.74
 -43   3   5    0.52    0.38
  43   3  -5    0.91    0.50
 -41  -3   5   23.70    1.42
 -41  -3   5   25.21    1.35
 -41  -3   5   24.94    1.44
  41   3  -5   21.89    1.12
 -41   3   5   21.02    1.53
 -41   3   5   20.37    1.04
 -39  -3   5   20.94    1.34
 -39  -3   5   19.89    1.35
  39   3  -5   17.32    1.06
 -39   3   5   20.71    1.49
 -39   3   5   19.00    0.99
 -37  -3   5   13.48    1.20
 -37  -3   5   14.24    1.23
 -37   3   5   10.25    1.20
  37   3  -5    9.85    0.89
 -37   3   5   10.55    0.78
 -35  -3   5    5.73    0.73
 -35  -3   5    6.81    1.10
 -35   3   5    5.85    0.67
 -35   3   5    5.46    1.07
  35   3  -5    5.58    0.79
 -33  -3   5   29.94    1.87
 -33  -3   5   31.78    1.38
 -33  -3   5   37.04    1.72
 -33  -3   5   31.36    1.60
 -33  -3   5   32.40    1.44
  33   3  -5   29.24    1.26
 -33   3   5   27.01    1.21
 -33   3   5   28.46    1.70
 -31  -3   5   39.73    1.59
 -31  -3   5   35.21    2.05
 -31  -3   5   38.95    1.52
 -31  -3   5   38.10    1.76
 -31  -3   5   38.81    1.85
  31   3  -5   31.66    1.38
 -31   3   5   33.20    1.81
 -31   3   5   32.53    1.32
 -29  -3   5   28.08    1.26
 -29  -3   5   24.08    1.43
 -29  -3   5   26.96    1.55
 -29  -3   5   27.11    1.21
 -29  -3   5   24.97    1.64
 -29   3   5   22.86    1.47
  29   3  -5   23.48    1.09
 -29   3   5   22.32    1.03
 -27  -3   5   26.76    1.48
 -27  -3   5   25.82    1.15
 -27  -3   5   23.79    1.42
 -27  -3   5   27.06    1.20
 -27  -3   5   24.35    1.58
  27   3  -5   24.73    1.43
 -27   3   5   22.80    1.03
  27   3  -5   25.16    1.11
 -27   3   5   25.83    1.48
 -25  -3   5   15.77    1.26
 -25  -3   5   16.15    0.93
 -25  -3   5   14.71    0.89
  25   3  -5   12.71    0.81
 -25   3   5   13.09    1.11
  25   3  -5   11.83    0.92
 -23  -3   5   18.65    0.97
 -23  -3   5   17.50    0.93
 -23  -3   5   16.98    1.26
 -23  -3   5   18.16    0.94
 -23   3   5   16.49    1.16
  23   3  -5   15.39    0.86
  23   3  -5   16.55    1.01
 -21  -3   5    0.40    0.43
 -21  -3   5   -0.13    0.52
 -21  -3   5    0.45    0.40
 -21  -3   5   -0.30    0.38
  21   3  -5    0.22    0.38
  21   3  -5    0.33    0.41
 -21   3   5    0.33    0.50
 -21   3   5   -0.69    0.62
 -19  -3   5   30.02    1.27
 -19  -3   5   30.75    1.26
 -19  -3   5   29.37    1.23
 -19  -3   5   34.21    1.70
 -19   3   5   30.88    1.55
 -19   3   5   29.63    1.70
  19   3  -5   28.25    1.15
 -19   3   5   29.07    1.51
  19   3  -5   29.03    1.35
 -17  -3   5   18.59    0.96
 -17  -3   5   19.45    1.25
 -17  -3   5   18.62    0.94
 -17  -3   5   19.63    1.03
 -17   3   5   19.65    1.38
  17   3  -5   19.02    1.04
 -17   3   5   21.82    1.23
  17   3  -5   19.37    0.91
 -15  -3   5   49.83    1.74
 -15  -3   5   52.36    1.89
 -15  -3   5   51.47    2.34
 -15  -3   5   49.09    1.77
 -15   3   5   49.42    2.09
  15   3  -5   46.52    1.63
  15   3  -5   47.56    1.89
 -15   3   5   43.89    2.32
 -13  -3   5   15.96    0.93
 -13  -3   5   16.32    0.85
 -13  -3   5   17.50    0.95
 -13  -3   5   16.32    1.12
  13   3  -5   15.66    0.90
 -13   3   5   14.90    1.02
 -11  -3   5   57.95    2.02
 -11  -3   5   62.90    2.69
 -11  -3   5   61.91    2.17
  11   3  -5   63.22    2.38
 -11   3   5   61.63    2.55
  -9  -3   5   70.51    2.98
  -9  -3   5   68.25    2.40
  -9   3   5   59.77    2.45
   9   3  -5   59.73    2.29
  -7  -3   5  105.05    3.45
  -7  -3   5  105.58    4.30
   7   3  -5  114.80    3.94
  -7   3   5  105.15    4.16
  -5  -3   5   66.16    2.31
  -5  -3   5   66.52    2.85
   5   3  -5   60.64    2.30
  -3  -3   5   12.95    0.99
  -3  -3   5   13.64    0.84
   3   3  -5   12.25    0.80
  -1  -3   5    7.00    0.80
  -1   3   5    6.53    0.87
   1   3  -5    7.10    0.66
   1  -3   5    5.24    0.75
  -1   3  -5    4.45    0.59
   3  -3   5   13.10    0.96
   3  -3   5   12.89    0.81
   3   3   5   13.57    0.67
  -3   3  -5   13.26    0.85
   5  -3   5   29.85    1.26
   5  -3   5   30.01    1.57
   5  -3   5   30.13    1.23
   5   3   5   23.40    1.49
   5   3   5   24.29    1.02
   7  -3   5   37.51    1.88
   7  -3   5   39.58    1.48
   7  -3   5   40.19    1.49
   7   3   5   33.18    1.86
   7   3   5   37.17    1.41
   9  -3   5   13.27    0.84
   9  -3   5   12.97    0.88
   9  -3   5   13.28    1.02
   9   3   5   13.02    0.75
  -9   3  -5   12.72    0.70
   9   3   5   12.22    1.10
  11  -3   5   17.62    0.98
  11  -3   5   17.37    0.96
  11   3   5   14.54    0.83
 -11   3  -5   15.29    0.77
  11   3   5   13.12    1.16
  13  -3   5   10.71    0.83
  13  -3   5   10.08    0.83
  13   3   5    8.32    1.25
  13   3   5    7.49    0.98
  13   3   5    8.75    0.71
 -13   3  -5    7.89    0.74
  13   3   5    8.80    0.70
 -13   3  -5    7.89    0.61
  15  -3   5    4.39    0.56
  15  -3   5    3.73    0.55
 -15   3  -5    1.86    0.36
  15   3   5    3.00    0.50
  15   3   5    2.10    0.79
 -15   3  -5    3.49    0.53
  15   3   5    1.55    0.44
  17  -3   5    3.18    0.53
  17  -3   5    3.84    0.56
 -17   3  -5    4.13    0.56
  17   3   5    2.87    0.52
  17   3   5    3.59    0.51
 -17   3  -5    3.77    0.55
  17   3   5    2.32    0.82
  19  -3   5   33.47    1.39
  19  -3   5   31.05    1.41
  19   3   5   26.89    1.31
  19   3   5   25.44    1.22
  19   3   5   25.55    1.85
 -19   3  -5   25.29    1.28
  21  -3   5   43.90    1.75
  21  -3   5   44.40    1.71
  21   3   5   41.89    1.69
  21   3   5   38.70    1.77
  21   3   5   40.15    2.32
  23  -3   5   30.02    1.39
  23  -3   5   32.84    1.45
  23   3   5   23.08    1.86
  23   3   5   24.46    1.33
  23   3   5   26.48    1.27
 -23   3  -5   25.82    1.29
  25  -3   5   17.07    1.06
  25  -3   5   15.51    1.09
 -25   3  -5   17.49    1.08
  25   3   5   16.19    1.08
  25   3   5   16.87    1.63
  25   3   5   16.32    1.11
  27  -3   5   32.48    1.40
  27  -3   5   30.31    1.46
 -27   3  -5   23.52    1.29
  27   3   5   23.14    1.32
  27   3   5   26.04    1.32
  27   3   5   23.80    1.86
  29  -3   5    5.64    0.66
  29  -3   5    5.98    0.93
  29   3   5    6.04    1.07
  29   3   5    6.68    0.93
  31  -3   5   14.94    1.10
  31  -3   5   14.76    1.05
  31   3   5   13.84    1.68
  31   3   5   16.00    1.12
  33  -3   5    9.28    0.97
  33   3   5    7.58    1.48
  33   3   5    6.98    0.94
  35  -3   5    1.00    0.54
  35   3   5    1.16    0.90
  35   3   5    0.99    0.56
 -35   3  -5    0.29    0.59
  37  -3   5    8.60    0.88
  37   3   5    6.64    1.06
  37   3   5    7.39    0.91
  39  -3   5    2.83    0.54
  39   3   5    4.38    0.95
  39   3   5    5.44    0.83
  41  -3   5    2.73    0.63
  41  -3   5    0.81    0.45
  41   3   5    0.53    0.78
  41   3   5    0.69    0.51
  43  -3   5    3.03    0.58
  43  -3   5    2.26    0.44
  43   3   5    1.89    0.50
 -46  -4   5    1.02    0.48
 -46   4   5    0.52    0.34
 -44  -4   5   11.53    0.92
 -44   4   5    9.95    0.69
 -42  -4   5    8.94    0.94
 -42   4   5    8.53    0.71
 -40  -4   5    9.47    1.06
 -40  -4   5    8.87    1.04
 -40   4   5    7.45    0.67
 -38  -4   5    1.81    0.61
 -38  -4   5    2.09    0.67
 -38   4   5    2.31    0.42
 -36  -4   5   11.88    1.18
 -36  -4   5   11.18    1.15
 -36   4   5   10.06    0.73
 -34  -4   5    2.31    0.70
 -34  -4   5    2.96    0.64
 -34  -4   5    2.72    0.58
 -34   4   5    2.52    0.41
 -32  -4   5   23.62    1.44
 -32  -4   5   24.37    1.20
 -32  -4   5   24.77    1.54
 -32   4   5   17.29    0.88
 -30  -4   5   -0.25    0.49
 -30  -4   5    0.61    0.61
 -30  -4   5    1.58    0.74
 -30   4   5    0.49    0.35
 -28  -4   5    9.58    0.89
 -28  -4   5    7.56    0.93
 -28  -4   5   10.85    1.17
 -28  -4   5   10.26    1.25
  28   4  -5    6.79    0.92
 -28   4   5    6.52    0.62
 -26  -4   5    0.67    0.64
 -26  -4   5    1.79    0.51
  26   4  -5    0.70    0.54
 -24  -4   5    8.17    0.90
 -24  -4   5    7.69    1.10
 -24  -4   5    8.15    0.84
 -24   4   5    7.89    1.19
  24   4  -5    8.51    0.91
 -22  -4   5   33.12    1.93
 -22  -4   5   34.80    1.43
 -22  -4   5   34.00    1.41
 -22   4   5   30.08    1.84
  22   4  -5   27.76    1.43
 -20  -4   5   45.01    1.66
 -20  -4   5   43.76    1.68
 -20  -4   5   40.75    2.23
  20   4  -5   33.36    1.58
 -20   4   5   35.60    2.03
  20   4  -5   34.14    1.55
 -18  -4   5   18.64    1.40
 -18  -4   5   19.57    1.05
 -18  -4   5   18.64    1.06
  18   4  -5   15.34    1.03
 -18   4   5   14.48    1.33
  18   4  -5   12.51    0.96
 -16  -4   5    2.25    0.49
 -16  -4   5    1.49    0.68
 -16  -4   5    2.24    0.60
 -16  -4   5    2.36    0.52
  16   4  -5    1.59    0.53
 -16   4   5    1.50    0.71
  16   4  -5    0.93    0.48
 -14  -4   5   17.96    1.12
 -14  -4   5   18.45    1.34
 -14  -4   5   19.47    1.02
 -14  -4   5   17.43    1.00
  14   4  -5   19.12    1.11
  14   4  -5   17.69    1.05
 -14   4   5   17.35    1.27
 -14   4   5   15.59    1.40
 -12  -4   5   16.02    0.97
 -12  -4   5   15.69    1.25
 -12  -4   5   16.55    0.97
 -12  -4   5   15.66    1.05
 -12   4   5   14.62    1.39
  12   4  -5   17.07    1.04
 -12   4   5   17.22    1.08
 -12   4   5   18.10    1.26
  12   4  -5   18.64    1.08
 -10  -4   5   11.37    1.11
 -10  -4   5   11.40    0.86
 -10  -4   5   10.28    0.83
 -10  -4   5    9.16    0.94
 -10  -4   5   10.57    0.84
 -10   4   5    9.99    1.05
  10   4  -5    8.97    0.83
 -10   4   5   10.00    1.19
  10   4  -5    9.25    0.87
 -10   4   5    9.02    0.89
  -8  -4   5   19.31    1.02
  -8  -4   5   18.51    1.32
  -8  -4   5   19.85    1.17
  -8  -4   5   18.68    1.04
  -8  -4   5   18.26    1.02
  -8   4   5   15.30    1.17
  -8   4   5   16.25    1.01
   8   4  -5   16.21    1.01
   8   4  -5   15.56    1.01
  -8   4   5   14.21    1.33
  -6  -4   5    9.60    0.80
  -6  -4   5   10.32    0.81
  -6  -4   5    8.32    0.93
  -6  -4   5    8.54    1.02
  -6  -4   5    8.67    0.83
  -6   4   5    8.92    1.04
   6   4  -5    9.37    0.84
  -6   4   5    8.04    1.12
  -6   4   5    6.99    0.83
   6   4  -5    8.61    0.83
  -4  -4   5    9.10    0.83
  -4  -4   5    9.21    0.81
  -4  -4   5    8.93    0.94
  -4  -4   5    7.96    0.76
  -4  -4   5    8.06    1.00
  -4   4   5    9.52    1.12
   4   4  -5    8.72    0.86
   4   4  -5    8.79    0.83
  -4   4   5   10.11    1.06
  -4   4   5    8.67    0.88
  -2  -4   5   14.27    0.92
  -2  -4   5   13.50    0.95
  -2  -4   5   14.47    1.02
  -2  -4   5   14.34    1.17
   2   4  -5   12.52    0.91
   2   4  -5   11.65    0.88
  -2   4   5   11.91    1.20
  -2   4   5   11.55    1.10
  -2   4   5   11.86    0.90
   0  -4   5    8.22    0.79
   0  -4   5    8.64    0.84
   0  -4   5    8.66    0.92
   0  -4   5    6.69    1.01
   0   4   5    8.58    1.03
   0   4  -5    6.38    0.78
   0   4   5    5.35    0.78
   0   4  -5    5.96    0.77
   0   4   5    9.26    1.11
   2  -4   5   60.57    2.12
   2  -4   5   59.62    2.12
   2  -4   5   58.64    2.77
  -2   4  -5   56.44    2.25
   2   4   5   59.15    2.52
   2   4   5   61.04    2.88
  -2   4  -5   60.07    2.37
   4  -4   5  102.86    3.39
   4  -4   5  101.83    4.44
   4  -4   5  109.85    3.43
   4   4   5   84.72    3.48
  -4   4  -5   91.28    3.21
   4   4   5   88.57    4.04
  -4   4  -5   93.05    3.38
   6  -4   5   10.43    0.88
   6  -4   5   10.64    0.90
   6  -4   5    8.40    1.07
   6   4   5    7.75    1.09
  -6   4  -5    8.36    0.79
  -6   4  -5    7.53    0.83
   6   4   5    7.55    1.10
   8  -4   5   16.48    1.05
   8  -4   5   16.20    1.29
   8  -4   5   15.91    1.02
  -8   4  -5   14.54    1.00
   8   4   5   12.68    1.23
   8   4   5   12.61    0.83
  -8   4  -5   14.24    0.93
   8   4   5   13.04    1.27
  10  -4   5    1.05    0.55
  10  -4   5    1.25    0.61
  10  -4   5    0.54    0.47
  10   4   5    0.51    0.73
 -10   4  -5    0.04    0.42
  10   4   5    0.23    0.39
  10   4   5    0.70    0.67
 -10   4  -5    0.12    0.47
  10   4   5    0.51    0.37
  12  -4   5   28.29    1.34
  12  -4   5   29.10    1.34
  12  -4   5   25.04    1.64
 -12   4  -5   26.37    1.27
  12   4   5   27.81    1.22
  12   4   5   24.83    1.65
  12   4   5   23.09    1.19
  12   4   5   25.71    1.57
  14  -4   5   13.66    1.02
  14  -4   5   10.89    1.14
  14  -4   5   12.93    1.03
 -14   4  -5   10.84    0.86
  14   4   5    8.61    0.81
  14   4   5    7.79    0.76
  16  -4   5    7.33    0.93
  16  -4   5    6.86    1.02
  16  -4   5    8.95    0.98
 -16   4  -5    7.81    0.82
  16   4   5    5.17    0.75
  16   4   5    5.71    0.80
  18  -4   5   40.47    1.70
  18  -4   5   39.77    1.69
  18   4   5   31.39    1.55
  18   4   5   36.92    1.55
 -18   4  -5   37.02    1.59
  20  -4   5   60.01    2.22
  20  -4   5   58.20    2.19
  20   4   5   40.45    1.89
 -20   4  -5   46.49    1.89
  20   4   5   48.27    1.86
  22  -4   5   57.22    2.17
  22  -4   5   57.55    2.14
 -22   4  -5   47.74    1.99
  22   4   5   48.47    1.97
  24  -4   5   56.05    2.08
  24  -4   5   55.44    2.12
  24   4   5   51.03    2.11
 -24   4  -5   54.97    2.14
  26  -4   5   53.55    2.35
  26  -4   5   60.78    2.18
  26  -4   5   56.87    2.10
  26   4   5   50.23    2.08
 -26   4  -5   51.98    2.07
  28  -4   5    2.51    0.63
  28  -4   5    3.81    0.63
  28  -4   5    3.12    0.72
 -28   4  -5    3.39    0.61
  28   4   5    3.93    0.64
  30  -4   5   10.23    0.97
  30  -4   5    9.63    1.05
  30  -4   5   11.65    1.00
 -30   4  -5   10.09    0.91
  30   4   5   10.27    1.00
  32  -4   5    7.79    1.03
  32  -4   5    8.12    0.86
  32  -4   5    7.88    0.92
 -32   4  -5    7.21    0.81
  32   4   5    8.80    0.92
  34  -4   5   34.97    1.47
  34  -4   5   33.19    1.56
  34   4   5   31.87    1.46
  36  -4   5    0.66    0.52
  36  -4   5    1.06    0.58
  36   4   5    1.19    0.51
  38  -4   5    6.27    0.76
  38   4   5    6.83    0.79
 -39  -5   5    7.07    0.84
 -39  -5   5    5.83    0.88
 -37  -5   5   10.86    1.00
 -37  -5   5   10.33    0.99
 -35  -5   5    3.02    0.64
 -35  -5   5    3.46    0.61
 -33  -5   5    2.89    0.66
 -33  -5   5    3.15    0.60
 -31  -5   5    8.73    1.14
 -31  -5   5    8.27    0.81
 -31  -5   5    8.01    1.06
 -29  -5   5   17.29    1.00
 -29  -5   5   16.96    1.26
 -29  -5   5   16.12    1.33
 -27  -5   5    7.57    1.17
 -27  -5   5    5.53    0.76
 -27  -5   5    5.61    0.82
 -25  -5   5   23.20    1.44
 -25  -5   5   23.13    1.15
 -25   5   5   23.57    1.31
 -25   5   5   19.83    1.61
  25   5  -5   21.62    1.39
 -23  -5   5    1.23    0.48
 -23  -5   5    1.30    0.60
  23   5  -5    0.48    0.55
 -23   5   5    1.29    0.79
 -23   5   5    0.79    0.65
 -21  -5   5   10.36    0.89
 -21  -5   5   10.90    0.97
 -21   5   5    7.40    1.29
 -21   5   5    9.68    1.07
  21   5  -5    9.12    0.95
 -19  -5   5    0.73    0.50
 -19  -5   5    0.30    0.54
  19   5  -5    0.55    0.53
 -19   5   5    0.43    0.79
 -19   5   5    0.87    0.64
 -17  -5   5    2.32    0.57
 -17  -5   5    2.35    0.59
  17   5  -5    3.95    0.63
 -17   5   5    5.91    1.25
 -17   5   5    3.15    0.69
 -15  -5   5   46.97    1.81
 -15  -5   5   47.95    1.82
  15   5  -5   41.33    1.84
 -15   5   5   45.85    1.89
 -15   5   5   39.90    2.37
 -13  -5   5    7.73    1.03
 -13  -5   5    8.50    0.87
 -13  -5   5   10.06    1.02
  13   5  -5    7.59    0.92
 -13   5   5   10.51    1.35
 -11  -5   5    5.86    0.85
 -11  -5   5    5.62    0.84
 -11  -5   5    7.50    0.98
  11   5  -5    3.10    0.59
 -11   5   5    6.62    1.26
  11   5  -5    3.56    0.65
  -9  -5   5   31.19    1.58
  -9  -5   5   31.18    1.43
  -9  -5   5   31.95    1.47
  -9   5   5   26.26    1.90
   9   5  -5   31.83    1.48
   9   5  -5   26.67    1.47
  -7  -5   5   11.45    0.95
  -7  -5   5   11.61    1.17
  -7  -5   5   12.76    1.05
  -7   5   5    9.78    1.32
   7   5  -5    9.70    0.96
   7   5  -5    7.40    0.92
  -5  -5   5   20.62    1.40
  -5  -5   5   24.14    1.23
  -5  -5   5   21.31    1.20
  -5   5   5   17.02    1.54
   5   5  -5   16.16    1.16
   5   5  -5   18.41    1.14
  -3  -5   5   21.30    1.24
  -3  -5   5   23.77    1.27
  -3  -5   5   26.04    1.42
   3   5  -5   17.41    1.24
  -3   5   5   21.78    1.48
  -3   5   5   23.40    1.68
   3   5  -5   20.81    1.21
  -1  -5   5   32.51    1.61
  -1  -5   5   29.87    1.43
  -1  -5   5   30.80    1.44
   1   5  -5   28.59    1.48
  -1   5   5   27.19    1.87
   1   5  -5   28.86    1.41
  -1   5   5   27.54    1.68
   1  -5   5    6.58    0.93
   1  -5   5    7.84    1.10
   1  -5   5    8.76    0.98
  -1   5  -5    6.19    0.89
   1   5   5    7.65    1.27
  -1   5  -5    6.05    0.91
   1   5   5    7.05    1.15
   3  -5   5    6.04    0.75
   3  -5   5    6.96    1.06
   3  -5   5    6.24    0.76
  -3   5  -5    6.19    0.91
  -3   5  -5    4.65    0.73
   3   5   5    7.47    1.25
   3   5   5    5.44    0.91
   5  -5   5    6.19    0.93
   5  -5   5    5.09    0.72
   5  -5   5    7.06    1.03
   5   5   5    6.16    0.93
   5   5   5    4.27    0.75
   5   5   5    6.97    1.24
  -5   5  -5    5.00    0.88
   7  -5   5   14.49    1.21
   7  -5   5   13.62    1.05
   7  -5   5   14.53    1.06
   7   5   5   11.46    0.87
   7   5   5   11.76    1.28
  -7   5  -5   12.54    1.02
   7   5   5   11.89    1.36
   9  -5   5   12.20    1.15
   9  -5   5    9.86    1.02
   9  -5   5   11.85    1.03
   9   5   5   13.27    1.35
   9   5   5   11.57    1.28
   9   5   5   12.18    0.93
  -9   5  -5   12.93    1.04
  11  -5   5   17.74    1.19
  11  -5   5   19.32    1.20
  11   5   5   13.94    1.38
 -11   5  -5   15.85    1.10
  11   5   5   13.39    0.95
  13  -5   5   12.69    1.07
  13  -5   5   11.52    1.09
 -13   5  -5   11.45    1.01
  13   5   5   11.30    0.92
  15  -5   5   18.76    1.21
  15  -5   5   18.97    1.20
  15   5   5   17.52    1.08
 -15   5  -5   16.74    1.12
  17  -5   5    6.28    0.97
  17  -5   5    8.26    0.98
 -17   5  -5    7.43    0.89
  17   5   5    7.74    0.89
  19  -5   5    3.19    0.64
  19  -5   5    1.76    0.64
  19   5   5    1.72    0.54
 -19   5  -5    1.01    0.54
  21  -5   5   10.95    1.00
  21  -5   5   10.29    1.04
 -21   5  -5    9.71    0.89
  21   5   5    9.70    0.95
  23  -5   5    3.73    0.66
  23  -5   5    3.43    0.63
 -23   5  -5    5.27    0.79
  23   5   5    3.56    0.60
  25  -5   5    2.54    0.61
  25  -5   5    2.76    0.59
  25   5   5    2.58    0.57
 -25   5  -5    2.78    0.54
  27  -5   5    8.29    0.84
  27  -5   5    5.89    0.92
 -27   5  -5    6.48    0.80
  27   5   5    7.87    0.86
  29  -5   5    1.89    0.54
 -29   5  -5    2.05    0.48
  29   5   5    1.24    0.51
  31  -5   5   18.05    1.00
 -31   5  -5   14.01    0.88
  31   5   5   14.91    0.93
 -30  -6   5    7.10    0.89
 -28  -6   5   13.90    0.85
 -28  -6   5   13.99    1.06
 -28  -6   5   14.16    1.07
 -26  -6   5    1.05    0.60
 -26  -6   5    1.61    0.56
 -26  -6   5    0.50    0.42
 -24  -6   5    6.39    0.75
 -24  -6   5    5.50    0.69
 -24  -6   5    5.67    0.79
 -24   6   5    5.54    0.86
  24   6  -5    5.23    0.84
 -22  -6   5    9.60    0.81
 -22  -6   5    9.14    1.10
 -22   6   5    8.60    1.20
  22   6  -5    7.92    0.91
 -20  -6   5    1.04    0.46
 -20   6   5    1.23    0.79
  20   6  -5    0.64    0.54
 -18  -6   5    9.05    0.92
 -18  -6   5    9.40    0.83
 -18   6   5    7.93    1.23
  18   6  -5    5.80    0.89
 -16  -6   5    8.11    0.81
 -16  -6   5    8.26    0.90
  16   6  -5    6.85    0.89
 -16   6   5    5.86    1.25
 -14  -6   5    3.02    0.55
 -14  -6   5    4.57    0.63
 -14   6   5    3.17    0.90
  14   6  -5    2.68    0.58
 -12  -6   5   15.57    1.07
 -12  -6   5   15.42    1.01
 -12   6   5   14.43    1.47
  12   6  -5   14.59    1.04
 -10  -6   5   11.62    0.98
 -10  -6   5   10.81    0.91
  10   6  -5    7.22    0.94
 -10   6   5    9.15    1.31
  -8  -6   5   15.87    1.15
  -8  -6   5   13.13    0.96
  -8   6   5   21.52    1.57
   8   6  -5   14.25    1.11
  -6  -6   5   56.93    2.09
  -6  -6   5   56.15    2.26
  -6  -6   5   60.62    2.11
   6   6  -5   51.77    2.10
  -6   6   5   52.31    2.71
   6   6  -5   51.12    2.59
  -4  -6   5   33.94    1.50
  -4   6   5   22.09    1.68
   4   6  -5   22.84    1.58
   4   6  -5   21.95    1.28
  -2  -6   5   12.05    0.99
  -2  -6   5   14.09    1.07
  -2  -6   5   12.69    1.17
   2   6  -5   10.21    1.01
  -2   6   5    7.27    1.29
   0  -6   5    3.48    0.62
   0  -6   5    4.20    0.82
   0  -6   5    6.34    0.99
   0   6   5    6.64    1.22
   0   6  -5    3.58    0.67
   2  -6   5   25.98    1.24
   2  -6   5   23.37    1.42
   2  -6   5   24.01    1.26
  -2   6  -5   24.66    1.36
   2   6   5   24.94    1.74
   4  -6   5   21.05    1.16
   4  -6   5   20.42    1.36
   4  -6   5   20.00    1.17
  -4   6  -5   14.88    1.09
   4   6   5   16.43    1.46
   6  -6   5    0.64    0.60
   6  -6   5    2.63    0.77
   6  -6   5    1.05    0.57
   6   6   5    0.93    0.82
  -6   6  -5    0.13    0.53
   8  -6   5    6.77    1.02
   8  -6   5    6.23    0.86
   8  -6   5    4.81    0.69
   8   6   5    6.49    1.16
   8   6   5    5.08    0.72
  -8   6  -5    4.10    0.66
  10  -6   5    9.61    0.92
  10  -6   5    9.18    1.08
  10  -6   5    9.76    1.00
  10   6   5   10.88    0.81
 -10   6  -5   11.31    0.92
  12  -6   5    4.61    0.63
  12  -6   5    5.73    0.69
  12  -6   5    5.24    0.81
  12   6   5    4.31    0.70
 -12   6  -5    7.84    0.83
  14  -6   5    4.76    0.66
  14  -6   5    5.54    0.81
  14  -6   5    5.76    0.80
  14   6   5    4.30    0.69
 -14   6  -5    3.87    0.58
  16  -6   5    0.77    0.56
  16  -6   5    1.22    0.50
  16   6   5    1.20    0.43
 -16   6  -5    2.28    0.51
  18  -6   5   12.97    0.92
  18  -6   5   13.56    0.99
  18   6   5   11.64    0.82
 -18   6  -5   12.29    1.11
 -18   6  -5   12.27    0.89
  20  -6   5    6.10    0.76
  20  -6   5    3.79    0.57
 -20   6  -5    3.55    0.52
  20   6   5    3.33    0.48
 -20   6  -5    4.11    0.70
  22  -6   5    0.71    0.50
 -22   6  -5    0.80    0.42
  22   6   5    0.54    0.39
 -56   0   6    4.40    0.63
  56   0  -6    6.14    0.73
  54   0  -6    2.06    0.56
 -54   0   6    2.79    0.46
  52   0  -6    0.29    0.54
 -52   0   6    0.61    0.44
 -50   0   6    1.07    0.51
  50   0  -6    0.87    0.55
 -48   0   6   -0.59    0.65
 -48   0   6   -0.33    0.45
  48   0  -6   -0.17    0.55
 -46   0   6   10.67    0.90
 -46   0   6    8.38    1.11
  46   0  -6   11.49    0.99
  44   0  -6   41.64    1.65
 -44   0   6   40.99    1.68
 -44   0   6   34.63    2.01
 -42   0   6    3.19    0.78
 -42   0   6    1.93    0.59
 -42   0   6    2.50    0.52
  42   0  -6    3.88    0.61
 -40   0   6   11.96    1.21
 -40   0   6   13.44    0.92
  40   0  -6   12.46    0.95
 -40   0   6   14.16    1.05
 -38   0   6    1.51    0.69
  38   0  -6    3.11    0.54
 -38   0   6    3.21    0.59
 -38   0   6    0.97    0.45
 -36   0   6   14.61    0.92
 -36   0   6   15.46    1.00
 -36   0   6   12.77    1.14
  36   0  -6   13.49    0.89
 -34   0   6    0.43    0.39
  34   0  -6    0.14    0.43
 -34   0   6    0.42    0.48
 -34   0   6    0.07    0.54
 -34   0   6   -0.07    0.43
 -34   0   6    0.60    0.39
 -32   0   6    6.21    0.67
  32   0  -6    4.93    0.64
 -32   0   6    6.13    0.83
 -32   0   6    5.24    0.76
 -32   0   6    4.87    0.65
 -32   0   6    5.09    0.83
  30   0  -6    2.03    0.43
 -30   0   6    3.45    0.53
 -30   0   6    2.09    0.41
 -30   0   6    2.49    0.57
 -30   0   6    3.51    0.58
 -30   0   6    2.77    0.51
 -28   0   6    1.86    0.52
 -28   0   6    2.10    0.40
 -28   0   6    1.71    0.46
 -28   0   6    2.46    0.51
 -26   0   6   45.26    1.65
 -26   0   6   49.62    2.08
 -24   0   6   -0.10    0.37
 -22   0   6   12.76    0.86
 -20   0   6   44.66    1.89
 -18   0   6   21.40    1.12
 -18   0   6   23.50    1.12
 -16   0   6   84.66    3.35
 -16   0   6   83.22    3.22
 -14   0   6   32.25    1.41
 -14   0   6   33.38    1.45
 -12   0   6    9.05    0.65
 -10   0   6   59.37    2.34
  -8   0   6  149.47    5.47
  -6   0   6  175.89    6.39
  -4   0   6   28.48    1.27
  -2   0   6   19.22    0.94
  -2   0   6   17.71    0.79
   0   0   6   50.50    1.84
   0   0   6   50.23    2.03
   2   0   6   44.19    1.65
   2   0   6   44.34    1.83
   4   0   6   12.36    0.77
   4   0   6   11.27    0.65
   6   0   6   74.45    2.89
   6   0   6   75.00    2.68
   8   0   6    2.22    0.36
  10   0   6   10.02    0.67
 -10   0  -6   10.22    0.73
  12   0   6   28.69    1.22
 -12   0  -6   26.00    1.34
  14   0   6    0.04    0.32
  16   0   6   26.70    1.27
  18   0   6   23.78    1.22
  20   0   6   27.25    1.40
  20   0   6   29.91    1.46
  20   0   6   29.59    1.88
  22   0   6    2.41    0.56
  22   0   6    3.30    0.89
  22   0   6    2.45    0.56
  24   0   6   32.02    1.56
  24   0   6   31.92    2.03
  24   0   6   30.36    1.49
  26   0   6   31.23    1.54
  26   0   6   27.41    1.98
  26   0   6   27.73    1.43
  28   0   6    9.20    1.47
  28   0   6    8.53    1.01
  28   0   6    9.82    1.01
  30   0   6  110.80    4.78
  30   0   6  103.01    4.08
  30   0   6  110.43    3.92
  32   0   6   13.46    1.59
  32   0   6    9.43    1.06
  34   0   6    8.18    1.53
  36   0   6   17.34    1.72
  38   0   6    0.98    0.63
  38   0   6    2.01    0.90
  40   0   6    8.91    1.49
  40   0   6    7.76    1.00
  42   0   6   -1.59    0.74
  42   0   6   -0.34    0.59
  44   0   6    1.36    0.76
 -44   0  -6    0.28    0.38
  46   0   6    8.00    1.11
  55  -1  -6   13.85    0.92
  55   1  -6   11.92    0.85
 -55   1   6   13.69    0.80
  53  -1  -6    9.70    0.91
  53   1  -6   11.46    0.84
 -53   1   6   10.77    0.83
  51  -1  -6    6.61    0.90
  51   1  -6    4.23    0.59
 -51   1   6    3.97    0.70
  49  -1  -6    2.70    0.62
 -49  -1   6    4.12    0.58
 -49   1   6    2.04    0.74
  49   1  -6    2.18    0.60
 -49   1   6    2.95    0.52
  47  -1  -6   14.30    1.07
 -47  -1   6   13.27    1.10
 -47  -1   6   15.63    0.99
 -47   1   6   16.81    1.01
 -47   1   6   14.28    1.33
  47   1  -6   16.67    1.04
 -45  -1   6   18.12    1.08
  45  -1  -6   17.26    1.15
 -45  -1   6   16.75    1.15
 -45   1   6   14.89    1.36
  45   1  -6   17.09    1.10
 -45   1   6   17.17    1.04
 -43  -1   6    9.54    0.99
 -43  -1   6   10.93    0.90
  43  -1  -6    8.77    0.98
 -43   1   6    7.48    1.16
 -43   1   6    9.63    0.85
  43   1  -6   10.74    0.93
 -41  -1   6    2.50    0.54
 -41  -1   6    2.20    0.62
 -41  -1   6    0.94    0.60
  41  -1  -6    2.28    0.61
  41   1  -6    2.44    0.55
 -41   1   6    2.80    0.81
 -41   1   6    2.25    0.48
  39  -1  -6   21.72    1.22
 -39  -1   6   21.49    1.18
 -39  -1   6   22.19    1.26
 -39  -1   6   22.37    1.34
 -39   1   6   19.60    1.05
  39   1  -6   19.95    1.08
 -39   1   6   18.83    1.43
 -37  -1   6   17.64    1.21
 -37  -1   6   19.39    1.16
 -37  -1   6   17.12    1.06
 -37  -1   6   18.76    1.07
 -37   1   6   17.04    0.96
 -37   1   6   17.63    1.34
  37   1  -6   16.57    0.99
 -35  -1   6   17.00    1.13
 -35  -1   6   16.26    1.09
 -35  -1   6   16.51    1.02
 -35  -1   6   15.59    0.99
 -35   1   6   14.66    1.22
 -35   1   6   13.84    0.86
  35   1  -6   14.94    0.90
 -33  -1   6   38.39    1.73
 -33  -1   6   39.67    1.64
 -33  -1   6   38.37    1.53
 -33  -1   6   41.31    1.64
 -33   1   6   34.98    1.43
  33   1  -6   34.34    1.37
 -33   1   6   35.72    1.84
 -31  -1   6   60.08    2.22
 -31  -1   6   58.45    2.03
 -31  -1   6   57.95    2.28
 -31  -1   6   59.76    2.14
 -31   1   6   62.75    2.22
 -31   1   6   61.84    2.68
  31   1  -6   59.13    2.07
 -29  -1   6   34.12    1.75
 -29  -1   6   34.87    1.34
 -29  -1   6   35.25    1.44
 -29  -1   6   34.32    1.44
 -29  -1   6   34.19    1.55
  29   1  -6   32.36    1.27
 -29   1   6   35.76    1.72
 -29   1   6   32.34    1.33
 -27  -1   6   21.97    1.21
 -27  -1   6   23.69    1.10
 -27  -1   6   22.53    1.30
 -27  -1   6   23.11    1.02
  27   1  -6   21.51    0.97
 -27   1   6   22.42    1.29
 -25  -1   6   33.46    1.70
 -25  -1   6   39.70    1.79
 -25  -1   6   38.04    1.37
 -25  -1   6   37.95    1.48
 -25   1   6   34.72    1.67
 -23  -1   6   20.82    1.10
 -23  -1   6   21.07    0.94
 -23  -1   6   21.45    1.18
 -23   1   6   27.64    1.41
 -21  -1   6   21.63    1.10
 -21  -1   6   21.57    1.16
 -21   1   6   23.20    1.23
 -19  -1   6   53.64    2.19
 -19  -1   6   55.00    2.30
 -19   1   6   62.94    2.55
 -17  -1   6   27.51    1.29
 -17  -1   6   27.03    1.25
 -17   1   6   24.24    1.22
 -15  -1   6    5.62    0.56
 -15  -1   6    6.16    0.55
 -15   1   6    7.90    0.70
 -13  -1   6   46.13    1.96
 -13   1   6   40.57    1.74
 -11  -1   6  187.75    7.24
 -11   1   6  174.98    6.40
  -9  -1   6  137.02    5.32
  -9   1   6  138.13    5.11
  -7  -1   6  147.00    5.69
  -7   1   6  130.57    4.84
  -5  -1   6   20.40    0.97
  -5   1   6   19.58    1.00
  -5   1   6   19.10    0.77
  -3  -1   6  147.22    5.69
  -3   1   6  140.43    4.75
  -3   1   6  140.31    5.17
  -1  -1   6   23.13    1.05
  -1  -1   6   22.16    1.04
  -1   1   6   27.25    1.05
  -1   1   6   26.99    1.26
   1  -1   6   57.89    2.26
   1   1   6   56.55    2.29
   1   1   6   57.95    2.05
   3  -1   6   71.91    2.61
   3   1   6   63.27    2.48
   3   1   6   61.96    2.24
   5  -1   6  185.46    6.36
   5   1   6  187.88    6.28
   5   1   6  176.75    7.47
   5   1   6  188.83    6.74
  -7  -1  -6   68.48    3.03
   7  -1   6   72.55    2.60
   7   1   6   79.76    2.88
   7   1   6   81.01    3.12
   7   1   6   81.90    3.49
   9  -1   6    1.04    0.36
  -9  -1  -6    1.38    0.41
   9   1   6    1.29    0.48
   9   1   6    1.02    0.32
  11  -1   6   47.29    1.88
  11   1   6   42.20    1.67
  11   1   6   42.74    2.06
  13  -1   6   61.12    2.35
  13   1   6   63.99    2.35
  13   1   6   60.62    2.83
  15  -1   6  122.53    4.38
  15   1   6  117.80    4.03
  15   1   6  107.25    4.81
  17  -1   6   18.70    0.99
  17  -1   6   18.46    1.07
  17   1   6   20.33    1.07
  19  -1   6   39.42    1.50
  19  -1   6   39.76    1.75
  19   1   6   36.57    1.55
  19   1   6   35.95    2.14
  19   1   6   37.00    1.61
  21  -1   6    6.91    0.84
  21  -1   6    7.85    0.75
  21   1   6    8.59    1.38
  21   1   6    8.92    0.83
  21   1   6    7.44    0.81
  23  -1   6   11.59    1.00
  23  -1   6   12.40    0.86
  23   1   6   11.08    0.95
  23   1   6   10.61    0.90
  23   1   6   12.17    1.49
  25  -1   6    8.52    0.81
  25  -1   6    9.27    0.96
  25   1   6    4.79    0.84
  25   1   6    5.78    1.01
  25   1   6    5.47    0.83
  27  -1   6   75.61    3.05
  27  -1   6   78.14    2.61
  27   1   6   81.71    3.01
  27   1   6   78.52    3.18
  27   1   6   84.33    3.84
  29  -1   6   27.51    1.27
  29   1   6   28.76    1.54
  29   1   6   27.45    1.45
  29   1   6   32.09    2.12
  31  -1   6   20.27    1.09
  31   1   6   24.89    1.39
  31   1   6   24.08    1.96
  31   1   6   23.34    1.41
  33  -1   6    9.05    0.84
  33   1   6    8.24    0.99
  33   1   6   10.26    1.58
  35  -1   6   18.70    1.02
  35   1   6   16.67    1.19
  35   1   6   19.44    1.81
  37  -1   6    7.67    0.78
  37   1   6    7.54    1.02
  37   1   6    9.09    1.59
 -37   1  -6    8.26    0.79
 -39   1  -6   16.30    0.91
  39   1   6   18.72    1.77
  41  -1   6   15.79    1.15
 -41   1  -6   15.30    0.85
  41   1   6   18.12    1.64
  43  -1   6   32.57    1.51
  43   1   6   33.87    2.06
  45  -1   6    0.91    0.53
  45   1   6   -0.06    0.73
  54   2  -6    6.37    0.65
 -54   2   6    6.89    0.63
  52  -2  -6    5.25    0.62
 -52   2   6    4.56    0.63
  52   2  -6    4.40    0.66
 -50  -2   6    7.66    0.89
 -50   2   6    7.01    0.70
  50   2  -6    6.08    0.78
 -48  -2   6    2.06    0.59
  48   2  -6    0.67    0.49
 -48   2   6    1.44    0.73
 -48   2   6    1.31    0.43
 -46  -2   6    1.19    0.61
 -46   2   6    2.07    0.76
 -46   2   6    2.40    0.46
  46   2  -6    0.92    0.53
 -44  -2   6   15.87    1.18
 -44  -2   6   13.67    1.22
  44   2  -6   11.23    0.93
 -44   2   6   11.05    0.84
 -44   2   6   10.34    1.23
 -42  -2   6   18.29    1.31
 -42  -2   6   18.14    1.21
 -42   2   6   14.73    1.37
 -42   2   6   18.07    0.98
  42   2  -6   17.15    1.07
 -40  -2   6    2.04    0.62
 -40  -2   6    0.80    0.60
  40   2  -6    1.29    0.53
 -40   2   6    1.10    0.42
 -40   2   6    1.49    0.75
 -38  -2   6   48.75    2.10
 -38  -2   6   49.61    1.99
 -38   2   6   39.12    2.12
  38   2  -6   39.58    1.59
 -38   2   6   41.19    1.60
 -36  -2   6   23.86    1.37
 -36  -2   6   24.58    1.27
 -36  -2   6   27.96    1.47
 -36  -2   6   24.67    1.32
 -36  -2   6   21.91    1.64
  36   2  -6   22.42    1.13
 -36   2   6   19.95    1.49
 -36   2   6   21.49    1.05
 -34  -2   6    8.04    0.88
 -34  -2   6    8.23    1.04
 -34  -2   6    9.22    0.98
 -34  -2   6    7.64    1.10
  34   2  -6    6.85    0.73
 -34   2   6    7.04    0.66
 -34   2   6    7.67    1.06
 -32  -2   6    6.17    0.95
 -32  -2   6    7.54    0.83
 -32  -2   6    7.70    1.03
 -32  -2   6    5.95    0.97
 -32  -2   6    8.17    0.79
  32   2  -6    7.65    0.72
 -32   2   6    6.65    0.63
 -32   2   6    7.70    1.03
 -30  -2   6    3.43    0.71
 -30  -2   6    4.07    0.49
 -30  -2   6    3.24    0.65
 -30  -2   6    4.30    0.55
 -30  -2   6    3.09    0.58
 -30  -2   6    4.51    0.75
  30   2  -6    2.89    0.47
 -30   2   6    2.17    0.37
 -30   2   6    2.89    0.69
 -28  -2   6    3.96    0.69
 -28  -2   6    3.80    0.58
 -28  -2   6    5.79    0.64
 -28  -2   6    4.91    0.70
 -28  -2   6    4.97    0.55
 -28  -2   6    2.66    0.63
  28   2  -6    3.49    0.48
 -28   2   6    3.85    0.71
 -28   2   6    3.39    0.40
 -26  -2   6   -0.16    0.51
 -26  -2   6   -0.36    0.48
 -26  -2   6    0.20    0.38
 -26  -2   6    0.64    0.39
 -26   2   6    0.54    0.53
  26   2  -6    0.32    0.34
 -24  -2   6    2.15    0.39
 -24  -2   6    1.99    0.59
 -24  -2   6    1.03    0.49
 -24  -2   6    1.83    0.42
  24   2  -6    1.29    0.39
 -24   2   6    1.21    0.54
 -22  -2   6    2.63    0.54
 -22  -2   6    1.82    0.57
  22   2  -6    1.52    0.35
 -22   2   6    2.66    0.56
 -20  -2   6   35.29    1.71
 -20   2   6   36.06    1.71
 -18  -2   6    9.45    0.83
 -18   2   6    8.79    0.83
 -16  -2   6   24.36    1.30
 -16   2   6   23.16    1.27
 -14  -2   6  264.80   10.06
 -14  -2   6  255.08    8.01
 -14   2   6  268.04    9.61
  14   2  -6  260.55    8.98
 -12  -2   6    1.17    0.38
 -12  -2   6    1.64    0.40
  12   2  -6    2.42    0.40
 -12   2   6    1.42    0.44
 -10  -2   6   45.21    2.02
 -10  -2   6   46.71    1.68
 -10   2   6   48.08    2.07
  10   2  -6   49.51    1.89
  -8  -2   6   45.25    1.67
  -8  -2   6   46.40    2.01
   8   2  -6   44.32    1.70
  -8   2   6   41.17    1.83
  -6  -2   6    5.63    0.61
  -6  -2   6    4.76    0.59
  -6   2   6    3.34    0.59
   6   2  -6    4.75    0.53
  -4  -2   6   73.29    3.01
  -4  -2   6   72.90    2.45
  -4   2   6   75.02    2.93
   4   2  -6   74.52    2.71
  -2  -2   6  219.74    7.04
  -2  -2   6  236.35    8.83
   2   2  -6  212.15    7.24
  -2   2   6  211.82    7.71
   0  -2   6   27.01    1.31
   0  -2   6   26.36    1.11
   0   2  -6   22.14    1.03
   0   2   6   21.89    1.13
   2  -2   6   74.43    3.07
   2   2   6   69.36    3.11
   2   2   6   69.88    2.45
   2   2   6   69.55    2.74
   4  -2   6   45.03    1.98
   4   2   6   45.75    1.93
   4   2   6   45.47    1.69
   4   2   6   45.73    2.21
   6  -2   6   12.00    0.83
   6   2   6   10.97    1.01
   6   2   6   11.91    0.67
   6   2   6   11.82    0.81
   8  -2   6    8.29    0.72
   8   2   6    8.72    0.62
  10  -2   6    7.29    0.63
  10   2   6    7.45    0.63
  12  -2   6   13.56    0.77
  12  -2   6   14.45    0.87
 -12   2  -6   11.37    0.70
  12   2   6   11.97    0.78
  14  -2   6    5.28    0.71
  14  -2   6    5.33    0.62
  14   2   6    4.61    0.84
  14   2   6    4.32    0.65
 -14   2  -6    3.96    0.56
  16  -2   6    3.08    0.51
  16  -2   6    3.12    0.44
  16   2   6    2.29    0.46
  16   2   6    2.04    0.47
  16   2   6    2.35    0.78
 -16   2  -6    2.34    0.39
  18  -2   6    1.52    0.41
  18  -2   6    1.37    0.47
  18   2   6    1.68    0.44
  18   2   6    2.03    0.50
 -18   2  -6    1.11    0.38
  18   2   6    1.22    0.79
  20  -2   6   34.09    1.40
  20  -2   6   31.71    1.28
  20   2   6   33.05    1.52
  20   2   6   32.23    1.43
  20   2   6   31.15    2.06
 -20   2  -6   31.68    1.29
  22  -2   6   25.66    1.09
  22  -2   6   26.69    1.24
  22   2   6   25.96    1.93
 -22   2  -6   27.03    1.18
  22   2   6   25.75    1.30
  22   2   6   28.48    1.39
  24  -2   6    3.87    0.57
  24   2   6    4.29    0.66
  24   2   6    4.65    0.82
 -24   2  -6    5.24    0.70
  24   2   6    5.45    1.04
  26  -2   6    6.71    0.83
  26   2   6    6.85    0.87
 -26   2  -6    8.40    0.77
  26   2   6    7.35    0.90
  26   2   6    7.34    1.53
  28  -2   6   11.92    0.94
  28   2   6   12.87    1.66
 -28   2  -6   10.85    0.83
  28   2   6   10.91    0.97
  28   2   6   12.18    1.01
  30  -2   6    2.47    0.56
  30   2   6    3.23    0.62
  30   2   6    3.00    1.03
 -30   2  -6    1.75    0.46
  32  -2   6    7.80    0.88
  32   2   6    9.42    1.62
  32   2   6   11.42    1.04
 -32   2  -6    9.35    0.79
  34  -2   6   59.39    2.14
 -34   2  -6   61.97    2.11
  34   2   6   62.19    2.43
  34   2   6   62.19    3.16
  36  -2   6   12.99    0.92
  36   2   6   13.21    1.62
  36   2   6   12.40    1.04
  38  -2   6    0.48    0.47
  38  -2   6    1.67    0.66
  38   2   6    0.77    0.57
  38   2   6    1.76    0.92
  40  -2   6    2.25    0.66
  40  -2   6    1.32    0.44
  40   2   6    0.79    0.86
  40   2   6    2.51    0.58
  42  -2   6   -0.46    0.57
  42  -2   6    0.72    0.38
  42   2   6    0.12    0.80
  44  -2   6    6.47    0.81
  44   2   6    9.61    1.27
 -51   3   6    5.75    0.55
 -49  -3   6    0.57    0.49
  49   3  -6    0.23    0.39
 -49   3   6    1.25    0.36
 -47  -3   6    5.78    0.89
  47   3  -6    3.58    0.52
 -47   3   6    4.88    0.61
 -45  -3   6    9.31    0.98
 -45  -3   6    9.29    1.04
 -45   3   6   11.28    0.77
  45   3  -6   11.05    0.86
 -43  -3   6    9.87    1.09
 -43  -3   6   11.12    1.05
 -43   3   6    7.76    1.13
  43   3  -6    9.45    0.83
 -43   3   6    9.15    0.72
 -41  -3   6    8.06    1.06
 -41  -3   6    7.31    1.01
 -41   3   6    7.20    0.70
  41   3  -6    7.70    0.83
 -41   3   6    8.60    1.15
 -39  -3   6   12.96    1.10
 -39  -3   6   11.81    1.20
 -39  -3   6   13.27    1.15
 -39   3   6    9.86    0.74
  39   3  -6   10.25    0.88
 -39   3   6   10.18    1.19
 -37  -3   6    9.89    1.08
 -37  -3   6    9.05    1.18
 -37   3   6    9.81    1.16
  37   3  -6   10.25    0.85
 -37   3   6    7.91    0.72
 -35  -3   6   15.74    1.31
 -35  -3   6   19.61    1.12
 -35  -3   6   15.70    1.21
  35   3  -6   14.79    0.96
 -35   3   6   15.65    1.33
 -35   3   6   14.96    0.85
 -33  -3   6    9.15    0.96
 -33  -3   6   11.42    1.21
 -33  -3   6    9.21    0.83
 -33  -3   6   10.14    1.06
 -33   3   6    8.72    0.70
 -33   3   6    9.58    1.15
  33   3  -6    9.10    0.85
 -31  -3   6   12.81    1.10
 -31  -3   6   11.97    1.25
 -31  -3   6   14.27    0.99
 -31  -3   6   14.64    1.27
 -31  -3   6   14.13    0.90
 -31   3   6   11.49    0.76
  31   3  -6   13.75    0.88
 -31   3   6   13.33    1.22
 -29  -3   6    1.70    0.70
 -29  -3   6    1.03    0.66
 -29  -3   6    1.19    0.47
 -29  -3   6    1.64    0.50
 -29  -3   6    1.70    0.60
  29   3  -6    1.29    0.48
 -29   3   6    0.40    0.64
 -29   3   6    1.67    0.36
 -27  -3   6    7.65    0.74
 -27  -3   6    6.42    0.78
 -27  -3   6    8.31    1.04
 -27  -3   6    8.45    1.03
 -27  -3   6    6.72    1.13
  27   3  -6    7.00    0.73
 -27   3   6    6.98    1.02
 -25  -3   6   37.51    1.45
 -25  -3   6   35.77    1.67
 -25  -3   6   37.61    1.44
 -25  -3   6   36.03    1.96
 -25   3   6   35.17    1.81
  25   3  -6   33.87    1.36
 -23  -3   6   12.79    0.84
 -23  -3   6   12.68    0.84
 -23  -3   6   13.24    1.12
  23   3  -6   13.50    0.84
 -23   3   6   15.87    1.18
 -21  -3   6   59.24    2.71
 -21  -3   6   59.28    1.98
 -21  -3   6   59.45    2.01
 -21  -3   6   58.19    2.04
 -21   3   6   52.96    2.74
 -21   3   6   59.80    2.52
  21   3  -6   54.53    1.91
 -21   3   6   56.66    2.36
  21   3  -6   55.99    2.28
 -19  -3   6   11.62    0.79
 -19  -3   6   11.06    0.77
 -19  -3   6   10.16    1.01
 -19   3   6    9.81    1.13
 -19   3   6   10.67    1.01
  19   3  -6   10.77    0.73
 -19   3   6   10.30    0.99
  19   3  -6    9.95    0.82
 -17  -3   6    6.75    0.73
 -17  -3   6    8.28    0.71
 -17  -3   6    7.67    0.91
 -17  -3   6    8.20    0.73
  17   3  -6   10.22    0.69
 -17   3   6   10.40    0.98
 -17   3   6   10.10    1.12
  17   3  -6   10.48    0.78
 -17   3   6    9.33    0.95
 -15  -3   6   65.43    2.19
 -15  -3   6   65.89    2.86
 -15  -3   6   62.08    2.20
 -15  -3   6   65.48    2.31
 -15  -3   6   63.73    2.14
 -15   3   6   56.07    2.37
  15   3  -6   57.57    2.25
  15   3  -6   56.07    1.93
 -15   3   6   55.39    2.74
 -15   3   6   60.00    2.47
 -13  -3   6   15.66    0.92
 -13  -3   6   14.05    0.83
 -13  -3   6   13.47    0.85
 -13  -3   6   15.25    1.08
 -13  -3   6   14.73    0.86
 -13   3   6   14.93    1.23
  13   3  -6   12.62    0.74
 -13   3   6   13.67    1.03
  13   3  -6   13.09    0.88
 -13   3   6   15.22    1.08
 -11  -3   6   14.72    0.91
 -11  -3   6   13.80    0.79
 -11  -3   6   15.13    0.85
 -11  -3   6   14.77    1.05
 -11  -3   6   14.33    0.83
 -11   3   6   15.19    1.01
 -11   3   6   14.35    1.23
  11   3  -6   14.27    0.76
  11   3  -6   14.07    0.90
  -9  -3   6   26.03    1.12
  -9  -3   6   28.50    1.46
  -9  -3   6   26.70    1.09
  -9  -3   6   26.12    1.15
  -9  -3   6   26.81    1.24
  -9   3   6   24.42    1.56
   9   3  -6   24.68    1.01
   9   3  -6   23.86    1.18
  -9   3   6   25.55    1.32
  -7  -3   6    2.63    0.42
  -7  -3   6    2.83    0.49
  -7  -3   6    2.44    0.41
  -7  -3   6    3.79    0.71
   7   3  -6    2.75    0.38
  -7   3   6    2.82    0.52
   7   3  -6    2.44    0.46
  -5  -3   6  100.74    3.25
  -5  -3   6   98.06    3.22
  -5  -3   6  105.79    4.23
  -5  -3   6  106.74    3.42
   5   3  -6  101.98    3.16
  -5   3   6   99.90    4.43
  -5   3   6   98.87    3.88
   5   3  -6  103.03    3.66
  -3  -3   6   41.98    1.91
  -3  -3   6   40.63    1.46
  -3  -3   6   37.66    1.55
  -3  -3   6   37.41    1.41
   3   3  -6   29.97    1.36
  -3   3   6   30.93    1.74
   3   3  -6   30.39    1.15
  -3   3   6   29.31    1.44
  -1  -3   6   93.18    3.06
  -1  -3   6  101.44    4.04
  -1  -3   6   96.80    3.09
  -1  -3   6   96.33    3.22
   1   3  -6   94.51    3.38
  -1   3   6   90.11    4.09
   1   3  -6   93.39    2.92
   1  -3   6    6.51    0.81
   1  -3   6    6.04    0.69
   1  -3   6    6.26    0.74
   1  -3   6    6.31    0.68
   1  -3   6    6.57    0.65
   1   3   6    6.24    0.96
  -1   3  -6    6.12    0.55
  -1   3  -6    5.20    0.64
   3  -3   6   34.51    1.34
   3  -3   6   35.62    1.75
   3  -3   6   34.04    1.37
   3  -3   6   35.59    1.39
  -3   3  -6   32.05    1.21
   3   3   6   30.06    1.76
  -3   3  -6   33.76    1.45
   5  -3   6   13.13    1.02
   5  -3   6   13.60    0.85
   5  -3   6   12.11    0.82
   5  -3   6   12.74    0.82
  -5   3  -6   11.88    0.84
  -5   3  -6   11.77    0.68
   5   3   6   11.21    1.08
   5   3   6   11.22    0.65
   7  -3   6    6.07    0.71
   7  -3   6    5.87    0.81
   7  -3   6    7.37    0.72
   7  -3   6    5.39    0.69
   7   3   6    4.33    0.52
   7   3   6    4.28    0.76
  -7   3  -6    4.37    0.54
   9  -3   6   12.62    0.85
   9  -3   6    9.83    0.90
   9  -3   6   12.17    1.00
   9  -3   6   12.80    0.85
   9  -3   6   12.62    0.84
   9   3   6   11.55    0.73
   9   3   6   10.36    1.13
   9   3   6   10.16    0.77
  -9   3  -6   11.96    0.71
  11  -3   6    2.56    0.56
  11  -3   6    3.89    0.54
  11  -3   6    4.23    0.78
  11  -3   6    2.64    0.49
  11  -3   6    2.26    0.49
  11   3   6    3.29    0.47
 -11   3  -6    2.03    0.38
  11   3   6    3.79    0.73
  11   3   6    3.04    0.46
  13  -3   6   39.44    1.54
  13  -3   6   35.96    1.90
  13  -3   6   38.84    1.52
  13  -3   6   36.35    1.64
  13  -3   6   38.88    1.49
  13   3   6   28.90    1.78
 -13   3  -6   33.49    1.25
  13   3   6   32.38    1.41
  13   3   6   32.69    1.35
  15  -3   6   26.30    1.36
  15  -3   6   23.86    1.50
  15  -3   6   25.44    1.23
  15  -3   6   27.05    1.19
  15  -3   6   27.54    1.24
  15   3   6   21.09    1.11
  15   3   6   21.73    1.09
  15   3   6   21.82    1.68
 -15   3  -6   22.10    0.98
  17  -3   6   85.82    2.84
  17  -3   6   84.40    3.06
  17  -3   6   88.74    2.92
  17   3   6   75.62    2.74
 -17   3  -6   78.20    2.49
  17   3   6   75.80    3.56
  17   3   6   74.51    2.87
  19  -3   6   27.10    1.31
  19  -3   6   25.25    1.22
  19   3   6   18.00    1.72
 -19   3  -6   21.47    0.98
  19   3   6   21.83    1.19
  19   3   6   21.89    1.15
  21  -3   6   48.54    1.91
  21  -3   6   48.42    1.81
  21   3   6   44.13    1.99
 -21   3  -6   49.10    1.69
  21   3   6   47.14    2.60
  21   3   6   48.70    1.92
  23  -3   6   19.19    1.18
  23  -3   6   18.71    1.08
  23   3   6   15.27    1.03
  23   3   6   12.36    1.01
  23   3   6   13.80    1.58
  25  -3   6    7.81    0.90
  25  -3   6    7.43    0.94
  25   3   6    5.46    1.05
  25   3   6    7.43    0.92
  27  -3   6    5.96    0.91
  27   3   6    4.33    1.01
  27   3   6    5.68    0.91
  29  -3   6    0.19    0.53
  29   3   6   -0.34    0.51
  29   3   6   -1.57    0.81
  31  -3   6   15.51    1.25
  31  -3   6   13.23    1.03
  31   3   6   11.28    0.99
  31   3   6   11.04    1.57
  33  -3   6   11.61    1.16
  33  -3   6   11.04    0.94
  33   3   6   11.94    1.56
  33   3   6   11.73    1.01
  35  -3   6    5.07    0.77
  35  -3   6    5.00    0.62
  35   3   6    4.73    0.97
  35   3   6    7.12    0.91
  37  -3   6    9.42    0.84
  37  -3   6   10.91    1.07
  37   3   6    8.86    1.38
  37   3   6    8.39    0.92
  39  -3   6    2.38    0.61
  39  -3   6    2.83    0.48
  39   3   6    3.08    0.54
  41  -3   6    4.49    0.61
  41   3   6    4.05    0.72
 -46  -4   6    1.55    0.50
 -46   4   6    1.31    0.32
 -44  -4   6   15.44    1.03
 -44   4   6   12.83    0.72
 -42  -4   6   26.21    1.30
 -42  -4   6   24.53    1.29
 -42   4   6   22.17    0.99
 -40  -4   6   26.34    1.46
 -40  -4   6   30.76    1.41
 -40  -4   6   29.40    1.46
 -40   4   6   24.10    1.05
 -38  -4   6   15.49    1.14
 -38  -4   6   12.38    1.19
 -38   4   6   10.91    0.69
 -38   4   6    9.06    1.26
 -36  -4   6   17.82    1.31
 -36  -4   6   17.34    1.24
 -36   4   6   13.49    0.76
 -36   4   6   12.84    1.26
 -34  -4   6    2.08    0.51
 -34  -4   6    3.59    0.77
 -34  -4   6    2.89    0.62
 -34   4   6    1.55    0.78
 -34   4   6    2.50    0.38
 -32  -4   6    1.68    0.52
 -32  -4   6    1.24    0.58
 -32  -4   6    1.56    0.72
 -32   4   6   -0.39    0.71
  32   4  -6    1.21    0.52
 -30  -4   6   12.39    1.17
 -30  -4   6   11.27    0.90
 -30  -4   6   11.95    1.30
 -30  -4   6   12.39    0.96
  30   4  -6   10.20    0.86
 -28  -4   6   28.00    1.66
 -28  -4   6   27.57    1.30
 -28  -4   6   26.77    1.49
 -28  -4   6   26.54    1.27
  28   4  -6   23.06    1.15
 -26  -4   6   45.49    2.08
 -26  -4   6   42.18    1.68
 -26  -4   6   44.20    1.94
 -26  -4   6   44.45    1.71
  26   4  -6   44.99    1.70
 -24  -4   6    5.87    0.79
 -24  -4   6    6.65    0.70
 -24   4   6    6.19    1.16
  24   4  -6    6.23    0.74
 -22  -4   6   12.24    0.87
 -22  -4   6   11.17    0.88
 -22  -4   6    9.23    1.16
 -22  -4   6   11.29    0.89
  22   4  -6    9.27    0.92
 -22   4   6    9.27    1.27
  22   4  -6   10.86    0.83
 -20  -4   6   -0.04    0.45
 -20  -4   6    0.38    0.62
 -20  -4   6    0.77    0.48
 -20  -4   6   -0.14    0.48
 -20   4   6    0.23    0.70
  20   4  -6    0.54    0.45
  20   4  -6    0.45    0.47
 -18  -4   6   15.14    0.96
 -18  -4   6   14.83    1.27
 -18  -4   6   13.51    0.96
  18   4  -6   15.65    0.90
  18   4  -6   14.09    1.04
 -18   4   6   14.95    1.40
 -16  -4   6   13.79    0.93
 -16  -4   6   14.31    1.24
 -16  -4   6   14.28    1.06
 -16  -4   6   14.60    0.96
  16   4  -6   10.52    0.90
 -16   4   6   10.54    1.27
 -16   4   6   11.84    1.00
 -16   4   6   10.52    1.13
  16   4  -6    9.54    0.79
 -14  -4   6    8.28    0.94
 -14  -4   6    8.05    1.05
 -14  -4   6    7.96    0.80
 -14  -4   6    7.56    0.84
 -14   4   6    9.83    1.25
  14   4  -6    8.43    0.84
 -14   4   6   10.51    1.12
 -14   4   6    9.00    0.94
  14   4  -6    9.12    0.73
 -12  -4   6   20.99    1.43
 -12  -4   6   20.24    1.20
 -12  -4   6   20.29    1.11
 -12  -4   6   22.09    1.06
 -12  -4   6   21.03    1.11
 -12   4   6   20.50    1.18
  12   4  -6   21.45    1.22
  12   4  -6   19.89    0.99
 -12   4   6   20.11    1.57
  12   4  -6   20.74    1.18
 -12   4   6   18.62    1.33
 -10  -4   6    2.43    0.49
 -10  -4   6    1.94    0.51
 -10  -4   6    2.25    0.63
 -10  -4   6    2.10    0.66
 -10  -4   6    1.81    0.51
  10   4  -6    1.84    0.41
 -10   4   6    1.38    0.74
  10   4  -6    2.38    0.55
 -10   4   6    2.63    0.69
  10   4  -6    1.53    0.55
 -10   4   6    1.98    0.56
  -8  -4   6   41.49    1.62
  -8  -4   6   41.41    2.15
  -8  -4   6   42.48    1.66
  -8  -4   6   43.52    1.82
  -8  -4   6   43.26    1.65
   8   4  -6   37.29    1.68
  -8   4   6   40.12    1.66
  -8   4   6   37.34    1.88
   8   4  -6   38.21    1.74
  -8   4   6   39.68    2.20
   8   4  -6   38.88    1.45
  -6  -4   6   43.95    1.64
  -6  -4   6   43.44    2.19
  -6  -4   6   41.86    1.67
  -6  -4   6   44.02    1.67
  -6  -4   6   45.33    1.86
   6   4  -6   42.02    1.83
   6   4  -6   38.70    1.74
   6   4  -6   41.64    1.52
  -6   4   6   41.12    1.99
  -6   4   6   42.93    2.30
  -6   4   6   41.60    1.72
  -4  -4   6   19.35    1.09
  -4  -4   6   19.49    1.38
  -4  -4   6   22.22    1.10
  -4  -4   6   22.85    1.26
  -4  -4   6   20.72    1.10
  -4   4   6   20.10    1.50
   4   4  -6   17.00    1.05
   4   4  -6   17.00    1.10
  -4   4   6   16.87    1.06
  -4   4   6   16.68    1.29
   4   4  -6   17.82    0.92
  -2  -4   6   27.83    1.27
  -2  -4   6   30.29    1.26
  -2  -4   6   28.10    1.29
  -2  -4   6   29.50    1.45
  -2  -4   6   28.22    1.66
  -2   4   6   32.47    1.68
  -2   4   6   28.35    1.38
   2   4  -6   29.16    1.44
   2   4  -6   30.05    1.50
  -2   4   6   33.66    1.91
   0  -4   6   71.00    2.56
   0  -4   6   66.33    2.36
   0  -4   6   69.06    2.39
   0  -4   6   67.54    3.12
   0  -4   6   71.62    2.36
   0   4  -6   65.16    2.56
   0   4  -6   69.12    2.69
   0   4   6   72.68    3.28
   0   4   6   67.39    2.83
   0   4   6   65.78    2.44
   2  -4   6   67.18    3.23
   2  -4   6   74.72    2.47
   2  -4   6   71.20    2.48
   2  -4   6   75.79    2.64
  -2   4  -6   64.98    2.49
   2   4   6   67.99    2.76
  -2   4  -6   62.77    2.59
   2   4   6   68.72    3.18
   2   4   6   62.77    2.35
   4  -4   6   66.91    2.49
   4  -4   6   66.33    2.30
   4  -4   6   64.86    3.06
   4  -4   6   68.40    2.35
   4   4   6   54.52    2.80
   4   4   6   57.66    2.50
  -4   4  -6   59.72    2.25
  -4   4  -6   54.36    2.30
   6  -4   6    2.70    0.74
   6  -4   6    2.59    0.55
   6  -4   6    1.81    0.52
  -6   4  -6    2.67    0.54
   6   4   6    1.60    0.81
   6   4   6    2.54    0.77
  -6   4  -6    1.90    0.54
   8  -4   6    8.47    1.08
   8  -4   6    8.68    0.91
   8  -4   6    9.50    0.93
   8   4   6    9.00    0.74
   8   4   6    9.71    1.21
  -8   4  -6    8.61    0.86
   8   4   6    6.72    1.17
  -8   4  -6   10.20    0.89
  10  -4   6    5.09    0.97
  10  -4   6    4.83    0.64
  10  -4   6    5.46    0.66
 -10   4  -6    1.84    0.55
  10   4   6    5.36    0.91
 -10   4  -6    3.05    0.58
  10   4   6    2.90    0.81
  10   4   6    2.44    0.50
  12  -4   6   30.23    1.39
  12  -4   6   25.46    1.69
  12  -4   6   30.24    1.40
  12   4   6   25.10    1.19
  12   4   6   25.09    1.61
 -12   4  -6   24.85    1.33
 -12   4  -6   24.86    1.30
  12   4   6   22.62    1.63
  14  -4   6   12.98    1.05
  14  -4   6   13.32    1.05
 -14   4  -6    9.61    0.89
 -14   4  -6    8.56    0.90
  14   4   6    9.62    1.26
  14   4   6    9.67    0.85
  16  -4   6    7.85    0.96
  16  -4   6    8.91    0.97
 -16   4  -6    8.30    0.88
  16   4   6    7.47    0.76
 -16   4  -6    8.28    0.89
  16   4   6    7.93    0.85
  18  -4   6    2.77    0.62
  18  -4   6    1.68    0.57
 -18   4  -6    1.81    0.54
  18   4   6    1.47    0.51
  20  -4   6   31.02    1.46
  20  -4   6   27.73    1.37
 -20   4  -6   24.61    1.30
  20   4   6   24.49    1.30
  22  -4   6   21.70    1.28
  22  -4   6   23.33    1.22
  22   4   6   18.65    1.15
 -22   4  -6   18.22    1.15
  24  -4   6   16.70    1.08
  24  -4   6   14.83    1.28
  24  -4   6   16.50    1.14
  24   4   6   16.35    1.11
  26  -4   6   29.05    1.51
  26  -4   6   31.03    1.46
  26   4   6   26.56    1.38
  28  -4   6    9.16    1.03
  28  -4   6    8.76    0.98
  28   4   6    8.01    0.92
  30  -4   6   15.44    1.05
  30  -4   6   14.41    1.12
  30   4   6   10.18    0.94
  32  -4   6    4.90    0.71
  32  -4   6    7.89    0.87
  32   4   6    7.45    0.85
  34  -4   6    0.53    0.57
  34  -4   6    0.88    0.50
  34   4   6    0.65    0.50
  36  -4   6    4.50    0.70
  36   4   6    4.24    0.56
 -39  -5   6   11.51    0.90
 -39  -5   6   11.35    0.91
 -39   5   6   11.92    0.88
 -37  -5   6    5.76    0.90
 -37  -5   6    5.66    0.88
 -37  -5   6    6.27    0.86
 -37   5   6    6.10    0.79
 -35  -5   6    5.09    0.63
 -35  -5   6    4.78    0.67
 -35   5   6    4.72    0.66
 -33  -5   6    0.01    0.60
 -33  -5   6   -0.04    0.54
 -33   5   6    1.43    0.60
 -31  -5   6   34.44    1.74
 -31  -5   6   33.71    1.60
 -31  -5   6   35.80    1.41
 -31   5   6   31.35    1.49
 -29  -5   6   12.17    1.23
 -29  -5   6   12.10    0.87
 -29  -5   6   12.96    1.15
 -29   5   6   13.67    1.08
 -27  -5   6    0.82    0.69
 -27  -5   6    1.32    0.61
 -27  -5   6    1.58    0.52
 -27   5   6    1.14    0.63
 -25  -5   6    4.54    0.72
 -25  -5   6    3.73    0.78
 -25  -5   6    4.74    0.75
 -25   5   6    1.93    0.67
 -25   5   6    2.82    0.84
 -23  -5   6   21.81    1.12
 -23   5   6   21.21    1.68
 -23   5   6   24.08    1.32
 -21  -5   6   27.52    1.28
 -21  -5   6   29.09    1.31
 -21   5   6   28.38    1.42
 -21   5   6   23.78    1.80
 -19  -5   6   14.65    0.98
 -19  -5   6   10.65    0.93
 -19   5   6   10.54    1.41
 -19   5   6   13.95    1.10
 -17  -5   6    9.77    0.92
 -17  -5   6   10.16    0.90
 -17   5   6   10.73    1.03
 -17   5   6    9.54    1.39
  17   5  -6   10.57    0.98
 -15  -5   6   11.21    0.93
 -15  -5   6   11.48    0.97
 -15   5   6    8.40    1.37
 -15   5   6    9.01    1.03
  15   5  -6    9.83    0.98
 -13  -5   6   14.24    1.16
 -13  -5   6   15.21    0.99
 -13  -5   6   14.50    1.03
 -13   5   6   15.41    1.55
  13   5  -6   16.09    1.10
 -13   5   6   15.31    1.15
 -11  -5   6    0.81    0.52
 -11  -5   6    1.66    0.60
 -11  -5   6    0.88    0.69
  11   5  -6    0.43    0.54
 -11   5   6    1.62    0.90
 -11   5   6    0.74    0.60
  -9  -5   6   27.22    1.31
  -9  -5   6   27.35    1.47
  -9  -5   6   25.49    1.31
   9   5  -6   27.29    1.42
  -9   5   6   25.23    1.88
  -9   5   6   27.02    1.41
  -7  -5   6   16.22    1.08
  -7  -5   6   19.11    1.15
  -7  -5   6   15.60    1.23
  -7   5   6   13.83    1.48
  -7   5   6   14.32    1.32
   7   5  -6   13.23    1.07
  -5  -5   6    0.88    0.71
  -5  -5   6    3.06    0.66
  -5  -5   6    0.63    0.50
  -5   5   6    3.31    0.94
  -5   5   6    2.70    0.81
   5   5  -6    0.67    0.56
  -3  -5   6   28.50    1.38
  -3  -5   6   26.91    1.56
  -3  -5   6   28.29    1.37
  -3   5   6   26.06    1.82
  -3   5   6   25.23    1.58
   3   5  -6   21.83    1.33
  -1  -5   6   38.59    1.86
  -1  -5   6   42.48    1.70
  -1  -5   6   41.85    1.68
   1   5  -6   34.26    1.61
  -1   5   6   34.94    2.15
  -1   5   6   35.43    1.88
   1  -5   6   17.05    1.13
   1  -5   6   14.19    1.08
   1  -5   6   17.64    1.28
   1   5   6   17.32    1.51
   1   5   6   15.18    1.35
  -1   5  -6   14.13    1.04
   3  -5   6   20.66    1.20
   3  -5   6   21.57    1.38
   3  -5   6   20.34    1.22
   3   5   6   19.67    1.57
   3   5   6   17.13    1.41
  -3   5  -6   20.10    1.18
   5  -5   6   11.58    1.00
   5  -5   6   10.32    1.16
   5  -5   6    9.12    0.98
   5   5   6   10.41    1.22
   5   5   6   11.05    1.34
  -5   5  -6   10.64    0.98
   7  -5   6    5.56    0.70
   7  -5   6    5.30    0.84
   7  -5   6    4.76    0.68
   7   5   6    3.78    0.84
  -7   5  -6    3.28    0.64
   7   5   6    4.54    0.96
   9  -5   6    4.52    0.66
   9  -5   6    4.32    0.67
   9  -5   6    6.01    0.86
   9   5   6    5.86    1.21
  -9   5  -6    4.03    0.66
   9   5   6    6.57    1.13
  11  -5   6   41.43    1.70
  11  -5   6   42.20    1.71
  11  -5   6   42.30    1.86
  11   5   6   36.96    2.04
  11   5   6   36.53    2.15
 -11   5  -6   39.54    1.69
  11   5   6   36.38    1.55
  13  -5   6    7.57    0.94
  13  -5   6    6.68    0.92
  13  -5   6    7.39    1.05
  13   5   6    6.81    0.81
 -13   5  -6    8.37    0.90
  15  -5   6   12.05    1.00
  15  -5   6    8.44    1.08
  15  -5   6   10.10    0.98
  15   5   6    8.79    0.87
 -15   5  -6   10.29    0.95
  17  -5   6   11.43    1.01
  17  -5   6   10.97    1.10
  17  -5   6   10.38    0.96
 -17   5  -6    7.77    0.90
  17   5   6    9.75    0.86
  19  -5   6   29.57    1.52
  19  -5   6   33.69    1.45
  19  -5   6   31.78    1.41
 -19   5  -6   29.81    1.46
  19   5   6   32.53    1.43
  21  -5   6    2.85    0.58
  21  -5   6    2.91    0.59
  21  -5   6    2.60    0.68
 -21   5  -6    2.54    0.56
  21   5   6    2.36    0.54
  23  -5   6    7.00    0.84
  23  -5   6    5.35    0.71
  23  -5   6    3.76    0.57
  23   5   6    5.34    0.81
 -23   5  -6    3.04    0.56
  25  -5   6   27.09    1.26
 -25   5  -6   20.02    1.15
  25   5   6   24.94    1.16
  27  -5   6    3.38    0.55
  27   5   6    2.06    0.49
  29  -5   6    0.82    0.46
  29   5   6    1.25    0.44
 -28  -6   6    3.85    0.49
 -28  -6   6    6.28    0.84
 -28  -6   6    6.26    0.85
 -26  -6   6   29.91    1.21
 -26  -6   6   29.99    1.41
 -26  -6   6   29.12    1.45
 -24  -6   6    0.69    0.43
 -24  -6   6    0.69    0.60
 -24  -6   6    0.52    0.52
 -24   6   6    0.93    0.71
 -22  -6   6    0.83    0.65
 -22  -6   6   -0.05    0.42
 -22  -6   6   -0.05    0.54
 -22   6   6    0.65    0.70
 -20  -6   6    4.10    0.65
 -20  -6   6    6.19    0.72
 -20   6   6    3.99    0.86
 -18  -6   6    1.42    0.47
 -18   6   6    2.12    0.82
 -16  -6   6    1.62    0.49
  16   6  -6    2.13    0.57
 -16   6   6    2.75    0.87
 -14  -6   6    2.90    0.54
 -14  -6   6    4.09    0.58
  14   6  -6    3.11    0.59
 -14   6   6    6.43    1.23
 -12  -6   6   30.51    1.32
 -12  -6   6   28.69    1.31
  12   6  -6   23.27    1.24
 -12   6   6   21.44    1.67
 -10  -6   6   12.08    0.93
 -10  -6   6    8.62    0.86
  10   6  -6    8.63    0.89
 -10   6   6    8.35    1.29
  -8  -6   6    6.44    0.90
  -8  -6   6    3.25    0.55
  -8   6   6    3.43    0.91
   8   6  -6    3.04    0.60
  -6  -6   6    5.68    0.90
  -6  -6   6    3.46    0.58
  -6  -6   6    3.93    0.73
  -6   6   6    4.13    0.95
   6   6  -6    2.64    0.86
   6   6  -6    2.34    0.59
  -4  -6   6   14.46    1.18
  -4  -6   6   14.66    0.98
  -4  -6   6   15.89    1.06
   4   6  -6   12.80    1.04
  -4   6   6   14.31    1.39
  -2  -6   6    9.70    1.12
  -2  -6   6   13.05    0.99
  -2  -6   6   10.41    0.90
  -2   6   6    8.60    1.29
   2   6  -6    8.41    0.93
   0  -6   6    5.60    0.82
   0  -6   6    5.06    0.65
   0  -6   6    5.10    0.67
   0   6  -6    4.34    0.66
   0   6   6    4.23    0.96
   2  -6   6    0.64    0.70
   2  -6   6    1.46    0.60
   2  -6   6    1.17    0.54
   2   6   6    1.57    0.84
  -2   6  -6    0.77    0.55
   4  -6   6    6.50    0.95
   4  -6   6    5.79    0.80
   4  -6   6    6.37    0.85
   4   6   6    7.24    1.20
  -4   6  -6    6.65    0.91
   6  -6   6    3.41    0.78
   6  -6   6    4.14    0.60
   6  -6   6    4.04    0.64
  -6   6  -6    3.50    0.61
   6   6   6    3.52    0.89
   8  -6   6    4.51    0.76
   8  -6   6    3.50    0.63
   8  -6   6    3.52    0.59
  -8   6  -6    3.34    0.58
   8   6   6    2.91    0.85
  10  -6   6    6.28    0.80
  10  -6   6    7.14    1.02
  10  -6   6    8.66    0.95
 -10   6  -6    5.38    0.80
  12  -6   6    2.70    0.52
  12  -6   6    1.98    0.56
 -12   6  -6    2.29    0.52
  14  -6   6    1.18    0.49
  14  -6   6    1.07    0.51
 -14   6  -6    1.76    0.49
  16  -6   6   12.44    0.86
  16   6   6   11.64    0.72
 -16   6  -6   11.40    0.86
 -18   6  -6   13.39    1.05
  18   6   6   10.72    0.69
 -18   6  -6   11.13    0.83
  56   0  -7    1.15    0.45
 -56   0   7    0.03    0.38
  54   0  -7   38.57    1.55
 -54   0   7   40.80    1.57
 -52   0   7    0.92    0.47
  52   0  -7    1.63    0.54
 -50   0   7   11.70    0.91
  50   0  -7   11.62    0.99
  48   0  -7   10.25    0.97
 -48   0   7   10.42    0.89
 -46   0   7   10.00    1.15
 -46   0   7   12.38    0.93
  46   0  -7   12.41    1.00
  44   0  -7    0.16    0.56
 -44   0   7    0.13    0.67
 -44   0   7    0.25    0.46
 -42   0   7   13.23    1.21
 -42   0   7   13.53    0.96
  42   0  -7   12.51    1.02
 -42   0   7   12.57    1.06
 -40   0   7   13.28    1.05
 -40   0   7   10.36    0.89
 -40   0   7   10.91    1.16
  40   0  -7   11.63    0.93
 -38   0   7   28.66    1.72
 -38   0   7   30.84    1.39
 -38   0   7   31.33    1.46
  38   0  -7   31.10    1.35
 -36   0   7    1.88    0.49
 -36   0   7    2.93    0.50
 -36   0   7    1.86    0.69
  36   0  -7    3.18    0.52
 -36   0   7    1.45    0.54
 -34   0   7   10.32    0.93
 -34   0   7   10.44    0.95
 -34   0   7   10.65    1.02
 -34   0   7    9.20    0.79
  34   0  -7    7.75    0.76
 -34   0   7    8.03    0.77
 -32   0   7    1.40    0.51
 -32   0   7    1.00    0.57
 -32   0   7    1.69    0.43
 -32   0   7    2.35    0.50
 -32   0   7    2.29    0.43
  32   0  -7    1.82    0.45
  30   0  -7  146.99    4.60
 -30   0   7  147.63    4.51
 -30   0   7  150.62    5.71
 -30   0   7  151.71    4.98
 -30   0   7  149.03    5.02
 -30   0   7  151.85    4.76
 -28   0   7   40.08    1.47
 -28   0   7   40.75    1.61
 -28   0   7   40.45    1.58
 -28   0   7   39.36    1.69
 -28   0   7   43.96    1.93
 -26   0   7   16.65    0.83
 -26   0   7   17.90    0.96
 -26   0   7   16.85    1.02
 -26   0   7   15.33    1.05
 -24   0   7    6.47    0.60
 -24   0   7    6.05    0.70
 -24   0   7    7.36    0.73
 -22   0   7    5.35    0.68
 -20   0   7    1.86    0.44
 -18   0   7   66.87    2.69
 -16   0   7    4.45    0.59
 -14   0   7  435.57   15.55
 -12   0   7  232.17    8.42
 -10   0   7   33.99    1.50
  -8   0   7   69.33    2.71
  -6   0   7   31.64    1.42
  -4   0   7   83.12    3.20
  -2   0   7   24.89    1.20
   0   0   7   94.93    3.39
   0   0   7   98.42    3.68
   2   0   7    0.21    0.26
   2   0   7    0.35    0.32
   4   0   7    9.30    0.70
   4   0   7    8.80    0.61
   6   0   7    1.54    0.34
   8   0   7  160.26    5.56
  10   0   7   13.74    0.82
  12   0   7    1.48    0.40
  14   0   7    5.00    0.81
  14   0   7    5.10    0.66
  16   0   7   33.59    1.51
  16   0   7   32.76    1.50
  16   0   7   31.72    2.00
  16   0   7   32.53    1.46
  18   0   7   26.90    1.35
  18   0   7   27.46    1.37
  18   0   7   25.37    1.31
  18   0   7   27.73    1.87
  20   0   7   14.34    1.05
  20   0   7   15.52    1.09
  20   0   7   13.91    1.03
  20   0   7   15.69    1.54
  22   0   7    3.19    0.61
  22   0   7    2.67    0.91
  22   0   7    2.94    0.62
  22   0   7    2.77    0.60
  24   0   7   15.34    1.16
  24   0   7   16.08    1.65
  24   0   7   18.15    1.17
  24   0   7   17.72    1.16
  26   0   7   -0.43    0.48
  26   0   7   -0.93    0.82
  26   0   7   -0.02    0.55
  26   0   7    0.01    0.55
  28   0   7    0.45    0.88
  28   0   7    1.70    0.64
  28   0   7   -0.01    0.53
  28   0   7    0.74    0.62
  30   0   7   33.84    1.65
  30   0   7   34.41    2.22
  30   0   7   32.12    1.66
  32   0   7   25.63    1.48
  32   0   7   27.88    2.03
  34   0   7   10.22    1.54
  34   0   7   10.01    1.09
  36   0   7    2.95    0.92
  36   0   7    3.34    0.70
  38   0   7    1.68    0.84
  38   0   7    1.06    0.61
  40   0   7    1.10    0.77
  40   0   7    1.74    0.63
  42   0   7    3.33    0.77
 -42   0  -7    4.33    0.58
  44   0   7    8.92    1.18
  55  -1  -7    8.52    0.85
  55   1  -7    8.89    0.75
 -55   1   7    8.66    0.71
  53  -1  -7    1.32    0.52
  53   1  -7    2.06    0.49
 -53   1   7    2.00    0.44
 -51  -1   7    6.03    0.75
  51  -1  -7    6.01    0.87
  51   1  -7    4.65    0.62
 -51   1   7    4.30    0.70
  49  -1  -7    1.35    0.55
 -49  -1   7    2.29    0.52
  49   1  -7    1.67    0.54
 -49   1   7    0.09    0.67
 -49   1   7    1.72    0.48
 -47  -1   7   13.02    1.06
  47  -1  -7   12.41    1.04
 -47  -1   7   12.71    0.95
 -47   1   7   12.43    1.28
  47   1  -7   14.62    1.01
 -47   1   7   14.78    0.95
  45  -1  -7   13.81    1.05
 -45  -1   7   13.57    1.09
 -45  -1   7   13.63    0.98
 -45   1   7   11.77    0.91
  45   1  -7   13.72    1.01
 -45   1   7   10.18    1.21
 -43  -1   7    2.75    0.64
  43  -1  -7    2.40    0.64
 -43  -1   7    1.55    0.51
 -43   1   7    2.66    0.51
 -43   1   7    2.08    0.79
  43   1  -7    1.86    0.57
 -41  -1   7    1.89    0.53
 -41  -1   7    2.27    0.62
 -41  -1   7    1.12    0.60
  41   1  -7    3.05    0.60
 -41   1   7    1.92    0.77
 -41   1   7    2.64    0.50
 -39  -1   7   16.07    1.08
 -39  -1   7   19.16    1.20
 -39  -1   7   19.40    1.26
  39   1  -7   15.77    1.00
 -39   1   7   13.83    1.32
 -39   1   7   15.41    0.96
 -37  -1   7    4.02    0.65
 -37  -1   7    4.59    0.71
 -37  -1   7    2.79    0.57
 -37  -1   7    4.05    0.57
  37   1  -7    3.97    0.54
 -37   1   7    3.02    0.77
 -37   1   7    3.77    0.51
 -35  -1   7    9.99    0.96
 -35  -1   7    9.23    0.87
 -35  -1   7   10.41    0.87
 -35  -1   7   10.52    1.01
  35   1  -7    9.14    0.78
 -35   1   7    8.42    0.76
 -35   1   7   10.53    1.13
 -33  -1   7    4.80    0.71
 -33  -1   7    3.80    0.62
 -33  -1   7    5.12    0.73
 -33  -1   7    5.24    0.66
 -33   1   7    3.54    0.62
 -33   1   7    3.63    0.75
  33   1  -7    3.99    0.51
 -31  -1   7   28.16    1.21
 -31  -1   7   28.34    1.33
 -31  -1   7   27.37    1.43
 -31  -1   7   28.14    1.28
 -31   1   7   29.62    1.64
  31   1  -7   28.75    1.20
 -31   1   7   27.09    1.21
 -29  -1   7   12.44    0.82
 -29  -1   7   13.09    0.82
 -29  -1   7   13.56    0.92
 -29  -1   7   12.45    1.05
 -29  -1   7   12.96    1.01
 -29   1   7   11.84    0.74
 -29   1   7   12.21    1.07
  29   1  -7   12.50    0.77
 -27  -1   7    8.16    0.92
 -27  -1   7   11.43    0.74
 -27  -1   7   12.15    0.95
 -27  -1   7   10.90    0.82
 -27  -1   7   10.52    0.77
 -27   1   7   13.08    1.02
 -27   1   7   10.65    0.68
  27   1  -7   11.31    0.70
 -25  -1   7   23.54    1.25
 -25  -1   7   24.11    1.12
 -25  -1   7   24.43    1.32
 -25  -1   7   23.48    1.04
 -25   1   7   28.26    1.45
  25   1  -7   24.18    1.05
 -23  -1   7   78.55    3.19
 -23  -1   7   83.06    3.34
 -23  -1   7   78.08    2.67
 -23   1   7   88.02    3.51
 -21  -1   7   68.19    2.80
 -21  -1   7   64.32    2.65
 -21   1   7   63.48    2.64
 -19  -1   7   55.80    2.29
 -19  -1   7   56.52    2.39
 -19   1   7   66.18    2.72
 -17  -1   7    2.16    0.39
 -17  -1   7    3.17    0.53
 -17   1   7    2.90    0.51
 -15  -1   7   14.68    0.84
 -15  -1   7   14.89    0.85
 -15   1   7   15.45    0.96
 -13  -1   7   35.77    1.55
 -13  -1   7   36.81    1.60
 -13   1   7   35.55    1.62
 -11  -1   7   16.38    0.87
 -11  -1   7   16.58    0.88
 -11   1   7   13.29    0.88
  -9  -1   7   27.47    1.25
  -9  -1   7   27.32    1.24
  -9   1   7   28.98    1.38
  -7  -1   7  155.64    5.71
  -7   1   7  152.46    5.64
  -5  -1   7  250.84    9.04
  -5   1   7  260.17    9.41
  -3  -1   7   31.36    1.38
  -3   1   7   24.61    1.00
  -3   1   7   25.59    1.23
  -1  -1   7   10.33    0.67
  -1   1   7    9.10    0.73
  -1   1   7    9.70    0.55
   1  -1   7  269.33    9.70
   1   1   7  248.92    8.41
   1   1   7  249.30    9.02
   3   1   7   20.87    1.11
   3   1   7   20.60    0.93
   5  -1   7   27.05    1.21
   5   1   7   26.10    1.27
   5   1   7   24.75    1.10
   7  -1   7   31.81    1.39
   7   1   7   30.12    1.29
   7   1   7   30.82    1.43
   9  -1   7   32.43    1.42
   9   1   7   36.32    1.51
  11  -1   7   17.96    1.01
  11   1   7   15.12    0.88
  13  -1   7    6.22    0.84
  13  -1   7    6.46    0.72
  13   1   7    7.70    1.25
  13   1   7    7.98    0.71
  15  -1   7   76.66    2.59
  15  -1   7   80.44    2.84
  15  -1   7   81.91    3.04
  15   1   7   78.34    2.88
  15   1   7   76.70    3.49
  15   1   7   73.36    2.74
  17  -1   7   47.40    1.72
  17  -1   7   47.38    2.01
  17   1   7   47.40    2.53
  17   1   7   47.87    2.01
  17   1   7   49.36    1.91
  19  -1   7   29.80    1.51
  19  -1   7   31.28    1.29
  19   1   7   35.83    1.61
  19   1   7   34.08    1.52
  19   1   7   32.48    2.12
  21  -1   7   50.61    2.15
  21  -1   7   48.69    1.81
  21   1   7   52.58    2.10
  21   1   7   51.01    2.78
  21   1   7   54.07    2.22
  23  -1   7   68.12    2.35
  23  -1   7   68.99    2.78
  23   1   7   69.20    2.61
  23   1   7   67.80    2.74
  23   1   7   68.23    3.37
  25  -1   7   49.13    2.15
  25  -1   7   47.10    1.79
  25   1   7   45.57    2.12
  25   1   7   49.59    2.02
  25   1   7   49.66    2.72
  27  -1   7   15.46    1.18
  27  -1   7   14.39    0.94
  27   1   7   17.80    1.79
  27   1   7   16.31    1.20
  27   1   7   19.17    1.20
  29  -1   7    7.53    0.80
  29   1   7   10.05    1.60
  29   1   7    7.40    0.97
  31  -1   7   29.72    1.59
  31   1   7   32.36    2.19
  31   1   7   31.90    1.59
  33  -1   7   42.49    1.92
  33   1   7   40.04    1.87
 -33   1  -7   44.02    1.65
  33   1   7   45.11    2.53
  35  -1   7    3.92    0.78
  35   1   7    5.70    0.95
 -35   1  -7    5.05    0.73
  35   1   7    5.83    1.06
  37  -1   7    3.57    0.74
 -37   1  -7    4.42    0.69
  37   1   7    3.78    0.97
  37   1   7    4.97    0.70
  39  -1   7   15.24    1.13
 -39   1  -7   13.16    0.79
  39   1   7   11.96    1.49
  41  -1   7   10.83    0.98
  41   1   7   13.68    1.41
 -41   1  -7   12.25    0.73
  43  -1   7    2.60    0.57
  43   1   7    2.37    0.75
  52   2  -7    6.81    0.70
 -52   2   7    7.49    0.65
 -50  -2   7   10.48    0.94
  50   2  -7    9.20    0.83
 -50   2   7   10.42    0.77
 -48  -2   7    1.03    0.55
  48   2  -7    1.43    0.49
 -48   2   7    0.53    0.39
 -46  -2   7    4.42    0.71
 -46  -2   7    5.85    0.93
  46   2  -7    7.01    0.81
 -46   2   7    6.40    0.71
 -46   2   7    6.26    1.07
 -44  -2   7    9.27    1.06
 -44  -2   7   10.02    1.11
 -44   2   7    8.14    1.14
 -44   2   7    8.43    0.79
  44   2  -7    9.14    0.90
 -42  -2   7    3.96    0.71
 -42  -2   7    3.64    0.69
  42   2  -7    3.87    0.63
 -42   2   7    3.46    0.49
 -42   2   7    3.41    0.85
 -40  -2   7   14.86    1.15
 -40  -2   7   14.78    1.20
 -40   2   7    9.92    1.22
 -40   2   7   12.37    0.82
  40   2  -7   12.25    0.92
 -38  -2   7   12.28    1.08
 -38  -2   7   13.02    1.01
 -38  -2   7   10.19    0.98
 -38  -2   7   11.33    1.13
  38   2  -7   10.84    0.90
 -38   2   7   10.00    0.77
 -38   2   7    9.68    1.19
 -36  -2   7   26.26    1.30
 -36  -2   7   28.01    1.52
 -36  -2   7   24.71    1.32
 -36  -2   7   27.75    1.42
 -36  -2   7   25.41    1.41
  36   2  -7   24.08    1.17
 -36   2   7   23.62    1.11
 -36   2   7   24.60    1.60
 -34  -2   7   30.21    1.85
 -34  -2   7   35.84    1.55
 -34  -2   7   31.17    1.55
 -34  -2   7   31.27    1.48
 -34  -2   7   33.60    1.44
 -34  -2   7   33.60    1.68
  34   2  -7   28.08    1.24
 -34   2   7   26.00    1.65
 -34   2   7   27.01    1.18
 -32  -2   7    3.78    0.57
 -32  -2   7    4.00    0.61
 -32  -2   7    3.79    0.70
 -32  -2   7    3.01    0.55
 -32  -2   7    3.24    0.73
  32   2  -7    4.80    0.54
 -32   2   7    3.60    0.77
 -32   2   7    3.99    0.60
 -30  -2   7   51.19    2.15
 -30  -2   7   54.57    1.90
 -30  -2   7   52.23    2.04
 -30  -2   7   51.81    2.50
 -30   2   7   48.39    2.28
 -30   2   7   46.18    1.75
  30   2  -7   47.69    1.72
 -28  -2   7   35.30    1.38
 -28  -2   7   34.67    1.64
 -28  -2   7   33.61    1.81
 -28  -2   7   34.04    1.48
 -28   2   7   32.30    1.33
 -28   2   7   36.21    1.83
  28   2  -7   34.62    1.34
 -26  -2   7   17.84    0.98
 -26  -2   7   17.76    1.21
 -26  -2   7   18.99    0.96
 -26  -2   7   17.19    1.21
 -26  -2   7   16.77    0.91
 -26   2   7   22.43    1.36
 -26   2   7   19.62    0.92
  26   2  -7   19.56    0.94
 -24  -2   7   16.29    1.08
 -24  -2   7   14.55    0.79
 -24  -2   7   15.25    1.12
 -24  -2   7   15.06    0.88
 -24  -2   7   14.12    0.87
 -24   2   7   12.70    1.07
  24   2  -7   11.73    0.73
 -22  -2   7    8.36    0.64
 -22  -2   7    6.83    0.67
 -22  -2   7    7.67    0.92
 -22  -2   7    7.54    0.82
 -22   2   7    5.07    0.90
  22   2  -7    6.64    0.59
 -20  -2   7    3.81    0.57
 -20  -2   7    4.68    0.58
 -20  -2   7    4.50    0.64
 -20  -2   7    4.32    0.71
 -20   2   7    5.47    0.87
  20   2  -7    5.29    0.55
 -18  -2   7   11.05    0.72
 -18  -2   7   12.09    0.89
 -18  -2   7   10.69    0.99
 -18   2   7    9.01    0.90
  18   2  -7    9.03    0.61
 -16  -2   7   15.20    0.99
 -16   2   7   14.79    1.04
  16   2  -7   14.41    0.73
 -14  -2   7   44.02    2.00
 -14   2   7   42.14    1.93
 -12  -2   7   98.23    3.91
 -12  -2   7   93.59    3.16
 -12   2   7  100.70    3.92
 -10  -2   7   40.86    1.53
 -10  -2   7   39.19    1.81
 -10   2   7   45.21    2.00
  -8  -2   7   49.35    2.10
  -8  -2   7   46.23    1.74
  -8   2   7   51.34    2.18
  -6  -2   7   44.40    1.93
  -6  -2   7   42.24    1.61
  -6   2   7   41.98    1.86
  -4  -2   7   69.40    2.89
  -4  -2   7   69.28    2.37
  -4   2   7   63.94    2.60
  -2  -2   7   21.73    0.98
  -2  -2   7   22.43    1.15
  -2   2   7   22.04    1.17
   0  -2   7   37.32    1.72
   0  -2   7   38.03    1.44
   0   2   7   30.69    1.20
   0   2   7   31.88    1.48
   2  -2   7   10.70    0.70
   2  -2   7    9.76    0.78
   2   2   7   11.20    0.62
   2   2   7   11.23    1.07
   2   2   7   10.52    0.85
   4  -2   7   37.45    1.42
   4   2   7   36.77    1.68
  -4   2  -7   37.50    1.34
   4   2   7   38.05    1.45
   4   2   7   35.29    1.93
   6  -2   7   40.82    1.49
   6  -2   7   37.98    1.48
   6  -2   7   38.60    1.46
   6   2   7   45.54    1.66
   6   2   7   42.48    1.86
   6   2   7   39.73    2.14
  -6   2  -7   41.26    1.49
   8  -2   7   40.80    1.53
   8  -2   7   41.26    1.69
   8   2   7   40.45    1.57
   8   2   7   36.06    1.99
  -8   2  -7   39.20    1.41
  10  -2   7   17.64    0.93
  10  -2   7   16.35    1.08
 -10   2  -7   13.76    0.77
  10   2   7   13.10    1.32
  10   2   7   13.34    0.85
  10   2   7   15.32    0.85
  12  -2   7   90.94    2.97
  12  -2   7   91.98    3.20
  12   2   7   89.61    3.15
  12   2   7   82.62    2.99
 -12   2  -7   86.40    2.76
  12   2   7   83.01    3.82
  14  -2   7    3.97    0.52
  14  -2   7    4.65    0.67
  14   2   7    5.66    0.92
  14   2   7    6.14    0.71
 -14   2  -7    5.36    0.61
  14   2   7    5.47    0.69
  16  -2   7   36.20    1.47
  16  -2   7   37.44    1.69
  16   2   7   29.86    1.38
  16   2   7   33.72    1.48
 -16   2  -7   32.40    1.28
  16   2   7   31.10    2.04
  18  -2   7  102.68    3.34
  18   2   7   86.81    3.17
 -18   2  -7   92.58    2.90
  18   2   7   89.62    4.05
  18   2   7   87.50    3.33
  20  -2   7    0.51    0.54
  20  -2   7    1.17    0.47
  20   2   7    2.10    0.50
  20   2   7    1.87    0.53
 -20   2  -7    1.45    0.44
  20   2   7    2.28    0.86
  22  -2   7   77.85    2.67
 -22   2  -7   70.27    2.31
  22   2   7   64.06    2.68
  22   2   7   65.41    3.32
  22   2   7   69.29    2.55
  24  -2   7   12.77    0.96
  24   2   7    9.51    0.98
 -24   2  -7   10.75    0.82
  24   2   7   10.41    1.60
  24   2   7    9.22    0.95
  26  -2   7    8.79    0.90
  26  -2   7   11.35    1.17
  26   2   7   10.32    1.00
  26   2   7    8.57    0.96
  26   2   7   10.44    1.60
 -26   2  -7   11.14    0.84
  28  -2   7    3.10    0.59
  28  -2   7    6.69    1.10
  28   2   7    3.85    1.02
  28   2   7    4.39    0.66
 -28   2  -7    4.46    0.56
  30  -2   7    0.75    0.65
  30  -2   7    0.85    0.50
  30   2   7    0.63    0.55
 -30   2  -7    1.15    0.46
  30   2   7    0.85    0.90
  32  -2   7    2.71    0.53
  32  -2   7    3.72    0.75
  32   2   7    2.57    0.97
  32   2   7    3.26    0.63
 -32   2  -7    2.48    0.47
  34  -2   7   14.43    0.91
  34  -2   7   16.43    1.27
  34   2   7   14.90    1.63
 -34   2  -7   13.25    0.80
  34   2   7   14.67    1.07
  36  -2   7    9.49    0.78
  36  -2   7   10.01    1.12
  36   2   7   10.39    0.97
  36   2   7   10.14    1.50
  38  -2   7    0.14    0.61
  38   2   7    0.81    0.83
  38   2   7    0.48    0.52
  40  -2   7    4.07    0.67
  40   2   7    3.40    0.84
  40   2   7    3.59    0.57
  42  -2   7   12.64    0.91
 -49  -3   7    2.71    0.50
 -49   3   7    1.49    0.35
  49   3  -7    1.27    0.41
 -47  -3   7   20.32    1.18
 -47  -3   7   22.09    1.18
  47   3  -7   19.17    0.99
 -47   3   7   19.92    0.92
 -45  -3   7   18.11    1.17
 -45  -3   7   18.44    1.21
 -45   3   7   13.13    0.78
  45   3  -7   14.37    0.89
 -43  -3   7    7.04    1.05
 -43  -3   7    7.20    0.98
  43   3  -7    7.43    0.81
 -43   3   7    7.20    0.66
 -43   3   7    6.84    1.10
 -41  -3   7    5.63    0.75
 -41  -3   7    6.49    0.75
 -41   3   7    5.34    0.65
  41   3  -7    6.79    0.81
 -41   3   7    5.72    1.09
 -39  -3   7    4.51    0.71
 -39  -3   7    3.27    0.73
 -39  -3   7    3.81    0.63
  39   3  -7    4.49    0.62
 -39   3   7    5.11    0.62
 -39   3   7    4.60    0.90
 -37  -3   7   23.74    1.34
 -37  -3   7   23.15    1.48
 -37  -3   7   23.59    1.22
 -37  -3   7   24.21    1.39
 -37   3   7   20.69    1.53
 -37   3   7   19.60    0.98
  37   3  -7   22.20    1.11
 -35  -3   7   10.31    1.06
 -35  -3   7    9.78    0.96
 -35  -3   7   10.07    1.17
 -35  -3   7   11.48    1.11
 -35   3   7    8.21    0.69
  35   3  -7    6.46    0.84
 -35   3   7    8.54    1.17
 -33  -3   7    2.71    0.62
 -33  -3   7    3.78    0.76
 -33  -3   7    3.44    0.62
  33   3  -7    2.76    0.51
 -33   3   7    2.65    0.41
 -33   3   7    2.00    0.79
 -31  -3   7   13.31    1.24
 -31  -3   7   11.89    0.86
 -31  -3   7   12.85    1.09
 -31  -3   7   14.32    0.97
 -31   3   7    9.90    1.21
  31   3  -7   10.89    0.87
 -31   3   7   11.20    0.74
 -29  -3   7   31.12    1.36
 -29  -3   7   33.94    1.71
 -29  -3   7   29.06    1.80
 -29  -3   7   30.97    1.30
 -29  -3   7   29.20    1.51
  29   3  -7   28.64    1.28
 -29   3   7   30.02    1.75
 -27  -3   7    5.03    0.95
 -27  -3   7    4.74    0.71
 -27  -3   7    6.58    0.97
 -27  -3   7    5.57    0.76
 -27  -3   7    7.25    1.11
 -27   3   7    6.22    1.04
  27   3  -7    6.35    0.73
 -25  -3   7   26.05    1.19
 -25  -3   7   25.86    1.53
 -25  -3   7   25.76    1.13
 -25  -3   7   23.85    1.37
 -25  -3   7   24.19    1.55
  25   3  -7   26.09    1.17
 -25   3   7   26.48    1.62
 -23  -3   7    3.20    0.49
 -23  -3   7    3.41    0.71
 -23  -3   7    3.34    0.69
 -23  -3   7    3.66    0.53
 -23  -3   7    2.94    0.67
 -23   3   7    2.61    0.72
  23   3  -7    3.41    0.47
 -21  -3   7    3.91    0.54
 -21  -3   7    3.72    0.69
 -21  -3   7    3.79    0.51
 -21   3   7    2.83    0.70
  21   3  -7    3.70    0.50
 -21   3   7    3.33    0.71
 -21   3   7    3.18    0.79
 -19  -3   7    3.10    0.66
 -19  -3   7    3.11    0.49
 -19  -3   7    3.91    0.53
 -19   3   7    2.45    0.63
  19   3  -7    3.37    0.46
 -19   3   7    2.32    0.76
 -19   3   7    2.87    0.68
 -17  -3   7    9.67    0.76
 -17  -3   7    9.89    0.95
 -17  -3   7    8.18    0.75
 -17   3   7    9.82    0.99
 -17   3   7    8.31    1.14
 -17   3   7    9.45    1.02
  17   3  -7    9.79    0.70
 -15  -3   7   10.00    0.77
 -15  -3   7   10.73    0.78
 -15  -3   7   10.48    0.97
 -15  -3   7   10.13    0.85
 -15   3   7    8.32    1.13
 -15   3   7    9.96    0.98
  15   3  -7    8.48    0.68
 -15   3   7    9.44    1.00
 -13  -3   7   31.78    1.41
 -13  -3   7   31.21    1.33
 -13  -3   7   31.72    1.31
 -13  -3   7   33.09    1.68
 -13   3   7   31.93    1.41
  13   3  -7   31.48    1.24
 -13   3   7   30.27    1.62
 -13   3   7   32.99    1.64
 -13   3   7   31.01    1.85
 -11  -3   7    5.66    0.66
 -11  -3   7    4.76    0.76
 -11  -3   7    5.13    0.63
 -11  -3   7    4.37    0.71
 -11  -3   7    4.22    0.63
 -11   3   7    4.36    0.61
  11   3  -7    4.66    0.56
  11   3  -7    3.86    0.65
 -11   3   7    4.38    0.78
 -11   3   7    5.30    0.78
 -11   3   7    4.93    1.00
  -9  -3   7   85.45    2.81
  -9  -3   7   90.10    3.04
  -9  -3   7   89.64    2.91
  -9  -3   7   89.11    2.88
  -9  -3   7   91.52    3.76
  -9   3   7   78.31    3.26
  -9   3   7   81.58    2.81
  -9   3   7   80.26    3.71
   9   3  -7   85.83    2.63
  -9   3   7   77.42    3.18
   9   3  -7   83.09    3.06
  -7  -3   7    7.70    0.66
  -7  -3   7    7.64    0.79
  -7  -3   7    7.56    0.68
  -7  -3   7    8.80    0.86
  -7  -3   7    8.57    0.72
  -7   3   7    8.18    0.83
  -7   3   7    8.13    1.05
  -7   3   7    7.18    1.04
  -7   3   7    7.68    0.78
   7   3  -7    8.65    0.76
   7   3  -7    7.76    0.63
  -5  -3   7   11.76    0.87
  -5  -3   7   12.40    0.83
  -5  -3   7   11.30    0.77
  -5  -3   7   10.36    0.73
  -5  -3   7   11.29    0.94
  -5   3   7   12.04    1.15
  -5   3   7   11.76    0.92
  -5   3   7   10.36    0.86
   5   3  -7   12.06    0.70
   5   3  -7   10.71    0.85
  -5   3   7   11.88    1.13
  -3  -3   7   10.18    0.89
  -3  -3   7    8.47    0.72
  -3  -3   7    9.49    0.76
  -3  -3   7   10.04    0.80
  -3  -3   7    8.76    0.67
   3   3  -7   11.36    0.69
   3   3  -7   11.30    0.83
  -3   3   7   11.71    0.86
  -3   3   7   11.53    0.91
  -3   3   7   11.67    1.12
  -1  -3   7    3.03    0.58
  -1  -3   7    3.73    0.53
  -1  -3   7    3.42    0.52
  -1  -3   7    3.84    0.45
  -1  -3   7    3.53    0.46
  -1   3   7    4.39    0.71
  -1   3   7    4.50    0.59
  -1   3   7    3.73    0.74
   1   3  -7    5.35    0.67
   1   3  -7    3.76    0.52
   1  -3   7   43.09    1.58
   1  -3   7   46.03    2.14
   1  -3   7   46.14    1.76
   1  -3   7   44.04    1.65
   1  -3   7   46.71    1.73
   1   3   7   44.10    1.74
   1   3   7   44.82    2.31
  -1   3  -7   45.09    1.87
  -1   3  -7   47.35    1.60
   1   3   7   43.74    1.97
   3  -3   7    6.53    0.72
   3  -3   7    5.52    0.86
   3  -3   7    6.22    0.69
   3  -3   7    6.28    0.72
   3  -3   7    6.61    0.64
  -3   3  -7    5.55    0.68
   3   3   7    5.32    0.74
  -3   3  -7    5.57    0.58
   3   3   7    5.77    0.72
   3   3   7    5.73    1.00
   5  -3   7    7.07    0.80
   5  -3   7    7.72    0.93
   5  -3   7    7.07    0.69
   5  -3   7    8.13    0.75
   5  -3   7    8.18    0.76
   5  -3   7    8.13    0.78
  -5   3  -7    8.49    0.64
  -5   3  -7    7.85    0.76
   5   3   7    7.54    1.08
   7  -3   7   24.36    1.08
   7  -3   7   25.65    1.20
   7  -3   7   25.66    1.17
   7  -3   7   24.60    1.45
   7   3   7   22.61    1.05
   7   3   7   23.27    1.06
   7   3   7   22.43    1.52
  -7   3  -7   23.32    1.01
  -7   3  -7   22.10    1.21
   9  -3   7   22.28    1.09
   9  -3   7   22.79    1.10
   9  -3   7   19.87    1.33
   9  -3   7   19.37    1.19
   9  -3   7   21.02    0.98
  -9   3  -7   20.97    1.18
  -9   3  -7   22.10    0.99
   9   3   7   20.91    1.04
   9   3   7   19.44    1.46
   9   3   7   21.38    1.03
  11  -3   7    1.86    0.44
  11  -3   7    2.86    0.54
  11  -3   7    2.60    0.58
  11  -3   7    2.42    0.50
 -11   3  -7    2.87    0.43
  11   3   7    3.72    0.61
  11   3   7    3.09    0.74
  11   3   7    3.88    0.68
  13  -3   7   13.77    0.97
  13  -3   7   12.60    0.86
  13  -3   7   12.97    1.06
  13  -3   7   15.24    0.96
  13   3   7   11.01    0.84
  13   3   7    9.13    1.15
 -13   3  -7   11.73    0.76
  13   3   7   11.45    0.83
  15  -3   7   24.66    1.26
  15  -3   7   26.36    1.24
  15  -3   7   25.63    1.37
  15  -3   7   23.55    1.13
  15   3   7   22.67    1.16
 -15   3  -7   24.06    1.05
  15   3   7   21.99    1.18
  17  -3   7   62.80    2.27
  17  -3   7   61.08    2.21
  17  -3   7   62.34    2.41
  17   3   7   53.17    2.21
 -17   3  -7   57.66    1.92
  17   3   7   53.87    2.11
  19  -3   7   31.57    1.45
  19  -3   7   30.59    1.40
  19  -3   7   31.68    1.61
  19   3   7   23.88    1.23
 -19   3  -7   24.13    1.06
  19   3   7   21.63    1.24
  21  -3   7   12.20    1.18
  21  -3   7   11.81    0.95
  21  -3   7   12.08    0.99
 -21   3  -7   10.39    0.77
  21   3   7   11.59    0.97
  21   3   7    9.38    0.89
  23  -3   7   10.04    1.14
  23  -3   7    9.02    0.94
  23   3   7    9.67    0.96
 -23   3  -7    8.96    0.75
  25  -3   7   10.33    0.97
  25  -3   7    9.54    1.18
  25   3   7    9.33    0.95
  27  -3   7   28.58    1.59
  27  -3   7   28.39    1.36
  27   3   7   25.98    1.35
  29  -3   7    9.62    0.91
  29  -3   7    9.71    1.15
  29   3   7    6.41    0.91
  31  -3   7   -0.22    0.50
  31  -3   7    0.76    0.68
  31   3   7    0.60    0.53
  33  -3   7    7.19    1.03
  33  -3   7    6.86    0.81
  33   3   7    8.28    0.93
  35  -3   7   11.89    1.04
  35  -3   7    9.65    0.79
  35   3   7    9.74    0.93
  37  -3   7   11.21    0.74
  37  -3   7   13.66    1.01
  37   3   7   12.98    0.94
 -44  -4   7    8.78    0.90
 -44  -4   7   10.73    0.91
 -44   4   7    7.17    0.56
 -42  -4   7    3.45    0.63
 -42  -4   7    5.18    0.85
 -42   4   7    3.26    0.50
 -40  -4   7   11.40    1.02
 -40  -4   7   10.19    1.05
 -40   4   7    8.72    0.69
 -38  -4   7   47.71    1.93
 -38  -4   7   46.06    1.89
 -38  -4   7   47.30    2.03
 -36  -4   7    0.42    0.64
 -36  -4   7    0.81    0.58
 -36  -4   7   -0.48    0.52
 -36   4   7    0.13    0.71
  36   4  -7   -0.04    0.50
 -34  -4   7    6.10    0.79
 -34  -4   7    4.29    0.64
 -34   4   7    4.01    0.83
  34   4  -7    6.49    0.77
 -32  -4   7    6.52    1.02
 -32  -4   7    8.11    0.85
 -32  -4   7    6.89    1.17
 -32  -4   7    5.47    0.76
  32   4  -7    7.93    0.79
 -32   4   7    3.93    0.86
 -30  -4   7   25.60    1.16
 -30  -4   7   25.75    1.25
 -30  -4   7   25.67    1.58
 -30  -4   7   22.83    1.42
 -30   4   7   19.56    1.47
  30   4  -7   20.49    1.10
 -28  -4   7   19.12    1.08
 -28  -4   7   20.47    1.12
 -28  -4   7   20.18    1.32
 -28  -4   7   22.67    1.47
  28   4  -7   17.76    1.02
 -28   4   7   17.77    1.54
 -26  -4   7   23.48    1.54
 -26  -4   7   20.27    1.12
 -26  -4   7   18.68    1.35
 -26  -4   7   20.74    1.07
  26   4  -7   17.97    1.01
 -24  -4   7   13.84    1.21
 -24  -4   7   14.32    1.33
 -24  -4   7   13.55    0.97
 -24  -4   7   13.31    0.92
 -24   4   7   12.46    1.46
  24   4  -7   15.34    0.95
 -22  -4   7    8.67    0.82
 -22  -4   7    8.41    0.81
  22   4  -7    6.86    0.79
 -22   4   7    5.85    1.23
 -20  -4   7    5.08    0.79
 -20  -4   7    3.88    0.59
 -20   4   7    3.17    0.89
  20   4  -7    3.84    0.56
 -20   4   7    3.75    0.69
 -18  -4   7    4.81    0.82
 -18  -4   7    4.16    0.58
 -18  -4   7    5.62    0.75
 -18   4   7    5.29    0.75
 -18   4   7    5.57    1.21
 -18   4   7    5.70    0.87
  18   4  -7    5.98    0.73
 -16  -4   7   19.88    1.44
 -16  -4   7   21.62    1.07
 -16  -4   7   21.98    1.10
 -16  -4   7   22.08    1.12
  16   4  -7   23.53    1.07
 -16   4   7   21.58    1.25
 -16   4   7   21.29    1.67
 -16   4   7   21.72    1.44
 -14  -4   7    3.77    0.75
 -14  -4   7    3.29    0.53
 -14  -4   7    3.53    0.55
 -14  -4   7    3.08    0.65
 -14   4   7    3.34    0.65
 -14   4   7    6.26    1.22
  14   4  -7    2.95    0.50
  14   4  -7    4.33    0.75
 -14   4   7    2.80    0.74
 -12  -4   7   21.27    1.13
 -12  -4   7   22.47    1.09
 -12  -4   7   21.47    1.26
 -12  -4   7   22.41    1.15
 -12  -4   7   20.22    1.42
 -12   4   7   21.76    1.37
 -12   4   7   19.67    1.20
  12   4  -7   22.84    1.04
  12   4  -7   17.45    1.20
 -12   4   7   21.62    1.66
 -10  -4   7   17.73    1.01
 -10  -4   7   16.99    1.03
 -10  -4   7   16.91    1.02
 -10  -4   7   16.41    1.26
 -10  -4   7   16.89    1.15
 -10   4   7   15.22    1.06
  10   4  -7   13.66    1.02
  10   4  -7   13.31    0.85
 -10   4   7   14.15    1.23
 -10   4   7   13.59    1.44
  -8  -4   7    2.68    0.52
  -8  -4   7    4.57    0.89
  -8  -4   7    2.93    0.52
  -8  -4   7    2.42    0.67
  -8  -4   7    2.00    0.52
   8   4  -7    1.31    0.43
  -8   4   7    2.92    0.74
  -8   4   7    1.76    0.57
   8   4  -7    0.98    0.51
  -6  -4   7   43.59    2.29
  -6  -4   7   47.06    1.96
  -6  -4   7   47.63    1.78
  -6  -4   7   46.56    1.80
  -6  -4   7   47.00    1.72
  -6   4   7   47.38    2.48
  -6   4   7   44.67    2.11
   6   4  -7   45.57    1.64
  -6   4   7   44.69    1.83
   6   4  -7   40.66    1.93
  -4  -4   7   47.08    1.83
  -4  -4   7   47.45    1.81
  -4  -4   7   49.84    2.03
  -4  -4   7   50.51    1.79
  -4  -4   7   45.76    2.35
   4   4  -7   43.87    2.02
  -4   4   7   51.35    2.55
  -4   4   7   46.31    2.18
  -4   4   7   45.61    1.88
   4   4  -7   47.13    1.69
  -2  -4   7   52.97    2.66
  -2  -4   7   61.97    2.25
  -2  -4   7   55.57    2.06
  -2  -4   7   57.97    2.01
  -2  -4   7   56.54    2.06
  -2   4   7   58.33    2.55
  -2   4   7   57.99    2.19
   2   4  -7   58.37    2.00
   2   4  -7   55.74    2.40
  -2   4   7   59.03    2.93
   0  -4   7    3.72    0.69
   0  -4   7    1.54    0.48
   0  -4   7    2.29    0.66
   0  -4   7    1.89    0.52
   0  -4   7    2.51    0.54
   0   4   7    1.70    0.55
   0   4   7    1.56    0.77
   0   4  -7    1.85    0.53
   0   4   7    1.96    0.76
   0   4  -7    1.55    0.40
   2  -4   7   10.64    0.90
   2  -4   7   11.08    1.07
   2  -4   7    9.62    0.89
   2  -4   7   11.74    0.88
   2  -4   7    9.43    1.06
   2   4   7   11.77    1.31
  -2   4  -7   11.86    0.76
  -2   4  -7   11.83    0.96
   2   4   7   11.27    1.25
   4  -4   7    5.17    0.83
   4  -4   7    6.79    0.82
   4  -4   7    6.39    0.97
   4  -4   7    6.73    0.79
   4  -4   7    6.27    0.78
   4   4   7    6.54    0.99
  -4   4  -7    7.04    0.83
   4   4   7    7.98    1.19
   6  -4   7   10.42    0.97
   6  -4   7    9.46    1.10
   6  -4   7   10.84    0.90
   6  -4   7   12.18    1.06
   6  -4   7   10.04    0.93
  -6   4  -7    6.46    0.84
   6   4   7    7.64    1.19
   6   4   7    8.91    1.24
   8  -4   7    8.52    0.89
   8  -4   7    9.13    1.16
   8  -4   7    9.36    0.92
   8  -4   7    9.63    1.01
   8   4   7    9.80    1.26
  -8   4  -7    8.71    0.85
   8   4   7    8.41    0.79
   8   4   7    8.98    1.24
  10  -4   7    1.39    0.55
  10  -4   7    1.55    0.65
  10  -4   7    2.97    0.58
  10   4   7    1.14    0.44
  10   4   7    1.67    0.79
  10   4   7    1.19    0.85
 -10   4  -7    1.63    0.54
  12  -4   7   17.95    1.15
  12  -4   7   17.79    1.21
  12  -4   7   17.84    1.07
  12   4   7   15.42    1.43
  12   4   7   16.87    1.45
  12   4   7   16.25    0.99
  14  -4   7   14.23    1.11
  14  -4   7   14.34    1.09
  14  -4   7   13.60    1.00
  14   4   7   15.04    1.42
  14   4   7   16.39    1.02
  14   4   7   15.54    1.44
  16  -4   7    7.12    0.95
  16  -4   7    6.93    0.90
  16   4   7    5.43    0.81
  16   4   7    6.64    1.01
  18  -4   7   34.65    1.56
  18   4   7   28.92    1.38
  20  -4   7   22.65    1.27
  20   4   7   24.25    1.28
  22  -4   7   13.76    1.04
  22  -4   7   14.70    1.07
  22   4   7   16.24    1.08
  24  -4   7   39.65    1.63
  24  -4   7   37.34    1.70
  24   4   7   38.65    1.66
  26  -4   7   11.31    1.05
  26  -4   7   11.39    0.97
  26   4   7   12.35    0.97
  28  -4   7   12.32    1.04
  28  -4   7   13.03    0.97
  28   4   7   11.11    0.92
  30  -4   7   11.10    0.90
  30  -4   7   12.82    0.99
  30   4   7   12.00    0.93
  32  -4   7   -0.20    0.51
  32  -4   7    0.90    0.43
  32   4   7    0.53    0.49
 -37  -5   7    2.81    0.55
 -37  -5   7    2.68    0.56
 -37  -5   7    2.32    0.47
 -37   5   7    4.08    0.57
 -35  -5   7    3.16    0.63
 -35  -5   7    3.51    0.59
 -35  -5   7    3.79    0.55
 -35   5   7    5.27    0.83
 -33  -5   7    1.99    0.64
 -33  -5   7    2.81    0.55
 -33   5   7    3.95    0.63
 -31  -5   7   21.61    1.23
 -31  -5   7   19.80    1.31
 -31  -5   7   19.49    1.00
 -31   5   7   18.27    1.14
 -29  -5   7    0.25    0.52
 -29  -5   7   -0.15    0.64
 -29  -5   7    0.48    0.43
 -29   5   7    0.25    0.57
 -27  -5   7    2.77    0.74
 -27  -5   7    3.86    0.54
 -27  -5   7    3.98    0.64
 -27   5   7    3.84    0.70
 -25  -5   7    3.28    0.64
 -25  -5   7    3.66    0.79
 -25  -5   7    3.27    0.53
 -25   5   7    4.41    0.94
 -25   5   7    4.42    0.70
 -23  -5   7    8.96    1.20
 -23  -5   7    7.26    1.09
 -23  -5   7    6.92    0.78
 -23   5   7    8.40    1.31
 -23   5   7    7.23    0.97
 -21  -5   7   11.93    0.90
 -21   5   7   11.41    1.41
 -21   5   7   11.13    1.05
 -19  -5   7    3.92    0.57
 -19   5   7    3.28    0.93
 -19   5   7    2.70    0.68
 -17  -5   7   10.85    0.93
 -17   5   7   12.30    1.09
 -17   5   7   13.38    1.49
 -15  -5   7   20.28    1.12
 -15   5   7   16.80    1.63
 -15   5   7   19.19    1.20
 -13  -5   7    7.38    0.85
 -13  -5   7    6.72    0.82
 -13   5   7    6.60    1.34
 -13   5   7    6.83    1.00
 -11  -5   7    5.46    0.88
 -11  -5   7    5.31    0.79
 -11  -5   7    6.10    0.99
 -11   5   7    6.72    1.34
 -11   5   7    6.84    0.97
  -9  -5   7   11.68    0.98
  -9  -5   7   13.35    1.15
  -9  -5   7   14.71    0.99
  -9   5   7   12.91    1.48
  -9   5   7   13.84    1.09
  -9   5   7   11.76    1.29
  -7  -5   7   12.75    1.00
  -7  -5   7   13.42    1.03
  -7  -5   7   14.75    1.19
  -7   5   7   17.12    1.59
  -7   5   7   16.23    1.12
  -7   5   7   16.18    1.39
  -5  -5   7   43.92    2.00
  -5  -5   7   47.83    1.84
  -5  -5   7   49.77    1.80
  -5   5   7   39.31    2.01
  -5   5   7   41.27    1.72
  -5   5   7   38.11    2.28
  -3  -5   7    2.34    0.54
  -3  -5   7    3.39    0.77
   3   5  -7    1.76    0.61
  -3   5   7    2.50    0.89
  -3   5   7    1.55    0.78
  -1  -5   7    3.99    0.69
  -1  -5   7    4.22    0.84
  -1  -5   7    3.23    0.61
  -1   5   7    2.79    0.84
  -1   5   7    6.48    1.25
   1   5  -7    3.13    0.66
   1  -5   7   16.07    1.31
   1  -5   7   17.32    1.09
   1  -5   7   19.64    1.21
  -1   5  -7   14.57    1.10
   1   5   7   15.71    1.50
   1   5   7   16.14    1.33
   3  -5   7    2.74    0.78
   3  -5   7    2.04    0.55
   3  -5   7    3.41    0.66
  -3   5  -7    2.13    0.61
   3   5   7    2.29    0.88
   3   5   7    3.54    0.83
   5  -5   7   70.88    2.42
   5  -5   7   70.23    2.45
   5  -5   7   66.31    2.61
   5   5   7   62.41    2.65
   5   5   7   60.91    3.08
   7  -5   7   29.16    1.37
   7  -5   7   29.57    1.56
   7  -5   7   30.41    1.41
   7   5   7   25.46    1.56
  -7   5  -7   23.83    1.31
   7   5   7   26.09    1.79
   9  -5   7    9.02    0.92
   9  -5   7    9.79    0.97
   9  -5   7    8.28    1.10
   9   5   7    8.34    1.27
  -9   5  -7    8.29    0.91
   9   5   7    7.23    1.15
  11  -5   7    1.92    0.74
  11  -5   7    1.56    0.60
  11  -5   7    1.64    0.56
  11   5   7    2.86    0.47
 -11   5  -7    1.81    0.59
  11   5   7    3.86    0.90
  11   5   7    2.99    0.79
  13  -5   7    2.81    0.73
  13  -5   7    2.14    0.60
  13  -5   7    2.37    0.58
  13   5   7    1.95    0.46
  15  -5   7    2.65    0.56
  15  -5   7    2.29    0.70
  15   5   7    1.80    0.48
  17  -5   7    2.62    0.69
  17  -5   7    3.89    0.58
  17   5   7    3.36    0.52
  19  -5   7    4.13    0.69
  19  -5   7    3.59    0.57
  19   5   7    6.34    0.77
  21  -5   7    2.43    0.52
  21   5   7    4.04    0.71
  23  -5   7   23.58    1.14
  23   5   7   23.17    1.10
  25  -5   7   11.64    0.85
  25   5   7   10.29    0.78
 -26  -6   7    5.32    0.69
 -26  -6   7    5.45    0.85
 -26  -6   7    6.72    0.79
 -24  -6   7    3.48    0.55
 -24  -6   7    3.10    0.43
 -24  -6   7    2.18    0.59
 -22  -6   7    4.19    0.51
 -22  -6   7    4.77    0.68
 -22  -6   7    5.59    0.90
 -22   6   7    4.28    0.81
 -20  -6   7    2.06    0.67
 -20  -6   7    1.45    0.54
 -20  -6   7    1.37    0.42
 -20   6   7    1.21    0.71
 -18  -6   7    1.20    0.45
 -18  -6   7    0.17    0.61
 -18  -6   7    1.38    0.57
 -18   6   7    1.74    0.75
 -16  -6   7    4.43    0.53
 -16   6   7    4.33    0.88
 -14  -6   7    3.78    0.52
 -14   6   7    2.78    0.83
 -12  -6   7    4.98    0.58
 -12   6   7    7.00    1.21
 -10  -6   7   15.98    0.97
 -10   6   7   12.19    1.33
  -8  -6   7    1.82    0.49
  -8   6   7    2.17    0.84
  -6  -6   7    0.89    0.45
  -6   6   7    1.43    0.83
  -4  -6   7    6.43    0.94
  -4  -6   7    7.98    0.79
  -4   6   7    7.20    1.21
  -2  -6   7    0.46    0.62
  -2  -6   7    0.83    0.46
   2   6  -7    1.28    0.54
  -2   6   7    0.10    0.79
   0  -6   7   -0.21    0.44
   0  -6   7    0.84    0.64
   0   6  -7    0.40    0.51
   0   6   7    0.83    0.79
   2  -6   7   11.55    0.86
   2  -6   7    9.49    1.04
  -2   6  -7    8.40    0.89
   2   6   7   10.17    1.23
   4  -6   7    9.29    0.82
   4   6   7    9.85    1.24
  -4   6  -7    9.05    0.88
   6  -6   7    7.68    0.79
  -6   6  -7    6.68    0.81
   6   6   7    6.23    1.15
   8  -6   7    1.26    0.46
  -8   6  -7    0.74    0.52
  10  -6   7    5.29    0.69
  12  -6   7    0.69    0.40
  14  -6   7    3.03    0.45
  54   0  -8   37.28    1.44
 -54   0   8   37.74    1.48
 -52   0   8    4.78    0.72
  52   0  -8    3.93    0.60
 -50   0   8    5.94    0.78
  50   0  -8    5.37    0.67
  48   0  -8    0.74    0.58
 -48   0   8    1.19    0.48
 -46   0   8   29.16    1.32
 -46   0   8   20.39    1.70
  46   0  -8   29.11    1.32
 -44   0   8   25.70    1.23
  44   0  -8   23.93    1.24
 -44   0   8   19.12    1.51
 -42   0   8   69.36    2.52
 -42   0   8   61.10    2.97
  42   0  -8   69.38    2.38
  40   0  -8    6.57    0.84
 -40   0   8    6.28    1.06
 -40   0   8    5.39    0.79
 -40   0   8    7.27    0.94
 -38   0   8   36.67    1.56
 -38   0   8   35.21    1.63
  38   0  -8   35.07    1.50
 -38   0   8   35.04    1.94
 -36   0   8    2.17    0.49
 -36   0   8    1.41    0.48
 -36   0   8    1.32    0.58
 -36   0   8    1.87    0.71
  36   0  -8    2.96    0.55
 -34   0   8   33.50    1.44
  34   0  -8   30.46    1.37
 -34   0   8   33.68    1.51
 -34   0   8   35.02    1.58
 -34   0   8   31.31    1.78
 -34   0   8   32.26    1.35
 -32   0   8   -0.02    0.38
 -32   0   8    0.68    0.47
  32   0  -8    0.28    0.47
 -32   0   8   -0.89    0.35
 -32   0   8    0.33    0.55
 -32   0   8    0.22    0.46
 -30   0   8   10.72    0.78
 -30   0   8   10.53    0.76
 -30   0   8   12.43    1.05
 -30   0   8   12.65    0.97
 -30   0   8   12.06    0.91
 -28   0   8   12.59    1.02
 -28   0   8   12.12    0.88
 -28   0   8   11.86    0.75
 -28   0   8   12.02    0.95
 -28   0   8   11.08    0.75
 -26   0   8   44.34    2.01
 -26   0   8   41.61    1.76
 -26   0   8   41.49    1.54
 -26   0   8   41.83    1.65
 -26   0   8   45.59    1.68
 -24   0   8    0.76    0.40
 -24   0   8    0.54    0.31
 -24   0   8    0.86    0.37
 -24   0   8    0.69    0.45
 -24   0   8    0.58    0.44
 -22   0   8   50.07    1.89
 -22   0   8   50.97    2.00
 -22   0   8   55.94    2.27
 -20   0   8  149.69    5.50
 -20   0   8  141.88    4.58
 -18   0   8   44.68    1.96
 -16   0   8  178.09    6.59
 -14   0   8    9.43    0.74
 -12   0   8   29.26    1.38
 -10   0   8    1.28    0.36
  -8   0   8   50.51    2.11
  -6   0   8   29.52    1.38
  -4   0   8  243.99    8.87
  -2   0   8   12.78    0.83
   0   0   8   37.43    1.67
   2   0   8    0.66    0.34
   2   0   8    0.78    0.30
   4   0   8    1.32    0.38
   4   0   8    1.45    0.34
   6   0   8   41.07    1.67
   8   0   8   36.57    1.55
   8   0   8   35.52    1.53
  10   0   8   19.76    1.08
  10   0   8   18.41    1.10
  10   0   8   19.88    1.05
  12   0   8   45.49    1.89
  12   0   8   44.59    2.36
  12   0   8   45.28    1.83
  12   0   8   45.35    1.83
  14   0   8    7.09    0.78
  14   0   8    6.64    1.25
  14   0   8    6.66    0.87
  14   0   8    5.84    0.81
  16   0   8   43.23    1.81
  16   0   8   42.54    1.82
  16   0   8   42.76    2.36
  16   0   8   44.07    1.89
  18   0   8  106.79    3.68
  18   0   8  101.12    3.54
  18   0   8   99.83    4.50
  18   0   8  102.28    3.84
  20   0   8    7.31    0.95
  20   0   8    7.81    0.89
  20   0   8    7.19    0.98
  20   0   8    6.56    1.37
  22   0   8   18.46    1.24
  22   0   8   17.11    1.25
  22   0   8   18.28    1.22
  22   0   8   18.99    1.70
  24   0   8   29.74    1.97
  24   0   8   28.31    1.48
  24   0   8   25.75    1.48
  24   0   8   25.61    1.47
  26   0   8  160.27    6.08
  26   0   8  174.45    7.04
  26   0   8  173.57    5.55
  28   0   8   -0.06    0.58
  28   0   8    0.44    0.87
  30   0   8   14.11    1.57
  30   0   8   13.73    1.15
  32   0   8   38.43    2.27
  32   0   8   38.19    1.73
  34   0   8    5.13    0.93
  34   0   8    3.20    0.71
  36   0   8    0.24    0.77
  36   0   8    0.40    0.59
 -38   0  -8    2.03    0.45
  38   0   8    3.06    0.80
 -40   0  -8    5.48    0.59
  53  -1  -8    5.55    0.77
 -53  -1   8    5.34    0.70
 -53   1   8    4.87    0.63
  53   1  -8    3.75    0.56
  51  -1  -8    1.99    0.53
 -51  -1   8    1.71    0.47
 -51   1   8    2.50    0.46
  51   1  -8    3.61    0.56
  49  -1  -8    5.87    0.85
 -49  -1   8    6.14    0.76
  49   1  -8    7.64    0.86
 -49   1   8    6.80    0.75
 -47  -1   8    7.99    0.83
 -47  -1   8    7.61    0.97
  47  -1  -8    6.57    0.96
 -47   1   8    7.15    1.16
 -47   1   8   10.34    0.85
  47   1  -8   10.48    0.92
 -45  -1   8    4.04    0.69
 -45  -1   8    3.79    0.57
 -45   1   8    4.43    0.76
  45   1  -8    5.03    0.68
 -45   1   8    3.46    0.87
 -43  -1   8    6.75    0.88
 -43  -1   8    7.28    0.97
 -43   1   8    5.66    0.79
  43   1  -8    8.22    0.87
 -43   1   8    6.02    1.14
 -41  -1   8   11.96    1.09
 -41  -1   8   10.42    0.90
 -41  -1   8    9.89    1.04
 -41   1   8    8.93    0.85
 -41   1   8   11.41    1.26
  41   1  -8   11.05    0.91
 -39  -1   8   53.17    2.09
 -39  -1   8   54.50    2.10
 -39  -1   8   50.91    2.19
 -39  -1   8   52.78    1.97
 -39   1   8   42.88    2.30
  39   1  -8   46.49    1.76
 -39   1   8   45.40    1.80
 -37  -1   8   19.03    1.11
 -37  -1   8   19.24    1.27
 -37  -1   8   18.23    1.21
 -37  -1   8   18.44    1.11
 -37   1   8   18.09    1.01
 -37   1   8   16.40    1.39
  37   1  -8   18.03    1.00
 -35  -1   8   21.62    1.15
 -35  -1   8   22.04    1.35
 -35  -1   8   23.16    1.30
 -35  -1   8   25.08    1.23
 -35   1   8   20.98    1.10
 -35   1   8   22.79    1.53
  35   1  -8   22.47    1.10
 -33  -1   8    1.32    0.55
 -33  -1   8    0.27    0.43
 -33  -1   8    0.18    0.40
 -33  -1   8    0.97    0.53
  33   1  -8   -0.01    0.40
 -33   1   8    0.71    0.65
 -33   1   8    0.46    0.38
 -31  -1   8    3.83    0.59
 -31  -1   8    3.19    0.52
 -31  -1   8    3.90    0.68
 -31  -1   8    3.54    0.63
 -31   1   8    3.31    0.73
 -31   1   8    3.62    0.59
  31   1  -8    2.27    0.45
 -29  -1   8    0.96    0.38
 -29  -1   8    0.06    0.45
 -29  -1   8    1.25    0.43
 -29  -1   8    1.17    0.53
  29   1  -8    1.43    0.38
 -29   1   8    1.09    0.64
 -29   1   8    1.70    0.36
 -27  -1   8   36.50    1.52
 -27  -1   8   36.49    1.42
 -27  -1   8   36.79    1.65
 -27  -1   8   38.70    1.84
 -27  -1   8   34.66    1.49
 -27   1   8   38.84    1.88
 -27   1   8   35.03    1.40
  27   1  -8   34.43    1.36
 -25  -1   8    7.52    0.77
 -25  -1   8    8.37    0.70
 -25  -1   8    7.37    0.66
 -25  -1   8    7.60    0.87
 -25  -1   8    7.42    0.83
  25   1  -8    5.95    0.60
 -25   1   8    6.05    0.88
 -25   1   8    5.77    0.58
 -23  -1   8    4.89    0.58
 -23  -1   8    5.01    0.56
 -23  -1   8    4.37    0.61
 -23  -1   8    4.02    0.67
 -23  -1   8    4.23    0.54
  23   1  -8    4.65    0.54
 -23   1   8    5.56    0.84
 -21  -1   8   59.35    2.23
 -21  -1   8   61.63    2.59
 -21  -1   8   56.06    2.01
 -21  -1   8   59.86    2.08
 -21  -1   8   56.37    2.42
  21   1  -8   57.35    1.97
 -21   1   8   62.45    2.57
 -19  -1   8   35.39    1.41
 -19  -1   8   36.15    1.40
 -19  -1   8   35.64    1.62
 -19   1   8   39.80    1.85
 -17  -1   8  106.34    4.05
 -17   1   8  116.63    4.51
 -15  -1   8   18.68    1.00
 -15   1   8   20.51    1.18
 -13  -1   8    7.88    0.63
 -13   1   8    8.60    0.77
 -11  -1   8   28.18    1.30
 -11   1   8   27.30    1.36
  -9  -1   8   99.16    3.78
  -9   1   8   95.54    3.71
  -7  -1   8   62.34    2.49
  -7   1   8   62.48    2.56
  -5  -1   8   47.13    1.96
  -5   1   8   44.92    1.95
  -3  -1   8    3.14    0.47
  -3   1   8    3.73    0.54
  -1  -1   8    4.07    0.50
  -1   1   8    3.15    0.42
  -1   1   8    2.88    0.49
   1   1   8   54.07    2.28
   1   1   8   54.27    2.02
   3   1   8   13.83    0.77
   3   1   8   13.59    0.92
   5  -1   8    4.78    0.72
  -5   1  -8    5.94    0.54
   5   1   8    6.34    0.61
   5   1   8    6.21    0.71
   7  -1   8    9.39    0.87
   7   1   8   10.81    0.74
  -7   1  -8    8.97    0.63
   9  -1   8    8.97    0.89
   9  -1   8    8.63    0.77
  -9   1  -8    8.62    0.62
   9   1   8    7.11    0.79
   9   1   8    8.81    0.72
   9   1   8    8.58    0.74
  11  -1   8   43.87    1.81
  11  -1   8   42.48    1.84
  11   1   8   45.00    2.30
 -11   1  -8   43.05    1.55
  11   1   8   44.22    1.81
  11   1   8   41.57    1.72
  11   1   8   42.70    1.76
  13  -1   8   62.37    2.50
  13  -1   8   62.60    2.39
  13   1   8   58.93    2.93
  13   1   8   62.44    2.38
  13   1   8   57.31    2.24
  15  -1   8   38.31    1.77
  15  -1   8   41.06    1.79
  15   1   8   43.25    2.30
  15   1   8   37.51    1.66
  15   1   8   39.01    1.76
  17  -1   8   33.71    1.62
  17  -1   8   33.08    1.65
  17   1   8   33.85    1.52
  17   1   8   31.64    2.10
  17   1   8   34.33    1.62
  19  -1   8   32.15    1.61
  19  -1   8   34.06    1.68
  19   1   8   33.50    2.11
  19   1   8   30.76    1.56
  19   1   8   30.27    1.47
  21  -1   8   28.50    1.47
  21  -1   8   24.83    1.52
  21   1   8   29.58    1.45
  21   1   8   28.84    1.52
  21   1   8   29.27    2.06
  23  -1   8   10.98    1.22
  23  -1   8   11.49    1.04
  23   1   8   11.05    1.00
  23   1   8    8.96    0.96
  23   1   8   11.30    1.57
  25  -1   8    3.07    0.63
  25  -1   8    2.69    0.74
  25   1   8    2.00    0.91
  25   1   8    1.89    0.58
  25   1   8    2.63    0.62
  27  -1   8    2.57    0.74
  27   1   8    2.00    0.94
 -27   1  -8    1.95    0.50
  27   1   8    2.28    0.64
  29  -1   8   18.25    1.36
 -29   1  -8   17.15    1.00
  29   1   8   16.54    1.20
  29   1   8   19.25    1.75
  31  -1   8   24.89    1.48
  31   1   8   25.21    1.38
 -31   1  -8   26.05    1.19
  31   1   8   27.11    2.00
  33  -1   8    8.66    1.10
  33   1   8    9.61    0.99
  33   1   8    7.05    1.47
 -33   1  -8    8.19    0.79
  35  -1   8    9.18    1.08
 -35   1  -8    8.95    0.76
  35   1   8    8.97    1.44
  37  -1   8   -0.19    0.60
  37   1   8    2.10    0.81
 -37   1  -8    0.55    0.40
  39  -1   8   10.64    0.95
 -39   1  -8   10.60    0.66
 -52   2   8    8.78    0.64
  52   2  -8    8.53    0.73
 -50  -2   8   15.51    0.99
  50   2  -8   14.65    0.92
 -50   2   8   15.24    0.83
 -48  -2   8    2.17    0.58
 -48   2   8    2.21    0.42
  48   2  -8    1.75    0.53
 -46  -2   8   11.92    1.03
  46   2  -8    8.13    0.86
 -46   2   8    8.32    1.15
 -46   2   8    8.51    0.74
 -44  -2   8    3.06    0.66
 -44  -2   8    3.30    0.66
  44   2  -8    1.58    0.53
 -44   2   8    2.06    0.78
 -44   2   8    2.40    0.45
 -42  -2   8   14.58    1.10
 -42  -2   8   14.74    1.22
 -42  -2   8   15.36    1.17
 -42   2   8   15.55    0.92
  42   2  -8   15.63    1.00
 -42   2   8   14.88    1.41
 -40  -2   8   14.15    1.19
 -40  -2   8   15.02    1.03
 -40  -2   8   14.18    1.14
 -40  -2   8   12.80    1.02
  40   2  -8   15.20    1.01
 -40   2   8   14.96    0.89
 -40   2   8   15.31    1.42
 -38  -2   8   25.85    1.48
 -38  -2   8   27.12    1.44
 -38  -2   8   26.84    1.34
 -38  -2   8   27.95    1.37
 -38   2   8   21.19    1.07
  38   2  -8   23.18    1.16
 -38   2   8   22.20    1.61
 -36  -2   8   14.60    1.16
 -36  -2   8   14.87    1.05
 -36  -2   8   16.41    1.26
 -36  -2   8   14.21    1.04
 -36   2   8   13.48    1.34
  36   2  -8   13.21    0.93
 -36   2   8   14.15    0.83
 -34  -2   8   71.21    2.75
 -34  -2   8   70.42    2.42
 -34  -2   8   67.75    2.57
 -34  -2   8   69.71    2.63
  34   2  -8   60.81    2.08
 -34   2   8   57.26    2.12
 -34   2   8   56.54    2.75
 -32  -2   8   78.60    2.92
 -32  -2   8   76.87    2.57
 -32  -2   8   72.46    3.38
 -32  -2   8   74.56    2.79
 -32  -2   8   77.43    2.73
 -32   2   8   78.13    2.73
 -32   2   8   76.28    3.40
  32   2  -8   79.59    2.62
 -30  -2   8   18.21    1.31
 -30  -2   8   16.94    1.13
 -30  -2   8   18.36    1.02
 -30  -2   8   17.50    1.05
 -30  -2   8   17.32    1.28
 -30   2   8   17.46    1.38
 -30   2   8   17.09    0.89
  30   2  -8   17.94    0.94
 -28  -2   8   59.09    2.77
 -28  -2   8   59.78    2.28
 -28  -2   8   60.06    2.23
 -28  -2   8   62.84    2.12
 -28  -2   8   61.44    2.41
 -28   2   8   57.84    2.65
 -28   2   8   56.81    2.05
  28   2  -8   56.85    1.99
 -26  -2   8    4.81    0.58
 -26  -2   8    4.19    0.65
 -26  -2   8    3.73    0.66
 -26  -2   8    4.69    0.72
 -26  -2   8    3.29    0.52
 -26   2   8    2.19    0.68
  26   2  -8    2.04    0.45
 -24  -2   8   69.80    2.57
 -24  -2   8   72.96    3.10
 -24  -2   8   67.97    2.65
 -24  -2   8   71.54    2.47
 -24   2   8   71.61    3.06
  24   2  -8   69.84    2.35
 -22  -2   8    8.37    0.72
 -22  -2   8    7.49    0.75
 -22  -2   8    9.37    0.85
 -22  -2   8    8.75    0.96
 -22  -2   8    7.11    0.69
 -22   2   8    9.36    0.99
  22   2  -8    8.69    0.66
 -20  -2   8   22.60    1.10
 -20  -2   8   23.32    1.29
 -20  -2   8   23.75    1.32
 -20  -2   8   22.61    1.07
 -20  -2   8   22.97    1.09
 -20   2   8   26.04    1.50
  20   2  -8   26.21    1.08
 -18  -2   8    1.64    0.40
 -18  -2   8    1.89    0.41
 -18  -2   8    1.88    0.35
 -18  -2   8    2.08    0.41
 -18  -2   8    2.47    0.51
 -18  -2   8    2.04    0.55
  18   2  -8    1.83    0.38
 -18   2   8    2.57    0.63
 -18   2   8    1.76    0.63
 -16  -2   8   10.35    0.70
 -16  -2   8    9.80    0.83
 -16  -2   8   10.03    0.72
 -16  -2   8    9.90    0.92
 -16  -2   8    9.50    0.66
 -16  -2   8    9.63    0.73
 -16   2   8    8.54    1.07
  16   2  -8    9.32    0.62
 -16   2   8   11.27    0.98
 -14  -2   8   15.65    1.07
 -14  -2   8   18.86    0.87
 -14  -2   8   16.03    0.85
 -14  -2   8   17.43    1.04
 -14  -2   8   15.95    0.86
 -14  -2   8   15.54    0.83
 -14   2   8   16.44    1.13
 -14   2   8   16.84    1.28
  14   2  -8   15.97    0.78
 -12  -2   8   31.60    1.51
 -12  -2   8   28.97    1.25
 -12  -2   8   29.47    1.23
 -12   2   8   28.43    1.73
 -12   2   8   30.56    1.56
  12   2  -8   30.30    1.14
 -10  -2   8  141.11    5.67
 -10  -2   8  142.11    4.37
 -10  -2   8  142.67    4.55
 -10   2   8  147.53    5.41
  10   2  -8  138.65    4.34
 -10   2   8  141.02    6.07
  -8  -2   8   18.82    0.93
  -8  -2   8   18.02    0.92
   8   2  -8   18.76    0.83
  -8   2   8   20.42    1.38
  -8   2   8   20.52    1.20
  -6  -2   8   67.91    2.29
  -6  -2   8   70.09    2.48
  -6  -2   8   68.18    2.36
   6   2  -8   70.75    2.32
  -6   2   8   74.56    2.95
  -6   2   8   70.79    3.31
  -4  -2   8  131.90    4.05
  -4  -2   8  135.80    4.22
  -4  -2   8  124.43    4.23
  -4   2   8  112.03    5.04
   4   2  -8  116.72    3.61
  -4   2   8  120.60    4.49
  -2  -2   8   18.11    0.90
  -2  -2   8   15.45    0.96
  -2  -2   8   16.40    0.85
  -2  -2   8   18.90    0.90
  -2   2   8   21.83    1.40
  -2   2   8   21.72    1.22
   2   2  -8   19.75    0.88
   0  -2   8   44.99    1.63
   0  -2   8   45.73    1.79
   0  -2   8   45.62    1.72
   0  -2   8   49.29    1.69
   0   2  -8   39.76    1.44
   0   2   8   42.54    1.87
   0   2   8   42.09    2.13
   0   2   8   39.48    1.53
   2  -2   8   34.51    1.39
   2  -2   8   34.63    1.31
   2  -2   8   34.75    1.51
   2  -2   8   36.17    1.39
   2   2   8   34.79    1.64
   2   2   8   32.47    1.39
   2   2   8   33.43    1.34
   2   2   8   34.38    1.86
  -2   2  -8   33.85    1.26
   4  -2   8   54.30    1.86
   4  -2   8   49.06    1.86
   4  -2   8   50.99    1.79
   4  -2   8   51.58    1.98
  -4   2  -8   51.62    1.81
   4   2   8   50.19    2.56
   4   2   8   54.03    2.26
   4   2   8   54.79    1.99
   6  -2   8   19.29    1.00
   6  -2   8   19.23    1.13
   6  -2   8   19.16    0.95
  -6   2  -8   17.58    0.84
   6   2   8   16.61    0.91
   6   2   8   18.02    1.10
   6   2   8   18.05    0.92
   8  -2   8   32.78    1.38
   8  -2   8   33.74    1.54
   8  -2   8   32.94    1.33
   8   2   8   30.23    1.32
   8   2   8   28.75    1.27
  -8   2  -8   29.09    1.17
  10  -2   8   67.05    2.33
  10  -2   8   69.87    2.38
  10  -2   8   69.33    2.57
  10   2   8   63.53    2.37
  10   2   8   66.36    2.50
 -10   2  -8   65.12    2.19
  12  -2   8   41.33    1.81
  12  -2   8   40.69    1.58
  12   2   8   39.26    1.68
  12   2   8   37.80    1.59
 -12   2  -8   38.61    1.46
  14  -2   8   32.47    1.39
  14  -2   8   35.51    1.65
  14   2   8   31.05    1.46
 -14   2  -8   29.73    1.26
  14   2   8   30.42    1.37
  16  -2   8   33.79    1.45
  16  -2   8   37.64    1.74
  16   2   8   37.90    1.60
 -16   2  -8   37.73    1.46
  16   2   8   35.97    1.69
  16   2   8   36.88    2.23
  18  -2   8  121.13    4.15
  18  -2   8  118.53    3.84
  18   2   8  110.41    3.89
  18   2   8  109.65    4.87
 -18   2  -8  111.94    3.54
  18   2   8  110.42    4.09
  20  -2   8    8.06    1.13
  20  -2   8    7.61    0.85
  20   2   8    4.96    0.87
  20   2   8    4.47    0.67
  20   2   8    5.12    1.01
 -20   2  -8    5.17    0.71
  22  -2   8    2.35    0.54
  22  -2   8    4.02    0.78
  22   2   8    3.72    0.61
 -22   2  -8    2.39    0.48
  22   2   8    3.58    0.63
  22   2   8    3.61    0.99
  24  -2   8    2.15    0.55
  24  -2   8    1.77    0.74
 -24   2  -8    2.76    0.51
  24   2   8    2.94    0.61
  24   2   8    3.16    0.99
  26  -2   8   51.06    1.94
  26  -2   8   54.79    2.27
 -26   2  -8   55.32    1.94
  26   2   8   52.24    2.89
  26   2   8   53.73    2.19
  28  -2   8   17.71    1.01
  28  -2   8   16.83    1.36
  28   2   8   21.83    1.86
 -28   2  -8   20.53    1.07
  28   2   8   21.64    1.26
  30  -2   8    1.50    0.70
  30   2   8    1.02    0.57
  30   2   8    2.13    0.88
 -30   2  -8    1.46    0.42
  32  -2   8    9.03    0.88
  32  -2   8    8.82    1.12
  32   2   8   10.97    0.96
 -32   2  -8    9.29    0.72
  32   2   8    9.23    1.45
  34  -2   8   11.39    1.08
  34  -2   8    7.34    0.81
  34   2   8    7.20    0.89
 -34   2  -8    8.32    0.65
  36  -2   8    1.56    0.66
  36   2   8    0.49    0.53
  38  -2   8   15.20    1.02
 -49   3   8    7.93    0.54
 -47  -3   8   48.65    1.84
 -47   3   8   38.65    1.44
  47   3  -8   39.19    1.45
 -45  -3   8    5.04    0.66
 -45  -3   8    5.95    0.71
  45   3  -8    5.80    0.73
 -45   3   8    6.30    0.57
 -43  -3   8    7.99    1.00
 -43  -3   8    8.72    1.06
  43   3  -8    7.52    0.79
 -43   3   8    6.08    0.60
 -41  -3   8    0.85    0.60
 -41  -3   8    0.26    0.58
  41   3  -8    0.74    0.49
 -41   3   8    0.29    0.34
 -41   3   8    0.92    0.68
 -39  -3   8    4.74    0.75
 -39  -3   8    4.17    0.70
 -39   3   8    3.15    0.55
 -39   3   8    3.45    0.83
  39   3  -8    3.62    0.60
 -37  -3   8   12.30    1.10
 -37  -3   8   13.79    1.26
 -37  -3   8   14.40    1.00
 -37   3   8   11.56    0.74
  37   3  -8   12.23    0.92
 -37   3   8   12.02    1.25
 -35  -3   8   11.80    1.12
 -35  -3   8   12.43    0.98
 -35  -3   8   13.65    1.25
  35   3  -8   12.37    0.90
 -35   3   8    9.40    0.71
 -35   3   8    9.53    1.19
 -33  -3   8   19.00    1.37
 -33  -3   8   16.40    1.20
 -33  -3   8   18.52    1.09
  33   3  -8   18.35    1.03
 -33   3   8   18.02    1.43
 -31  -3   8   20.85    1.42
 -31  -3   8   19.81    1.09
 -31  -3   8   17.55    1.23
 -31   3   8   16.14    1.33
  31   3  -8   14.37    0.96
 -29  -3   8    0.62    0.66
 -29  -3   8    1.46    0.43
 -29  -3   8    0.93    0.48
  29   3  -8    0.95    0.48
 -29   3   8    0.67    0.68
 -27  -3   8    0.12    0.44
 -27  -3   8    1.15    0.49
 -27  -3   8   -0.04    0.66
 -27  -3   8    0.21    0.60
 -27   3   8    0.68    0.67
  27   3  -8    0.20    0.44
 -25  -3   8    7.79    0.73
 -25  -3   8    8.31    0.80
 -25  -3   8    7.57    1.13
 -25  -3   8    8.38    1.00
  25   3  -8    6.52    0.73
 -25   3   8    7.23    1.08
 -23  -3   8    3.61    0.51
 -23  -3   8    3.06    0.70
 -23  -3   8    4.95    0.61
 -23  -3   8    4.95    0.90
 -23   3   8    3.46    0.78
 -23   3   8    4.77    0.78
  23   3  -8    4.03    0.53
 -21  -3   8   18.57    0.96
 -21  -3   8   19.23    1.30
 -21  -3   8   18.54    1.31
  21   3  -8   18.97    0.98
 -21   3   8   18.07    1.27
 -21   3   8   18.35    1.37
 -21   3   8   19.91    1.54
 -19  -3   8   46.18    2.05
 -19  -3   8   47.07    2.28
 -19  -3   8   49.14    1.82
 -19  -3   8   46.70    1.72
 -19   3   8   47.84    1.94
 -19   3   8   49.51    2.59
 -19   3   8   50.19    2.32
 -19   3   8   49.08    2.15
  19   3  -8   49.92    1.78
 -17  -3   8   16.43    1.19
 -17  -3   8   16.64    0.97
 -17  -3   8   16.02    0.93
 -17   3   8   13.27    1.18
  17   3  -8   14.98    0.86
 -17   3   8   14.88    1.02
 -17   3   8   14.66    1.17
 -17   3   8   15.26    1.42
 -15  -3   8   74.18    2.46
 -15  -3   8   75.18    2.53
 -15  -3   8   71.91    3.22
  15   3  -8   73.56    2.35
 -15   3   8   69.11    2.52
 -15   3   8   66.50    2.82
 -15   3   8   69.35    3.36
 -15   3   8   70.12    2.97
 -13  -3   8   44.81    1.71
 -13  -3   8   45.74    1.66
 -13  -3   8   44.52    1.78
 -13  -3   8   43.53    2.14
 -13   3   8   40.53    1.71
 -13   3   8   42.68    1.98
 -13   3   8   41.35    2.00
  13   3  -8   43.41    1.57
 -13   3   8   42.47    2.31
 -11  -3   8    1.63    0.43
 -11  -3   8    0.55    0.46
 -11  -3   8    1.46    0.52
 -11  -3   8    1.34    0.43
 -11   3   8    0.95    0.66
 -11   3   8    1.95    0.73
 -11   3   8    1.20    0.51
  11   3  -8    1.18    0.37
 -11   3   8    1.19    0.55
  -9  -3   8   33.80    1.40
  -9  -3   8   34.35    1.35
  -9  -3   8   34.16    1.47
  -9  -3   8   33.54    1.74
  -9   3   8   28.21    1.61
  -9   3   8   27.69    1.55
   9   3  -8   30.32    1.19
  -9   3   8   30.56    1.84
  -9   3   8   29.16    1.36
  -7  -3   8   15.22    0.91
  -7  -3   8   14.85    0.97
  -7  -3   8   14.27    1.07
  -7  -3   8   14.60    0.86
  -7   3   8   14.16    1.05
   7   3  -8   14.03    0.80
  -7   3   8   13.16    1.23
  -7   3   8   16.93    1.35
  -7   3   8   13.65    0.95
  -5  -3   8   34.48    1.36
  -5  -3   8   33.54    1.44
  -5  -3   8   35.29    1.50
  -5  -3   8   34.10    1.77
   5   3  -8   34.19    1.30
  -5   3   8   33.36    1.46
  -5   3   8   32.29    1.95
  -5   3   8   33.78    1.68
  -3  -3   8   16.96    1.02
  -3  -3   8   14.83    1.11
  -3  -3   8   15.91    0.90
  -3  -3   8   15.83    0.94
  -3   3   8   16.65    1.01
  -3   3   8   17.12    1.11
   3   3  -8   16.70    0.85
  -3   3   8   16.43    1.38
  -1  -3   8   20.82    1.15
  -1  -3   8   21.87    1.13
  -1  -3   8   21.50    1.05
   1   3  -8   19.10    0.93
  -1   3   8   20.36    1.08
  -1   3   8   19.68    1.22
  -1   3   8   21.30    1.51
   1  -3   8    4.80    0.73
   1  -3   8    4.01    0.57
   1  -3   8    4.00    0.58
   1  -3   8    4.89    0.67
   1   3   8    5.35    1.06
  -1   3  -8    3.45    0.55
   1   3   8    3.59    0.61
   1   3   8    3.68    0.58
   3  -3   8   48.11    1.96
   3  -3   8   51.66    1.97
   3  -3   8   50.96    1.83
   3  -3   8   52.45    1.91
  -3   3  -8   45.75    1.62
   3   3   8   44.35    2.36
   3   3   8   43.34    2.00
   5  -3   8    6.43    0.84
   5  -3   8    7.09    0.84
   5  -3   8    7.53    0.76
   5  -3   8    7.23    0.72
  -5   3  -8    6.99    0.65
   5   3   8    8.93    1.16
   7  -3   8   22.21    1.23
   7  -3   8   22.72    1.27
   7  -3   8   24.00    1.14
   7  -3   8   24.65    1.20
  -7   3  -8   24.28    1.04
   7   3   8   22.65    1.09
   7   3   8   20.20    1.54
   9  -3   8   12.93    1.03
   9  -3   8   11.28    0.89
   9  -3   8   11.47    0.97
   9  -3   8   12.91    0.92
  -9   3  -8   11.68    0.78
   9   3   8   11.83    0.83
   9   3   8   11.10    1.22
  11  -3   8   14.16    0.98
  11  -3   8   13.75    1.07
  11  -3   8   12.77    0.95
  11  -3   8   13.08    0.96
  11   3   8   12.30    0.89
 -11   3  -8   13.77    0.82
  11   3   8   12.33    0.86
  13  -3   8    2.23    0.56
  13  -3   8    2.27    0.56
  13  -3   8    1.65    0.50
  13  -3   8    2.85    0.66
  13   3   8    3.31    0.50
  13   3   8    3.07    0.51
 -13   3  -8    2.63    0.47
  15  -3   8   16.89    1.04
  15  -3   8   15.03    1.03
  15  -3   8   16.05    1.24
  15   3   8   11.58    0.93
  15   3   8   14.47    0.96
 -15   3  -8   15.56    0.88
  17  -3   8   28.08    1.34
  17  -3   8   25.92    1.52
  17  -3   8   28.35    1.32
  17   3   8   20.49    1.15
 -17   3  -8   20.42    1.03
  19  -3   8   31.33    1.41
  19  -3   8   31.32    1.64
  19  -3   8   32.02    1.44
  19   3   8   32.31    1.49
 -19   3  -8   31.36    1.32
  21  -3   8    0.10    0.52
  21  -3   8   -0.24    0.50
  21  -3   8    0.96    0.68
  21   3   8    0.53    0.51
 -21   3  -8    0.74    0.42
  23  -3   8   40.42    1.67
  23  -3   8   42.33    1.91
  23  -3   8   41.00    1.65
 -23   3  -8   37.33    1.45
  23   3   8   38.60    1.70
  25  -3   8   32.05    1.65
  25  -3   8   32.73    1.42
  25   3   8   29.97    1.46
  27  -3   8    1.63    0.49
  27  -3   8    0.06    0.65
  27   3   8    1.66    0.55
  29  -3   8    1.72    0.48
  29  -3   8    2.90    0.72
  29   3   8    2.46    0.58
  31  -3   8    5.20    0.71
  31  -3   8    6.81    1.00
  31   3   8    5.17    0.84
  33  -3   8    2.56    0.63
  33  -3   8    1.35    0.40
  33   3   8    1.78    0.52
  35  -3   8    4.40    0.61
  35   3   8    6.26    0.77
 -44  -4   8    3.73    0.56
 -44   4   8    4.47    0.59
 -42  -4   8    0.35    0.50
 -42  -4   8   -0.22    0.50
 -42   4   8    0.30    0.51
 -40  -4   8    5.75    0.93
 -40  -4   8    6.19    0.92
 -40   4   8    5.42    0.67
 -38  -4   8    0.62    0.58
 -38  -4   8    1.75    0.50
 -38  -4   8    1.12    0.63
 -36  -4   8   18.13    1.30
 -36  -4   8   18.96    1.22
 -36  -4   8   17.77    1.16
  36   4  -8   15.72    0.96
 -34  -4   8   16.75    1.27
 -34  -4   8   15.83    0.97
 -34  -4   8   16.37    1.15
 -34  -4   8   14.90    1.16
 -34   4   8   11.05    1.13
  34   4  -8   13.89    0.91
 -32  -4   8    1.74    0.56
 -32  -4   8    1.31    0.62
 -32  -4   8    0.72    0.70
 -32  -4   8    1.88    0.47
 -32  -4   8    1.31    0.56
  32   4  -8    2.87    0.55
 -32   4   8    2.63    0.71
 -30  -4   8   11.74    0.89
 -30  -4   8   10.64    0.80
 -30  -4   8   11.22    1.23
 -30  -4   8    9.16    1.05
  30   4  -8    8.95    0.84
 -30   4   8    8.65    1.05
 -30   4   8    9.71    1.02
 -28  -4   8    2.13    0.48
 -28  -4   8    1.94    0.60
 -28  -4   8    1.72    0.74
 -28  -4   8    1.89    0.53
  28   4  -8    2.70    0.51
 -28   4   8    1.93    0.69
 -28   4   8    1.62    0.63
 -26  -4   8    5.45    0.74
 -26  -4   8    5.16    0.79
 -26  -4   8    7.04    1.19
  26   4  -8    4.99    0.77
 -26   4   8    5.42    0.74
 -24  -4   8   24.88    1.20
 -24  -4   8   24.17    1.14
 -24  -4   8   24.15    1.58
 -24   4   8   19.67    1.26
 -24   4   8   20.39    1.76
  24   4  -8   23.03    1.11
 -22  -4   8   29.63    1.73
 -22  -4   8   32.53    1.35
 -22  -4   8   29.71    1.32
 -22   4   8   26.06    1.92
  22   4  -8   29.84    1.27
 -22   4   8   27.87    1.44
 -20  -4   8    6.72    0.79
 -20  -4   8    8.20    1.18
 -20  -4   8    9.47    0.84
 -20   4   8    8.87    0.99
 -20   4   8   11.66    1.43
  20   4  -8    7.96    0.80
 -18  -4   8   37.18    1.51
 -18  -4   8   36.03    1.48
 -18   4   8   36.85    1.90
  18   4  -8   37.35    1.49
 -18   4   8   36.85    2.28
 -18   4   8   39.64    1.71
 -16  -4   8   17.33    1.02
 -16   4   8   17.18    1.60
 -16   4   8   14.43    1.26
  16   4  -8   14.94    0.95
 -16   4   8   17.24    1.16
 -14  -4   8   23.67    1.18
 -14  -4   8   25.56    1.26
 -14   4   8   25.89    1.36
 -14   4   8   22.62    1.82
 -14   4   8   25.10    1.49
  14   4  -8   25.84    1.17
 -12  -4   8    2.80    0.54
 -12  -4   8    3.06    0.66
 -12  -4   8    3.04    0.58
 -12   4   8    7.23    1.30
  12   4  -8    3.58    0.52
 -12   4   8    4.23    0.80
 -12   4   8    4.33    0.69
 -10  -4   8   43.03    2.35
 -10  -4   8   49.78    1.88
 -10  -4   8   50.10    2.01
 -10  -4   8   50.43    1.84
 -10   4   8   43.87    2.49
  10   4  -8   45.24    1.66
 -10   4   8   44.04    2.11
 -10   4   8   43.18    1.85
  -8  -4   8   55.45    2.09
  -8  -4   8   45.70    2.42
  -8  -4   8   50.28    1.89
  -8  -4   8   50.82    1.93
  -8   4   8   54.95    2.44
   8   4  -8   51.04    1.91
  -8   4   8   55.05    2.11
  -8   4   8   54.36    2.84
  -6  -4   8   37.16    1.53
  -6  -4   8   34.40    1.43
  -6  -4   8   30.27    1.84
  -6  -4   8   36.30    1.64
  -6   4   8   35.70    1.88
  -6   4   8   35.62    2.18
  -6   4   8   36.08    1.60
   6   4  -8   35.85    1.42
  -4  -4   8   12.81    0.94
  -4  -4   8   10.06    1.12
  -4  -4   8   12.20    1.12
  -4  -4   8   11.51    0.90
  -4   4   8   11.01    0.96
  -4   4   8   12.73    1.27
   4   4  -8   10.03    0.78
  -4   4   8   11.02    1.36
  -2  -4   8   27.11    1.46
  -2  -4   8   21.39    1.54
  -2  -4   8   26.27    1.26
  -2  -4   8   26.70    1.22
  -2   4   8   24.14    1.61
   2   4  -8   25.11    1.14
  -2   4   8   25.42    1.81
  -2   4   8   26.68    1.33
   0  -4   8   -0.12    0.62
   0  -4   8    0.99    0.48
   0  -4   8    1.13    0.51
   0   4  -8    1.53    0.42
   0   4   8    0.94    0.80
   0   4   8    0.24    0.74
   2  -4   8   18.13    1.07
   2  -4   8   17.81    1.07
   2  -4   8   18.85    1.27
   2   4   8   18.92    1.55
   2   4   8   15.36    1.40
  -2   4  -8   15.29    0.89
   4  -4   8   -0.11    0.46
   4  -4   8    0.69    0.63
   4  -4   8    0.11    0.48
   4   4   8    1.01    0.81
  -4   4  -8    0.73    0.38
   4   4   8    0.87    0.80
   6  -4   8    1.94    0.66
   6  -4   8    1.70    0.58
   6  -4   8    1.65    0.54
   6   4   8    2.54    0.89
   6   4   8    3.61    0.91
  -6   4  -8    2.45    0.43
   8  -4   8    3.72    0.57
   8  -4   8    5.21    0.71
   8  -4   8    4.57    0.75
   8   4   8    3.83    0.92
   8   4   8    4.83    0.97
  10  -4   8    3.88    0.73
  10  -4   8    4.01    0.59
  10  -4   8    6.13    0.99
  10   4   8    4.74    0.95
  10   4   8    4.41    0.72
  10   4   8    5.34    0.97
  12  -4   8   20.71    1.31
  12  -4   8   20.27    1.16
  12   4   8   15.85    0.97
  12   4   8   15.68    1.46
  14  -4   8    3.96    0.74
  14  -4   8    3.54    0.61
  14   4   8    5.31    0.99
  14   4   8    3.22    0.53
  16  -4   8    2.00    0.55
  16  -4   8    0.21    0.62
  16   4   8    3.61    0.92
  16   4   8    1.46    0.49
  18  -4   8   18.69    1.09
  18  -4   8   16.68    1.17
  18   4   8   18.37    1.06
  18   4   8   15.67    1.42
  20  -4   8   25.31    1.25
  20   4   8   29.06    1.36
  22  -4   8   17.05    1.19
  22  -4   8   15.25    1.00
  22   4   8   11.99    0.95
  24  -4   8    5.69    0.74
  24  -4   8    6.39    0.78
  24   4   8    6.34    0.82
  26  -4   8    2.68    0.50
  26  -4   8    2.52    0.62
  26   4   8    1.92    0.50
  28  -4   8    1.99    0.43
  28  -4   8    1.53    0.56
  28   4   8    2.86    0.53
  30   4   8    7.38    0.76
 -35  -5   8    0.63    0.49
 -35  -5   8    0.81    0.44
 -35  -5   8    1.52    0.53
 -35   5   8   -0.52    0.47
 -33  -5   8    1.49    0.52
 -33  -5   8    0.86    0.45
 -33  -5   8    1.79    0.59
 -33   5   8    1.14    0.55
 -31  -5   8    0.01    0.56
 -31  -5   8    0.58    0.51
 -31  -5   8    0.65    0.47
 -31   5   8    0.19    0.53
 -29  -5   8    9.07    0.74
 -29  -5   8    8.21    0.90
 -29  -5   8    9.83    1.07
 -29  -5   8    9.08    0.95
 -29   5   8    6.08    0.92
 -27  -5   8   19.20    1.14
 -27  -5   8   16.50    1.27
 -27  -5   8   16.86    0.91
 -27  -5   8   15.74    1.11
 -27   5   8   18.87    1.17
 -25  -5   8    3.15    0.51
 -25  -5   8    2.89    0.73
 -25  -5   8    1.97    0.57
 -25   5   8    1.77    0.62
 -23  -5   8    1.41    0.56
 -23  -5   8    0.83    0.68
 -23  -5   8    0.74    0.45
 -23   5   8    0.98    0.82
 -23   5   8    1.26    0.62
 -21  -5   8    0.35    0.58
 -21  -5   8    2.00    0.47
 -21  -5   8    1.66    0.74
 -21   5   8    1.44    0.86
 -21   5   8    2.30    0.64
 -19  -5   8   13.22    1.32
 -19  -5   8   15.70    0.94
 -19   5   8   14.59    1.10
 -19   5   8   15.20    1.50
 -17  -5   8   27.04    1.23
 -17   5   8   29.14    1.95
 -17   5   8   28.69    1.44
 -15  -5   8    9.29    0.88
 -15   5   8    7.80    1.38
 -15   5   8   11.37    1.01
 -13  -5   8    5.25    0.81
 -13   5   8    6.43    0.93
 -13   5   8    5.10    1.04
 -11  -5   8    7.36    0.83
 -11   5   8    8.40    1.35
 -11   5   8    6.87    0.98
  -9  -5   8    6.87    1.03
  -9  -5   8    6.67    0.80
  -9   5   8    7.45    1.32
  -9   5   8    7.56    1.19
  -9   5   8    9.44    0.98
  -7  -5   8   22.09    1.17
  -7  -5   8   23.84    1.39
  -7   5   8   22.61    1.73
  -7   5   8   21.66    1.52
  -5  -5   8   25.04    1.42
  -5  -5   8   21.66    1.19
  -5   5   8   19.89    1.66
  -5   5   8   20.74    1.44
  -3  -5   8   10.50    1.10
  -3  -5   8    5.74    0.87
  -3   5   8    8.41    1.32
  -3   5   8    7.97    1.17
  -1  -5   8    6.51    0.83
  -1  -5   8    5.35    0.80
  -1   5   8    4.08    0.86
  -1   5   8    6.69    1.29
   1  -5   8    9.70    0.88
   1  -5   8    9.71    1.10
   1   5   8    8.13    1.13
   1   5   8    8.22    1.31
   3  -5   8    4.90    0.81
   3  -5   8    4.41    0.63
   3   5   8    6.68    1.28
   3   5   8    4.57    0.85
   5  -5   8   11.70    0.93
   5  -5   8   10.87    1.13
   5   5   8   12.41    1.21
   5   5   8   11.87    1.43
   7  -5   8   22.09    1.35
   7  -5   8   22.64    1.17
   7   5   8   22.57    1.70
   7   5   8   22.23    1.45
   9  -5   8   22.27    1.39
   9  -5   8   23.40    1.18
   9   5   8   18.05    1.33
  11  -5   8   14.39    1.23
  11  -5   8   18.31    1.05
  11   5   8   15.97    1.27
  13  -5   8    4.14    0.58
  13  -5   8    2.66    0.70
  13   5   8    3.48    0.88
  15  -5   8    1.03    0.64
  15  -5   8    2.66    0.55
  15   5   8    2.16    0.42
  17  -5   8    0.89    0.49
  17   5   8    0.39    0.39
  19  -5   8    1.28    0.46
  19   5   8    1.33    0.39
  21  -5   8    6.14    0.72
  21   5   8    4.44    0.62
 -22  -6   8    1.33    0.54
 -20  -6   8    8.74    0.94
 -20  -6   8    9.46    0.68
 -18  -6   8    2.84    0.61
 -18  -6   8    2.49    0.41
 -18   6   8    3.22    0.76
 -16  -6   8    7.36    0.66
 -16  -6   8    5.54    0.69
 -16   6   8    8.43    1.15
 -14  -6   8   13.32    1.11
 -14  -6   8   15.40    0.85
 -14   6   8   17.04    1.39
 -12  -6   8   21.45    0.98
 -12  -6   8   19.57    1.25
 -12   6   8   20.29    1.49
 -10  -6   8    3.60    0.65
 -10   6   8    4.10    0.86
  -8  -6   8    2.07    0.46
  -8  -6   8   -0.37    0.54
  -8   6   8    1.30    0.77
  -6  -6   8    4.48    0.70
  -6   6   8    5.21    1.13
  -4  -6   8   12.13    0.82
  -4   6   8   13.35    1.33
  -2  -6   8    6.41    0.72
  -2   6   8    6.86    1.19
   0  -6   8    3.78    0.51
   0   6   8    3.73    0.87
   2  -6   8    0.48    0.41
   2   6   8    1.40    0.77
   4  -6   8    7.73    0.73
   6  -6   8    2.41    0.44
   8  -6   8    3.19    0.46
 -54   0   9    6.94    0.65
 -52   0   9    6.97    0.72
  52   0  -9    4.79    0.59
 -50   0   9    9.69    0.83
  50   0  -9   10.32    0.89
 -48   0   9    0.20    0.45
  48   0  -9    0.45    0.54
  46   0  -9    3.32    0.63
 -46   0   9    3.44    0.54
  44   0  -9   37.17    1.60
 -44   0   9   38.91    1.63
 -42   0   9   26.78    1.70
  42   0  -9   30.95    1.38
 -42   0   9   31.01    1.40
 -40   0   9   17.51    1.36
  40   0  -9   18.75    1.11
 -40   0   9   20.26    1.10
  38   0  -9    3.79    0.59
 -38   0   9    3.08    0.54
 -38   0   9    3.68    0.55
 -36   0   9   15.38    0.99
 -36   0   9   14.49    1.10
 -36   0   9   12.94    0.92
 -36   0   9   14.46    1.22
  36   0  -9   14.18    0.94
 -34   0   9   16.67    1.26
 -34   0   9   14.27    1.11
 -34   0   9   15.54    0.94
 -34   0   9   17.19    0.99
 -32   0   9    3.03    0.58
 -32   0   9    3.60    0.73
 -32   0   9    1.80    0.45
 -32   0   9    2.40    0.46
 -30   0   9    3.52    0.49
 -30   0   9    3.97    0.61
 -30   0   9    5.68    0.88
 -30   0   9    4.58    0.64
 -30   0   9    3.76    0.59
 -28   0   9    6.93    0.82
 -28   0   9    4.86    0.76
 -28   0   9    5.73    0.65
 -28   0   9    5.82    0.64
 -28   0   9    6.11    0.85
 -26   0   9    3.06    0.63
 -26   0   9    2.00    0.48
 -26   0   9    2.56    0.48
 -26   0   9    2.18    0.40
 -26   0   9    2.72    0.44
 -24   0   9   48.85    1.71
 -24   0   9   48.12    1.84
 -24   0   9   46.41    1.83
 -24   0   9   49.51    1.94
 -24   0   9   52.95    2.25
 -22   0   9   21.99    1.07
 -22   0   9   21.24    1.00
 -22   0   9   21.02    1.12
 -22   0   9   23.18    1.29
 -20   0   9  108.01    3.76
 -20   0   9  114.68    4.34
 -20   0   9  111.12    3.61
 -18   0   9   14.52    0.81
 -18   0   9   11.83    0.85
 -18   0   9   12.30    0.91
 -16   0   9    0.26    0.30
 -16   0   9    0.19    0.27
 -16   0   9    0.37    0.35
 -14   0   9   64.69    2.28
 -14   0   9   66.96    2.71
 -12   0   9    6.46    0.66
 -12   0   9    6.58    0.58
 -10   0   9   32.63    1.51
 -10   0   9   30.71    1.30
  -8   0   9    1.38    0.40
  -8   0   9    1.27    0.34
  -6   0   9    1.11    0.37
  -6   0   9    1.07    0.34
  -4   0   9    3.47    0.57
  -4   0   9    3.67    0.50
  -2   0   9    0.59    0.36
  -2   0   9    0.75    0.38
   0   0   9    3.76    0.52
   0   0   9    3.69    0.59
   2   0   9   82.14    3.17
   2   0   9   75.75    2.75
   4   0   9   14.79    0.87
   4   0   9   14.45    0.96
   6   0   9    2.48    0.53
   6   0   9    2.29    0.45
   8   0   9    2.03    0.52
   8   0   9    2.28    0.45
  10   0   9   12.71    0.90
  10   0   9   12.52    0.98
  12   0   9   24.28    1.32
  12   0   9   28.18    1.37
  14   0   9   12.75    1.02
  14   0   9   14.02    1.01
  16   0   9  182.15    5.95
  16   0   9  185.13    6.53
  18   0   9   82.85    3.26
  18   0   9   84.96    3.04
  20   0   9  120.17    4.04
  20   0   9  115.34    4.38
  22   0   9    9.31    1.06
  22   0   9    8.79    0.99
  22   0   9   11.91    1.45
  24   0   9   73.14    3.36
  24   0   9   66.21    2.62
  26   0   9   13.96    1.15
  28   0   9   29.20    1.50
  30   0   9    2.17    0.65
 -32   0  -9    0.31    0.43
  32   0   9    0.57    0.58
 -34   0  -9    1.75    0.44
  34   0   9    0.89    0.57
 -36   0  -9    4.36    0.61
 -38   0  -9   23.58    0.96
 -53  -1   9    1.52    0.41
 -53   1   9    2.07    0.39
  53   1  -9    1.10    0.47
 -51  -1   9    4.95    0.70
  51   1  -9    5.03    0.76
 -51   1   9    5.75    0.68
 -49  -1   9    6.43    0.76
 -49   1   9    6.87    0.73
  49   1  -9    6.04    0.80
 -47  -1   9   40.24    1.67
  47   1  -9   41.54    1.63
 -47   1   9   40.69    1.64
 -45  -1   9   12.10    1.05
 -45  -1   9   12.00    0.93
 -45   1   9   14.99    1.33
 -45   1   9   15.29    0.95
  45   1  -9   15.43    1.04
 -43  -1   9   18.08    1.10
 -43  -1   9   17.85    1.21
  43   1  -9   16.49    1.06
 -43   1   9   17.54    1.02
 -43   1   9   17.11    1.44
 -41  -1   9    8.76    1.01
 -41  -1   9    8.76    0.87
 -41   1   9    8.84    1.22
  41   1  -9    8.26    0.89
 -41   1   9    9.11    0.83
 -39  -1   9  147.67    4.77
 -39  -1   9  146.70    4.54
 -39  -1   9  147.59    5.02
 -39  -1   9  141.92    4.96
 -39   1   9  138.73    5.56
 -39   1   9  140.21    4.73
  39   1  -9  138.00    4.38
 -37  -1   9   32.13    1.51
 -37  -1   9   29.40    1.57
 -37  -1   9   28.62    1.35
 -37  -1   9   29.79    1.43
 -37   1   9   27.83    1.78
  37   1  -9   27.72    1.26
 -37   1   9   27.62    1.28
 -35  -1   9   13.91    0.93
 -35  -1   9   12.37    1.07
 -35  -1   9   12.24    1.13
 -35  -1   9   13.25    0.96
  35   1  -9   15.15    0.95
 -35   1   9   13.96    0.90
 -35   1   9   13.98    1.33
 -33  -1   9   21.64    1.16
 -33  -1   9   21.37    1.34
 -33  -1   9   23.47    1.12
 -33  -1   9   20.52    1.24
 -33   1   9   22.10    1.57
 -33   1   9   23.26    1.12
  33   1  -9   24.43    1.14
 -31  -1   9   38.13    1.66
 -31  -1   9   40.13    1.62
 -31  -1   9   38.51    1.74
 -31  -1   9   37.95    1.52
  31   1  -9   34.89    1.40
 -31   1   9   33.25    1.42
 -31   1   9   35.10    1.91
 -29  -1   9    1.06    0.50
 -29  -1   9    1.50    0.46
 -29  -1   9    2.33    0.54
 -29  -1   9    1.23    0.40
  29   1  -9    1.72    0.45
 -29   1   9    0.71    0.61
 -29   1   9    1.05    0.37
 -27  -1   9   13.76    0.86
 -27  -1   9   13.21    0.84
 -27  -1   9   12.18    0.94
 -27  -1   9   11.73    1.00
 -27   1   9   10.88    1.07
  27   1  -9   11.66    0.76
 -27   1   9   11.13    0.72
 -25  -1   9   44.11    1.76
 -25  -1   9   45.82    1.76
 -25  -1   9   45.36    1.88
 -25   1   9   44.24    1.72
  25   1  -9   46.59    1.65
 -25   1   9   47.88    2.21
 -23  -1   9   11.14    0.86
 -23  -1   9   12.58    0.78
 -23  -1   9   11.62    0.95
 -23  -1   9   12.27    0.77
 -23   1   9   13.48    1.14
 -23   1   9   13.45    0.75
  23   1  -9   13.08    0.75
 -21  -1   9    6.54    0.75
 -21  -1   9    7.37    0.73
 -21  -1   9    5.74    0.79
 -21  -1   9    8.17    0.65
 -21  -1   9    7.41    0.63
  21   1  -9    6.00    0.57
 -21   1   9    9.21    0.71
 -21   1   9    7.81    0.91
 -19  -1   9   24.70    1.08
 -19  -1   9   20.91    1.09
 -19  -1   9   24.19    1.04
 -19  -1   9   24.46    1.25
 -19  -1   9   24.01    1.20
 -19   1   9   23.90    1.34
  19   1  -9   21.73    0.93
 -17  -1   9   67.30    2.48
 -17  -1   9   67.71    2.33
 -17  -1   9   69.55    2.37
 -17  -1   9   68.22    2.27
 -17  -1   9   68.10    2.77
 -17   1   9   72.56    2.88
  17   1  -9   63.88    2.19
 -15  -1   9    6.82    0.77
 -15  -1   9    8.16    0.68
 -15  -1   9    7.14    0.63
 -15  -1   9    7.26    0.59
 -15  -1   9    7.53    0.61
  15   1  -9    7.24    0.51
 -15   1   9    7.83    0.82
 -13  -1   9    7.42    0.66
 -13  -1   9    7.20    0.57
 -13  -1   9    7.88    0.62
  13   1  -9    7.50    0.51
 -13   1   9    8.16    0.81
 -13   1   9    6.93    0.57
 -11  -1   9   21.31    1.11
 -11  -1   9   21.16    0.96
 -11  -1   9   20.46    0.99
  11   1  -9   22.65    0.90
 -11   1   9   23.70    1.27
 -11   1   9   21.63    1.00
  -9  -1   9   80.88    2.65
  -9  -1   9   82.23    2.80
  -9  -1   9   83.87    3.24
   9   1  -9   81.67    2.64
  -9   1   9   88.58    3.38
  -9   1   9   81.00    2.79
  -7  -1   9   10.99    0.70
  -7  -1   9   12.53    0.77
  -7  -1   9   12.50    0.81
  -7   1   9    9.25    0.81
   7   1  -9    7.99    0.51
  -7   1   9    8.80    0.65
  -5  -1   9   23.33    1.10
  -5  -1   9   22.31    1.15
  -5  -1   9   21.49    0.98
   5   1  -9   18.76    0.82
  -5   1   9   20.56    1.16
  -5   1   9   19.30    0.96
  -3  -1   9    0.24    0.29
  -3  -1   9    0.28    0.30
  -3  -1   9    0.42    0.35
  -3   1   9    0.45    0.32
   3   1  -9    0.49    0.24
  -3   1   9    0.36    0.38
  -1  -1   9   31.54    1.37
  -1  -1   9   32.07    1.27
  -1   1   9   28.55    1.26
  -1   1   9   29.50    1.49
   1   1  -9   30.35    1.13
   1  -1   9   11.40    0.84
   1  -1   9    9.98    0.71
   1   1   9    9.66    0.77
   1   1   9   11.41    0.72
   1   1   9   12.23    0.90
  -1   1  -9   11.73    0.65
   1   1   9   10.77    0.82
   3  -1   9   69.72    2.53
   3  -1   9   69.92    2.36
   3   1   9   62.50    2.33
   3   1   9   61.77    2.29
   3   1   9   64.29    2.67
   3   1   9   67.52    2.42
  -3   1  -9   63.65    2.12
   5  -1   9    1.54    0.48
  -5   1  -9    2.47    0.36
   5   1   9    3.32    0.48
   5   1   9    1.90    0.42
   5   1   9    3.70    0.53
   7  -1   9   34.30    1.55
  -7   1  -9   29.11    1.18
   7   1   9   29.74    1.36
   7   1   9   28.73    1.33
   7   1   9   31.86    1.39
   9  -1   9   54.29    2.14
   9   1   9   48.03    1.93
   9   1   9   49.13    1.93
   9   1   9   52.39    2.03
  -9   1  -9   48.08    1.74
  11  -1   9   46.34    1.95
  11   1   9   43.54    1.80
 -11   1  -9   41.99    1.52
  11   1   9   37.45    1.69
  11   1   9   41.08    1.71
  13  -1   9   19.50    1.28
 -13   1  -9   17.84    0.94
  13   1   9   21.18    1.14
  13   1   9   18.55    1.15
  13   1   9   20.53    1.17
  15  -1   9   18.73    1.30
  15   1   9   17.49    1.11
 -15   1  -9   18.36    0.95
  15   1   9   19.31    1.17
  17  -1   9   30.77    1.56
  17  -1   9   28.81    1.62
  17   1   9   25.69    1.43
  17   1   9   28.86    1.41
 -17   1  -9   27.00    1.20
  19  -1   9    4.53    0.81
  19  -1   9    3.75    0.67
  19   1   9    4.37    0.67
  19   1   9    3.49    0.66
 -19   1  -9    4.64    0.69
  21  -1   9    0.48    0.55
  21  -1   9    0.34    0.65
 -21   1  -9    0.01    0.43
  21   1   9    0.13    0.50
  21   1   9   -0.08    0.54
  23  -1   9   21.00    1.43
 -23   1  -9   18.48    1.02
  23   1   9   18.46    1.21
  25  -1   9   73.65    2.83
  25   1   9   74.59    2.82
 -25   1  -9   73.85    2.51
  27  -1   9   17.37    1.35
 -27   1  -9   19.31    1.05
  27   1   9   19.71    1.26
  29  -1   9    3.57    0.78
 -29   1  -9    3.74    0.54
  31  -1   9   21.79    1.37
 -31   1  -9   19.47    0.98
  33  -1   9   25.99    1.38
 -33   1  -9   28.78    1.19
  35  -1   9   12.53    1.01
 -35   1  -9   13.97    0.79
  37  -1   9    6.09    0.83
  37  -1   9    7.94    0.67
 -37   1  -9    6.49    0.55
 -50   2   9    1.87    0.37
  50   2  -9    1.58    0.48
 -48  -2   9    5.94    0.67
  48   2  -9    5.19    0.75
 -48   2   9    6.10    0.60
 -46  -2   9    2.86    0.61
 -46   2   9    2.25    0.43
  46   2  -9    3.63    0.56
 -44  -2   9   15.48    1.12
 -44  -2   9   16.88    1.21
 -44  -2   9   15.97    1.03
  44   2  -9   14.43    0.95
 -44   2   9   14.09    0.83
 -44   2   9   12.19    1.26
 -42  -2   9    3.46    0.65
 -42  -2   9    2.96    0.57
 -42  -2   9    3.94    0.69
 -42   2   9    3.00    0.79
 -42   2   9    3.72    0.62
  42   2  -9    2.82    0.56
 -40  -2   9   16.30    1.04
 -40  -2   9   15.86    1.23
 -40  -2   9   14.56    1.15
 -40  -2   9   15.16    1.07
  40   2  -9   13.04    0.95
 -40   2   9   11.07    1.25
 -40   2   9   11.62    0.80
 -38  -2   9    3.68    0.64
 -38  -2   9    2.56    0.65
 -38  -2   9    4.44    0.61
 -38  -2   9    3.42    0.70
 -38   2   9    3.72    0.86
 -38   2   9    3.79    0.65
  38   2  -9    3.53    0.57
 -36  -2   9    2.77    0.54
 -36  -2   9    1.85    0.57
 -36  -2   9    2.60    0.64
 -36  -2   9    2.22    0.62
 -36   2   9    0.89    0.38
  36   2  -9    0.92    0.49
 -36   2   9    0.40    0.71
 -34  -2   9   32.44    1.52
 -34  -2   9   31.51    1.41
 -34  -2   9   34.35    1.58
 -34  -2   9   32.12    1.68
  34   2  -9   28.44    1.32
 -34   2   9   30.52    1.28
 -34   2   9   31.21    1.82
 -32  -2   9   14.25    0.97
 -32  -2   9   14.69    1.26
 -32  -2   9   15.18    1.12
 -32  -2   9   16.86    1.03
 -32   2   9   12.58    1.24
 -32   2   9   11.64    0.78
  32   2  -9   14.26    0.90
 -30  -2   9   15.48    0.96
 -30  -2   9   14.25    0.98
 -30  -2   9   15.35    1.10
 -30  -2   9   15.14    1.22
 -30   2   9   13.40    1.26
 -30   2   9   14.08    0.79
  30   2  -9   13.93    0.89
 -28  -2   9   16.63    1.22
 -28  -2   9   15.74    0.98
 -28  -2   9   14.71    1.09
 -28  -2   9   15.70    0.97
 -28   2   9   12.96    0.75
  28   2  -9   13.25    0.83
 -28   2   9   13.67    1.25
 -26  -2   9   31.18    1.41
 -26  -2   9   30.70    1.45
 -26  -2   9   32.87    1.37
 -26  -2   9   33.48    1.61
  26   2  -9   32.55    1.31
 -26   2   9   30.77    1.79
 -24  -2   9   30.74    1.40
 -24  -2   9   30.39    1.37
 -24  -2   9   30.95    1.54
  24   2  -9   29.74    1.22
 -24   2   9   28.10    1.69
 -22  -2   9   47.41    1.84
 -22  -2   9   45.20    1.80
 -22  -2   9   46.39    1.75
 -22  -2   9   47.63    1.96
  22   2  -9   51.74    1.81
 -22   2   9   50.15    2.40
 -20  -2   9   35.71    1.55
 -20  -2   9   39.78    1.53
 -20  -2   9   40.56    1.61
 -20  -2   9   40.05    1.72
 -20   2   9   39.67    1.67
 -20   2   9   46.16    2.09
  20   2  -9   40.51    1.53
 -18  -2   9   18.22    0.96
 -18  -2   9   18.36    1.13
 -18  -2   9   16.52    0.97
 -18  -2   9   17.46    0.94
 -18  -2   9   16.92    0.89
 -18   2   9   16.64    0.99
 -18   2   9   15.83    1.32
 -18   2   9   16.43    1.22
  18   2  -9   16.68    0.84
 -16  -2   9    4.65    0.62
 -16  -2   9    4.55    0.57
 -16  -2   9    4.61    0.55
 -16  -2   9    4.78    0.56
 -16   2   9    4.95    0.85
 -16   2   9    4.17    0.69
 -16   2   9    5.22    0.95
  16   2  -9    4.62    0.52
 -16   2   9    4.63    0.80
 -14  -2   9   38.94    1.49
 -14  -2   9   35.94    1.64
 -14  -2   9   38.55    1.47
 -14   2   9   33.41    1.45
 -14   2   9   35.50    1.77
 -14   2   9   35.34    1.97
 -14   2   9   33.07    1.71
  14   2  -9   36.10    1.32
 -12  -2   9   48.44    1.77
 -12  -2   9   47.88    1.80
 -12   2   9   47.71    1.85
 -12   2   9   50.07    2.24
 -12   2   9   49.57    2.49
  12   2  -9   47.61    1.68
 -10  -2   9   16.65    0.89
 -10  -2   9   15.77    0.89
 -10   2   9   12.93    1.23
 -10   2   9   14.14    1.07
 -10   2   9   14.55    0.91
  10   2  -9   14.98    0.74
  -8  -2   9   34.72    1.39
  -8  -2   9   34.35    1.41
   8   2  -9   37.09    1.35
  -8   2   9   37.80    2.04
  -8   2   9   36.03    1.79
  -8   2   9   36.16    1.50
  -6  -2   9  115.65    3.75
  -6  -2   9  115.74    3.64
  -6  -2   9  112.05    3.78
  -6   2   9  114.19    4.43
  -6   2   9  112.69    3.75
  -6   2   9  111.93    4.98
   6   2  -9  115.02    3.55
  -4  -2   9    4.25    0.64
  -4  -2   9    3.67    0.49
  -4  -2   9    3.81    0.60
  -4   2   9    5.82    0.79
   4   2  -9    5.36    0.50
  -4   2   9    5.55    0.68
  -4   2   9    6.38    0.98
  -2  -2   9    6.10    0.76
  -2  -2   9    6.86    0.67
  -2  -2   9    7.36    0.68
  -2   2   9    5.29    0.68
  -2   2   9    5.86    0.99
  -2   2   9    5.28    0.80
   2   2  -9    6.20    0.53
   0  -2   9   12.64    0.92
   0  -2   9   12.85    0.83
   0   2   9   11.19    0.94
   0   2  -9   10.93    0.65
   2  -2   9   30.35    1.38
   2  -2   9   28.41    1.26
   2   2   9   22.69    1.04
   2   2   9   23.05    1.07
   2   2   9   25.23    1.34
  -2   2  -9   23.92    0.99
   4  -2   9   11.63    0.96
   4  -2   9    9.95    0.76
   4  -2   9   10.87    0.80
   4   2   9   10.86    0.70
   4   2   9    9.85    0.91
  -4   2  -9    9.49    0.65
   4   2   9   10.94    0.75
   6  -2   9    2.78    0.60
   6  -2   9    3.01    0.52
   6  -2   9    4.02    0.58
   6   2   9    2.80    0.45
  -6   2  -9    3.94    0.55
   6   2   9    2.67    0.43
   8  -2   9   17.71    1.14
   8  -2   9   15.08    0.88
   8  -2   9   16.27    0.98
  -8   2  -9   16.03    0.85
   8   2   9   14.74    0.92
   8   2   9   15.54    0.93
  10  -2   9   36.20    1.50
  10  -2   9   37.23    1.67
  10  -2   9   32.54    1.37
  10   2   9   30.22    1.42
 -10   2  -9   30.29    1.25
  10   2   9   32.14    1.40
  12  -2   9    1.53    0.60
  12  -2   9    0.93    0.41
  12  -2   9    0.48    0.45
  12   2   9    0.36    0.42
  12   2   9    0.12    0.43
 -12   2  -9    0.35    0.33
  14  -2   9   51.09    1.95
  14  -2   9   56.18    2.29
  14  -2   9   56.78    2.06
 -14   2  -9   51.79    1.87
  14   2   9   54.49    2.08
  14   2   9   50.09    2.14
  16  -2   9   24.56    1.26
  16  -2   9   23.87    1.51
  16   2   9   19.09    1.17
 -16   2  -9   19.69    1.00
  16   2   9   17.90    1.13
  18  -2   9   48.34    2.16
  18  -2   9   48.69    1.90
  18   2   9   42.37    1.84
 -18   2  -9   43.18    1.63
  20  -2   9    3.08    0.60
  20  -2   9    4.31    0.80
  20   2   9    2.94    0.61
 -20   2  -9    2.97    0.48
  22  -2   9    6.82    0.92
  22  -2   9    7.51    0.88
 -22   2  -9    5.68    0.71
  22   2   9    5.08    0.90
  24  -2   9   12.85    1.01
  24  -2   9   13.74    1.30
  24   2   9    8.97    0.98
 -24   2  -9    8.77    0.76
  26  -2   9   35.39    1.53
  26  -2   9   35.47    1.78
 -26   2  -9   32.35    1.32
  26   2   9   32.28    1.52
  28  -2   9    1.67    0.55
  28  -2   9    0.43    0.67
 -28   2  -9    0.68    0.41
  28   2   9    0.73    0.54
  30  -2   9   23.92    1.17
  30  -2   9   24.88    1.41
 -30   2  -9   25.27    1.09
  30   2   9   25.76    1.30
  32  -2   9   19.92    1.21
  32  -2   9   15.75    0.95
  32   2   9   15.37    1.04
 -32   2  -9   13.55    0.73
  34  -2   9   11.04    0.97
  34  -2   9    9.83    0.73
  36  -2   9    1.45    0.53
 -47  -3   9    1.47    0.49
  47   3  -9    0.92    0.40
 -47   3   9    0.33    0.47
 -47   3   9    0.30    0.27
 -45  -3   9    7.87    0.91
 -45  -3   9   10.20    0.96
 -45   3   9    6.54    0.55
 -45   3   9    7.98    0.85
  45   3  -9    7.72    0.72
 -43  -3   9   11.68    1.03
 -43  -3   9   10.99    1.07
  43   3  -9   11.27    0.84
 -43   3   9   10.41    0.64
 -41  -3   9   13.09    1.11
 -41  -3   9   12.77    1.14
  41   3  -9   14.21    0.91
 -41   3   9   12.48    0.72
 -39  -3   9   11.86    0.90
 -39  -3   9   12.26    1.12
 -39  -3   9   10.16    1.07
  39   3  -9   12.05    0.87
 -39   3   9   10.48    1.19
 -39   3   9   10.07    0.66
 -37  -3   9    1.56    0.64
 -37  -3   9    1.77    0.64
 -37  -3   9    1.80    0.56
 -37   3   9    2.28    0.79
  37   3  -9    3.04    0.56
 -35  -3   9    2.48    0.72
 -35  -3   9    3.54    0.61
 -35  -3   9    3.61    0.68
  35   3  -9    3.43    0.55
 -35   3   9    2.64    0.80
 -33  -3   9   14.33    1.28
 -33  -3   9   16.14    1.18
 -33  -3   9   14.33    0.98
 -33   3   9   13.63    1.31
  33   3  -9   14.49    0.97
 -31  -3   9    8.68    0.85
 -31  -3   9   11.41    1.03
 -31  -3   9    7.91    1.15
  31   3  -9    9.94    0.86
 -31   3   9    7.40    1.16
 -29  -3   9   22.95    1.46
 -29  -3   9   22.19    1.30
 -29  -3   9   22.69    1.15
 -29   3   9   23.48    1.59
  29   3  -9   22.52    1.14
 -27  -3   9   16.64    1.29
 -27  -3   9   17.66    1.14
 -27  -3   9   15.09    0.98
 -27   3   9   15.61    1.12
 -27   3   9   15.72    1.34
  27   3  -9   15.57    0.96
 -25  -3   9   18.10    1.26
 -25  -3   9   14.85    0.96
 -25  -3   9   13.79    1.06
 -25   3   9   11.66    1.05
 -25   3   9   13.76    1.25
  25   3  -9   14.16    0.89
 -23  -3   9   41.45    1.73
 -23  -3   9   43.36    1.96
 -23  -3   9   40.34    2.24
 -23  -3   9   44.28    1.66
 -23   3   9   44.14    2.23
 -23   3   9   44.06    1.88
  23   3  -9   45.60    1.70
 -23   3   9   46.88    2.09
 -21  -3   9    9.18    0.84
 -21  -3   9    8.60    0.78
 -21  -3   9    9.43    1.10
 -21  -3   9    8.94    1.07
 -21  -3   9    8.57    0.86
  21   3  -9    6.75    0.74
 -21   3   9   10.24    1.04
 -21   3   9    7.90    0.93
 -21   3   9    9.14    1.34
 -21   3   9    7.72    1.06
 -19  -3   9    3.37    0.54
 -19  -3   9    1.59    0.60
 -19  -3   9    2.53    0.53
 -19  -3   9    4.98    0.68
 -19   3   9    5.63    1.21
 -19   3   9    1.79    0.66
  19   3  -9    2.27    0.45
 -19   3   9    2.26    0.57
 -19   3   9    2.54    0.69
 -17  -3   9   55.52    1.98
 -17  -3   9   57.82    2.30
 -17  -3   9   56.12    2.07
 -17   3   9   52.58    2.08
 -17   3   9   55.12    2.79
 -17   3   9   54.35    2.34
  17   3  -9   53.16    1.91
 -17   3   9   51.23    2.45
 -15  -3   9   37.33    1.79
 -15  -3   9   39.52    1.51
 -15  -3   9   40.36    1.60
 -15   3   9   40.44    2.32
 -15   3   9   39.35    1.94
  15   3  -9   41.88    1.56
 -15   3   9   43.23    1.75
 -15   3   9   40.74    2.05
 -13  -3   9    4.95    0.70
 -13  -3   9    5.56    0.95
 -13  -3   9    5.57    0.72
 -13   3   9    4.65    0.66
 -13   3   9    6.46    1.20
 -13   3   9    3.32    0.72
  13   3  -9    4.36    0.51
 -13   3   9    5.47    0.82
 -11  -3   9    2.18    0.59
 -11  -3   9    2.13    0.47
 -11  -3   9    3.16    0.49
 -11   3   9    1.95    0.79
 -11   3   9    1.58    0.53
 -11   3   9    2.70    0.66
 -11   3   9    2.31    0.71
  11   3  -9    1.81    0.41
  -9  -3   9   22.27    1.13
  -9  -3   9   22.85    1.09
  -9  -3   9   23.39    1.21
   9   3  -9   20.70    1.00
  -9   3   9   21.65    1.18
  -9   3   9   21.72    1.43
  -9   3   9   21.19    1.35
  -9   3   9   20.73    1.62
  -7  -3   9   24.86    1.14
  -7  -3   9   25.13    1.27
  -7  -3   9   25.75    1.22
  -7   3   9   27.25    1.34
  -7   3   9   27.21    1.62
  -7   3   9   27.17    1.51
   7   3  -9   27.46    1.17
  -7   3   9   28.87    1.86
  -5  -3   9   39.71    1.63
  -5  -3   9   38.00    1.59
  -5  -3   9   37.81    1.48
  -5   3   9   34.67    2.05
  -5   3   9   34.44    1.50
  -5   3   9   31.12    1.68
   5   3  -9   32.93    1.31
  -3  -3   9   38.29    1.65
  -3  -3   9   40.36    1.70
  -3  -3   9   40.96    1.57
  -3  -3   9   44.05    1.67
   3   3  -9   39.69    1.50
  -3   3   9   40.93    1.67
  -3   3   9   39.95    2.29
  -3   3   9   39.47    1.92
  -1  -3   9   24.55    1.20
  -1  -3   9   22.50    1.19
  -1  -3   9   22.28    1.11
  -1  -3   9   24.28    1.24
  -1   3   9   26.83    1.81
  -1   3   9   27.46    1.31
  -1   3   9   24.97    1.48
   1   3  -9   28.80    1.17
   1  -3   9   12.07    0.97
   1  -3   9   11.00    0.84
   1  -3   9   11.68    0.92
   1  -3   9   11.61    0.93
  -1   3  -9    9.98    0.72
   1   3   9    8.58    0.94
   1   3   9   10.82    1.27
   3  -3   9   20.83    1.13
   3  -3   9   19.00    1.15
   3  -3   9   19.22    1.04
   3  -3   9   19.94    1.16
   3   3   9   18.65    1.50
  -3   3  -9   16.86    0.90
   5  -3   9    5.29    0.84
   5  -3   9    5.44    0.77
   5  -3   9    3.69    0.65
   5  -3   9    3.96    0.54
   5   3   9    3.68    0.52
  -5   3  -9    3.78    0.60
   7  -3   9    1.78    0.46
   7  -3   9    3.61    0.59
   7  -3   9    2.70    0.60
   7  -3   9    3.11    0.62
  -7   3  -9    2.77    0.46
   7   3   9    2.67    0.49
   9  -3   9    5.39    0.73
   9  -3   9    3.77    0.52
   9  -3   9    5.80    0.82
  -9   3  -9    2.73    0.46
   9   3   9    2.89    0.51
  11  -3   9    2.35    0.59
  11  -3   9    3.50    0.69
  11  -3   9    2.59    0.50
  11   3   9    4.69    0.75
 -11   3  -9    1.80    0.42
  13  -3   9   21.14    1.18
  13  -3   9   21.45    1.13
  13  -3   9   20.39    1.36
  13   3   9   20.58    1.12
 -13   3  -9   18.59    0.97
  15  -3   9    7.09    0.83
  15  -3   9    7.62    1.05
  15  -3   9    5.85    0.74
 -15   3  -9    6.88    0.68
  15   3   9    6.04    0.84
  17  -3   9   15.76    1.03
  17  -3   9   18.45    1.26
  17  -3   9   18.21    1.09
 -17   3  -9   15.98    0.89
  17   3   9   14.46    1.06
  19  -3   9    3.40    0.62
  19  -3   9    3.13    0.72
  19  -3   9    3.37    0.55
  19   3   9    3.21    0.60
 -19   3  -9    3.37    0.47
  21  -3   9   -0.57    0.42
  21  -3   9    0.63    0.54
  21  -3   9    0.82    0.66
  21   3   9   -0.12    0.50
 -21   3  -9    0.68    0.37
  23  -3   9    1.04    0.54
  23  -3   9    0.49    0.65
  23  -3   9    1.37    0.45
 -23   3  -9    1.77    0.39
  23   3   9    1.53    0.55
  25  -3   9    3.31    0.49
  25  -3   9    2.54    0.58
  25  -3   9    3.05    0.69
  25   3   9    4.31    0.61
  27  -3   9    3.46    0.71
  27   3   9    2.90    0.56
  29  -3   9   -0.57    0.58
  29   3   9    0.47    0.49
  31  -3   9    7.20    0.91
  31   3   9    8.09    0.81
 -42  -4   9    0.49    0.48
 -42  -4   9    0.47    0.49
 -42   4   9    1.30    0.50
 -40  -4   9    5.70    0.88
 -40  -4   9    5.37    0.64
 -40   4   9    4.91    0.63
 -38  -4   9   14.48    1.08
 -38  -4   9   16.52    1.14
  38   4  -9   14.98    0.86
 -38   4   9   14.39    1.03
 -36  -4   9    2.54    0.61
 -36  -4   9    2.21    0.63
 -36   4   9    3.25    0.62
  36   4  -9    2.36    0.49
 -34  -4   9    1.40    0.64
 -34  -4   9    1.62    0.49
 -34  -4   9    2.11    0.62
 -34   4   9    1.42    0.57
  34   4  -9    1.84    0.47
 -32  -4   9   23.88    1.30
 -32  -4   9   21.08    1.12
 -32  -4   9   23.57    1.42
 -32   4   9   21.48    1.21
  32   4  -9   20.15    1.07
 -30  -4   9    2.16    0.53
 -30  -4   9    2.58    0.71
 -30  -4   9    1.83    0.60
 -30   4   9    2.72    0.63
 -30   4   9    1.46    0.63
  30   4  -9    0.79    0.47
 -28  -4   9    2.32    0.60
 -28  -4   9    1.69    0.70
 -28  -4   9    2.00    0.45
 -28  -4   9    2.62    0.54
 -28   4   9    1.67    0.61
  28   4  -9    2.40    0.51
 -28   4   9    1.69    0.64
 -26  -4   9    1.54    0.71
 -26  -4   9    2.37    0.49
 -26  -4   9    3.48    0.63
 -26  -4   9    2.80    0.56
  26   4  -9    4.18    0.58
 -26   4   9    2.88    0.64
 -26   4   9    2.17    0.74
 -24  -4   9    9.00    0.83
 -24  -4   9    6.40    0.88
 -24  -4   9    8.02    0.93
 -24  -4   9    7.25    0.74
  24   4  -9    6.20    0.79
 -24   4   9    8.27    0.96
 -22  -4   9    5.41    0.79
 -22  -4   9    5.27    0.86
 -22  -4   9    5.76    0.71
 -22  -4   9    5.08    0.85
  22   4  -9    4.70    0.74
 -22   4   9    5.94    1.04
 -22   4   9    5.37    0.74
 -20  -4   9    2.82    0.52
 -20  -4   9    3.31    0.58
 -20  -4   9    2.56    0.70
  20   4  -9    2.38    0.55
 -20   4   9    2.03    0.93
 -20   4   9    2.13    0.64
 -18  -4   9    0.14    0.64
 -18  -4   9    0.68    0.51
 -18  -4   9    0.97    0.45
 -18   4   9    0.78    0.62
 -18   4   9    1.05    0.69
 -18   4   9    1.99    0.91
  18   4  -9    1.81    0.49
 -16  -4   9    6.34    0.78
 -16  -4   9    3.57    0.76
 -16   4   9    3.70    0.80
  16   4  -9    4.57    0.73
 -16   4   9    4.86    1.04
 -16   4   9    5.09    0.73
 -14  -4   9    0.64    0.64
 -14  -4   9    2.48    0.50
 -14  -4   9    1.33    0.52
  14   4  -9    2.18    0.47
 -14   4   9    2.06    0.91
 -14   4   9    1.76    0.62
 -14   4   9    2.87    0.73
 -12  -4   9   12.14    0.92
 -12  -4   9   15.08    1.00
 -12   4   9   15.05    1.10
 -12   4   9   13.78    1.24
 -12   4   9   14.94    1.60
  12   4  -9   14.74    0.92
 -10  -4   9   20.77    1.16
 -10  -4   9   19.53    1.07
 -10  -4   9   19.75    1.27
 -10   4   9   20.49    1.42
  10   4  -9   17.74    1.01
 -10   4   9   21.37    1.23
  -8  -4   9   74.19    2.62
  -8  -4   9   77.22    2.79
  -8  -4   9   74.54    2.57
  -8   4   9   77.05    2.81
   8   4  -9   77.73    2.59
  -8   4   9   77.51    3.18
  -8   4   9   77.05    3.76
  -6  -4   9   46.46    1.78
  -6  -4   9   44.80    1.83
  -6  -4   9   48.14    1.98
   6   4  -9   39.05    1.59
  -6   4   9   44.76    2.09
  -6   4   9   40.35    1.77
  -6   4   9   44.77    2.46
  -4  -4   9   99.77    3.50
  -4  -4   9  102.33    3.33
  -4  -4   9   98.87    3.26
  -4   4   9   96.90    3.33
  -4   4   9   91.46    3.77
  -4   4   9   95.04    4.43
   4   4  -9   98.23    3.10
  -2  -4   9   17.89    1.21
  -2  -4   9   16.66    1.06
  -2  -4   9   17.44    1.02
  -2   4   9   19.22    1.46
   2   4  -9   16.47    0.96
  -2   4   9   20.74    1.67
   0  -4   9   36.02    1.66
   0  -4   9   35.85    1.53
   0  -4   9   32.60    1.46
   0   4  -9   33.46    1.34
   0   4   9   32.61    1.85
   0   4   9   32.32    2.08
   2  -4   9   11.92    1.11
   2  -4   9   10.79    0.93
   2  -4   9   10.30    0.89
   2   4   9    8.23    1.25
   2   4   9    9.23    1.33
  -2   4  -9    8.76    0.73
   4  -4   9    1.86    0.50
   4  -4   9    2.81    0.57
   4  -4   9    3.43    0.73
   4   4   9    3.09    0.90
   4   4   9    2.72    0.91
  -4   4  -9    1.49    0.41
   6  -4   9    6.51    0.99
   6  -4   9    7.30    0.86
   6  -4   9    7.07    0.84
  -6   4  -9    6.54    0.66
   6   4   9    5.73    0.98
   8  -4   9   27.11    1.34
   8  -4   9   27.48    1.31
   8  -4   9   29.26    1.48
  -8   4  -9   30.26    1.19
   8   4   9   27.01    1.76
  10  -4   9   67.00    2.57
  10  -4   9   71.50    2.41
  10  -4   9   67.53    2.42
  10   4   9   62.20    2.72
  10   4   9   60.85    2.25
  12  -4   9   45.53    1.83
  12  -4   9   47.20    1.98
  12  -4   9   49.75    1.83
  12   4   9   48.28    2.29
  12   4   9   47.56    1.85
  14  -4   9   31.35    1.39
  14   4   9   31.37    1.80
  14   4   9   30.55    1.36
  16  -4   9   22.73    1.16
  16   4   9   20.22    1.49
  16   4   9   20.28    1.08
  18  -4   9   17.23    1.01
  18   4   9   14.20    1.31
  18   4   9   15.29    0.97
  20  -4   9   -0.07    0.45
  20   4   9    1.01    0.48
  22  -4   9    6.23    0.74
  22   4   9    7.69    0.79
  24  -4   9    5.88    0.66
  24   4   9    5.91    0.74
  26   4   9    2.33    0.46
 -33  -5   9    4.28    0.61
 -33   5   9    4.39    0.58
 -31  -5   9   -0.14    0.54
 -31  -5   9    0.54    0.46
 -31   5   9    0.44    0.49
 -29  -5   9   -0.05    0.48
 -29  -5   9    0.02    0.54
 -29   5   9    0.72    0.52
 -27  -5   9    9.11    0.87
 -27  -5   9    8.39    1.03
 -27  -5   9    6.98    0.69
 -27   5   9    7.36    0.87
 -25  -5   9   21.54    1.32
 -25  -5   9   21.98    0.98
 -25   5   9   20.84    1.17
 -23  -5   9    0.20    0.67
 -23  -5   9    0.81    0.42
 -23   5   9    1.79    0.82
 -23   5   9    2.20    0.59
 -21  -5   9    4.06    0.65
 -21  -5   9    5.21    0.76
 -21   5   9    4.47    0.67
 -21   5   9    7.48    1.25
 -19  -5   9    7.43    1.13
 -19  -5   9    5.93    0.71
 -19   5   9    6.91    0.90
 -19   5   9    6.10    1.02
 -17  -5   9    4.36    0.75
 -17  -5   9    4.09    0.52
 -17   5   9    4.34    0.68
 -17   5   9    6.29    1.32
 -15  -5   9    8.78    1.17
 -15  -5   9    9.03    0.81
 -15   5   9    7.56    1.36
 -15   5   9    9.43    0.97
 -13  -5   9    0.88    0.49
 -13  -5   9    0.76    0.64
 -13   5   9    1.42    0.86
 -13   5   9    0.88    0.57
 -11  -5   9    9.58    1.13
 -11  -5   9   10.80    0.88
 -11   5   9   10.84    0.97
 -11   5   9    6.93    1.35
  -9  -5   9    0.41    0.62
  -9  -5   9    2.73    0.50
  -9   5   9    2.27    0.92
  -9   5   9    2.77    0.79
  -7  -5   9   17.02    1.00
  -7   5   9   16.09    1.33
  -7   5   9   16.92    1.58
  -5  -5   9    6.69    0.99
  -5  -5   9    7.28    0.81
  -5   5   9    9.47    1.16
  -5   5   9   12.15    1.43
  -3  -5   9   32.08    1.37
  -3  -5   9   29.69    1.55
  -3   5   9   26.74    1.60
  -3   5   9   28.21    1.90
  -1  -5   9   12.05    1.11
  -1  -5   9   12.77    0.95
  -1   5   9   12.88    1.44
  -1   5   9   11.67    1.20
   1  -5   9   10.70    0.89
   1  -5   9   10.52    1.06
   1   5   9   11.19    1.41
   1   5   9   11.23    1.17
   3  -5   9    5.99    0.95
   3  -5   9    4.91    0.76
   3   5   9    9.67    1.34
   3   5   9    4.98    0.86
   5  -5   9   32.93    1.35
   5  -5   9   30.85    1.50
   5   5   9   28.96    1.60
   7  -5   9   13.75    0.89
   7  -5   9   14.07    1.05
   7   5   9   13.85    1.19
   9  -5   9    1.39    0.58
   9  -5   9    2.80    0.49
   9   5   9    3.76    0.77
  11  -5   9    1.35    0.47
  11   5   9    2.41    0.69
  13  -5   9    6.26    0.72
  13   5   9    4.51    0.78
  15  -5   9    1.20    0.41
  17  -5   9    4.90    0.62
 -12   6   9    1.74    0.75
 -10   6   9    9.90    1.16
  -8  -6   9   18.47    0.88
  -8   6   9   17.43    1.37
  -6  -6   9   12.28    0.74
  -6   6   9    8.54    1.12
 -52   0  10    7.43    0.69
 -50   0  10    0.42    0.41
  50   0 -10    0.26    0.48
  48   0 -10    1.06    0.54
 -48   0  10    1.27    0.46
  46   0 -10   11.29    0.92
 -46   0  10   11.13    0.87
 -44   0  10    5.44    0.80
  44   0 -10    6.92    0.88
  42   0 -10    5.75    0.85
 -42   0  10    6.32    0.79
 -40   0  10   38.49    1.56
  40   0 -10   35.38    1.51
 -40   0  10   32.76    1.90
 -38   0  10    6.37    0.80
 -38   0  10    6.11    1.01
 -38   0  10    4.83    0.75
  38   0 -10    6.89    0.82
 -36   0  10    0.52    0.46
 -36   0  10   -0.60    0.58
 -36   0  10    0.07    0.45
 -34   0  10    3.77    0.76
 -34   0  10    3.98    0.54
 -34   0  10    4.72    0.70
 -32   0  10   14.50    1.20
 -32   0  10   14.86    0.88
 -32   0  10   14.24    0.92
 -30   0  10   11.57    0.78
 -30   0  10   10.78    0.80
 -30   0  10    9.23    1.03
 -28   0  10    0.97    0.39
 -28   0  10    1.02    0.39
 -28   0  10    0.63    0.54
 -26   0  10    0.53    0.41
 -26   0  10    1.29    0.56
 -26   0  10   -0.08    0.38
 -26   0  10    0.84    0.36
 -24   0  10    8.83    0.74
 -24   0  10    8.27    0.81
 -24   0  10    9.53    0.91
 -24   0  10    7.67    0.68
 -22   0  10    0.83    0.39
 -22   0  10    0.46    0.33
 -22   0  10    0.59    0.44
 -20   0  10   73.71    3.00
 -20   0  10   69.58    2.58
 -18   0  10   46.58    2.09
 -18   0  10   45.97    1.87
 -16   0  10   76.16    2.63
 -16   0  10   76.54    3.13
 -14   0  10    0.17    0.29
 -14   0  10    0.19    0.38
 -12   0  10   26.57    1.17
 -12   0  10   26.25    1.37
 -10   0  10    6.18    0.62
 -10   0  10    5.47    0.67
  -8   0  10   16.19    0.82
  -8   0  10   18.90    0.97
  -8   0  10   18.50    1.08
  -6   0  10    9.28    0.80
  -6   0  10    7.52    0.70
  -6   0  10    8.60    0.60
  -4   0  10    8.73    0.80
  -4   0  10    8.83    0.62
  -4   0  10    9.83    0.76
  -2   0  10   70.82    2.50
  -2   0  10   69.69    2.85
  -2   0  10   67.15    2.30
   0   0  10   14.75    0.99
   0   0  10   16.19    1.04
   0   0  10   15.89    0.83
   2   0  10    7.91    0.82
   2   0  10    7.65    0.65
   4   0  10    1.14    0.47
  -4   0 -10    0.41    0.32
   6   0  10    6.54    0.85
  -6   0 -10    5.62    0.58
  -8   0 -10    0.23    0.32
   8   0  10    0.38    0.49
  10   0  10   12.53    1.04
 -10   0 -10   12.10    0.76
  12   0  10    7.83    0.88
  12   0  10    9.64    1.00
  14   0  10    0.92    0.58
  14   0  10    0.93    0.50
  16   0  10   31.78    1.61
  16   0  10   32.36    1.61
  18   0  10   52.65    2.16
  20   0  10   27.77    1.52
  22   0  10    4.34    0.76
 -24   0 -10   42.79    1.64
  24   0  10   41.64    1.86
  26   0  10    0.26    0.59
 -26   0 -10    0.77    0.44
  28   0  10   26.16    1.35
 -28   0 -10   23.45    1.12
  30   0  10    6.13    0.89
 -30   0 -10    4.34    0.66
 -32   0 -10   11.12    0.74
  32   0  10   10.64    1.02
 -34   0 -10    0.91    0.36
 -51  -1  10    5.41    0.65
 -51   1  10    4.71    0.62
  51   1 -10    5.73    0.71
 -49  -1  10   13.82    0.88
  49   1 -10   12.37    0.88
 -49   1  10   12.91    0.81
 -47  -1  10    4.24    0.53
 -47   1  10    4.73    0.68
  47   1 -10    3.11    0.57
 -45  -1  10   22.79    1.17
 -45   1  10   22.98    1.12
  45   1 -10   23.45    1.17
 -43  -1  10   15.61    1.01
  43   1 -10   12.91    0.94
 -43   1  10   13.15    0.88
 -43   1  10   11.22    1.24
 -41  -1  10   23.95    1.26
 -41  -1  10   25.71    1.36
 -41   1  10   26.11    1.73
  41   1 -10   26.38    1.27
 -41   1  10   26.50    1.26
 -39  -1  10    1.39    0.60
 -39  -1  10    1.86    0.53
 -39  -1  10    1.89    0.51
 -39   1  10    0.55    0.72
 -39   1  10    1.17    0.43
  39   1 -10    1.34    0.51
 -37  -1  10    2.61    0.65
 -37  -1  10    3.32    0.68
 -37  -1  10    3.19    0.58
 -37  -1  10    3.24    0.56
 -37   1  10    2.92    0.50
  37   1 -10    2.91    0.56
 -37   1  10    3.06    0.85
 -35  -1  10   27.52    1.33
 -35  -1  10   28.49    1.50
 -35  -1  10   25.98    1.24
 -35  -1  10   26.94    1.42
 -35   1  10   26.25    1.22
 -35   1  10   24.37    1.69
  35   1 -10   26.67    1.22
 -33  -1  10   47.63    2.04
 -33  -1  10   45.66    1.76
 -33  -1  10   46.97    1.93
 -33  -1  10   47.73    1.89
  33   1 -10   49.54    1.83
 -33   1  10   49.93    2.47
 -33   1  10   49.31    1.91
 -31  -1  10    4.00    0.68
 -31  -1  10    2.64    0.58
 -31  -1  10    2.92    0.52
 -31  -1  10    2.85    0.60
 -31   1  10    1.61    0.71
  31   1 -10    2.85    0.52
 -31   1  10    3.54    0.61
 -29  -1  10   16.01    1.05
 -29  -1  10   16.58    1.16
 -29  -1  10   14.89    0.93
 -29  -1  10   16.40    0.94
 -29   1  10   15.99    1.33
  29   1 -10   16.40    0.92
 -29   1  10   17.11    0.90
 -27  -1  10    9.73    0.94
 -27  -1  10    9.35    0.80
 -27  -1  10   10.29    0.79
 -27  -1  10    9.33    0.87
 -27   1  10    9.80    1.10
  27   1 -10    9.45    0.75
 -27   1  10    9.55    0.71
 -25  -1  10    3.33    0.51
 -25  -1  10    2.34    0.50
 -25  -1  10    1.87    0.42
  25   1 -10    2.19    0.45
 -25   1  10    1.73    0.62
 -25   1  10    1.67    0.36
 -23  -1  10   26.46    1.29
 -23  -1  10   25.05    1.15
 -23  -1  10   25.25    1.21
 -23  -1  10   27.38    1.21
 -23   1  10   27.44    1.18
  23   1 -10   27.80    1.15
 -23   1  10   27.16    1.59
 -21  -1  10   69.65    2.48
 -21  -1  10   72.33    2.42
 -21  -1  10   74.77    2.61
 -21  -1  10   70.61    2.62
  21   1 -10   76.70    2.48
 -21   1  10   70.92    2.62
 -21   1  10   79.16    3.21
 -19  -1  10   31.76    1.34
 -19  -1  10   32.02    1.43
 -19  -1  10   31.75    1.29
 -19  -1  10   31.77    1.55
 -19   1  10   25.02    1.20
  19   1 -10   26.17    1.08
 -19   1  10   28.48    1.53
 -17  -1  10   12.38    0.78
 -17  -1  10   11.35    0.79
 -17  -1  10   12.41    0.89
 -17  -1  10   12.16    0.89
 -17  -1  10   12.25    0.75
  17   1 -10   13.45    0.70
 -17   1  10   12.26    0.85
 -17   1  10   13.39    1.06
 -15  -1  10    3.83    0.55
 -15  -1  10    3.15    0.44
 -15  -1  10    3.70    0.58
  15   1 -10    3.08    0.44
 -15   1  10    3.60    0.50
 -15   1  10    3.12    0.59
 -13  -1  10   32.27    1.33
 -13  -1  10   31.55    1.52
 -13  -1  10   31.72    1.29
 -13   1  10   33.30    1.39
 -13   1  10   34.12    1.41
 -13   1  10   35.70    1.75
  13   1 -10   34.73    1.27
 -11  -1  10   50.37    1.89
 -11  -1  10   48.93    1.78
 -11  -1  10   50.24    2.15
 -11   1  10   44.35    1.73
 -11   1  10   48.66    2.12
 -11   1  10   44.99    1.72
  11   1 -10   46.38    1.60
  -9  -1  10   22.98    1.05
  -9  -1  10   23.55    1.13
  -9  -1  10   23.92    1.24
  -9   1  10   21.99    1.27
   9   1 -10   19.62    0.88
  -9   1  10   21.37    1.02
  -9   1  10   21.70    1.02
  -7  -1  10   76.43    2.63
  -7  -1  10   71.84    2.46
  -7  -1  10   75.81    3.01
   7   1 -10   68.91    2.30
  -7   1  10   70.91    2.47
  -7   1  10   70.43    2.45
  -7   1  10   73.32    2.96
  -5  -1  10   74.89    2.60
  -5  -1  10   69.60    2.42
  -5  -1  10   74.28    2.95
   5   1 -10   57.32    1.98
  -5   1  10   63.22    2.58
  -5   1  10   59.71    2.17
  -3  -1  10   56.03    2.11
  -3  -1  10   55.29    1.95
  -3   1  10   53.77    2.32
  -3   1  10   52.67    1.97
   3   1 -10   50.57    1.78
  -1  -1  10   18.52    0.94
  -1  -1  10   18.37    1.05
   1   1 -10   15.93    0.77
  -1   1  10   16.21    1.09
  -1   1  10   14.46    0.94
   1  -1  10   25.22    1.25
   1  -1  10   22.82    1.09
   1   1  10   22.53    1.16
   1   1  10   24.07    1.34
  -1   1 -10   24.19    1.00
   3  -1  10    4.53    0.63
   3  -1  10    3.47    0.57
  -3   1 -10    5.45    0.53
   3   1  10    3.06    0.54
   5  -1  10   46.82    1.94
   5  -1  10   47.03    1.78
   5   1  10   48.93    1.94
   5   1  10   50.68    2.00
  -5   1 -10   47.10    1.72
   7  -1  10   99.03    3.43
   7  -1  10   95.67    3.19
   7   1  10   92.82    3.38
  -7   1 -10   90.20    2.93
   7   1  10   88.51    3.13
   9  -1  10   16.39    1.20
   9  -1  10   14.69    0.96
  -9   1 -10   14.25    0.80
   9   1  10   13.86    1.05
   9   1  10   14.41    0.98
   9   1  10   14.10    1.00
  11  -1  10   13.64    1.19
  11   1  10   11.96    1.03
  11   1  10   12.58    0.95
  11   1  10   10.46    0.98
 -11   1 -10   12.16    0.77
  13  -1  10   24.31    1.48
  13   1  10   23.78    1.30
 -13   1 -10   21.39    1.05
  13   1  10   24.34    1.32
  13   1  10   22.35    1.32
  15  -1  10    3.25    0.74
 -15   1 -10    3.19    0.47
  15   1  10    3.94    0.68
  15   1  10    3.01    0.61
  17  -1  10   14.23    1.24
  17   1  10   10.20    1.09
 -17   1 -10   11.76    0.83
  19  -1  10   63.57    2.53
 -19   1 -10   56.22    2.00
  21  -1  10    9.21    1.14
 -21   1 -10    9.98    0.82
  23  -1  10   18.48    1.33
 -23   1 -10   19.36    1.01
  25  -1  10   23.61    1.43
 -25   1 -10   25.52    1.16
  27  -1  10   34.15    1.67
 -27   1 -10   28.34    1.22
  29  -1  10    1.89    0.67
 -29   1 -10   -0.16    0.38
  31  -1  10   10.81    1.03
  31  -1  10   11.83    0.85
 -31   1 -10    8.25    0.67
 -33  -1 -10    4.91    0.60
  33  -1  10    5.51    0.82
  33  -1  10    4.15    0.65
 -33   1 -10    3.62    0.53
  48   2 -10    3.87    0.51
 -48   2  10    3.49    0.51
 -46  -2  10    7.49    0.91
  46   2 -10    9.88    0.83
 -46   2  10    9.68    0.68
 -46   2  10   10.65    0.92
 -44  -2  10    8.71    0.97
 -44  -2  10    6.46    0.78
 -44   2  10    7.50    0.85
 -44   2  10    6.11    0.62
  44   2 -10    5.70    0.78
 -42  -2  10    1.53    0.59
 -42  -2  10    0.08    0.59
 -42  -2  10    0.43    0.46
  42   2 -10    1.08    0.51
 -42   2  10    1.81    0.57
 -42   2  10    0.69    0.36
 -42   2  10    0.16    0.68
 -40  -2  10   10.13    1.02
 -40  -2  10    6.96    0.81
 -40  -2  10    9.38    0.88
 -40  -2  10    7.58    0.85
 -40   2  10    6.51    0.66
  40   2 -10    6.81    0.82
 -40   2  10    7.71    0.88
 -40   2  10    6.97    1.13
 -38  -2  10   35.98    1.63
 -38  -2  10   34.34    1.57
 -38  -2  10   35.83    1.74
 -38  -2  10   35.25    1.49
 -38   2  10   32.34    1.93
  38   2 -10   33.35    1.40
 -38   2  10   35.33    1.37
 -38   2  10   32.57    1.51
 -36  -2  10    8.83    1.12
 -36  -2  10    8.78    0.88
 -36  -2  10    7.75    0.97
 -36  -2  10    7.43    0.88
 -36   2  10    6.96    1.14
 -36   2  10    6.72    0.88
  36   2 -10    5.67    0.81
 -36   2  10    7.80    0.68
 -34  -2  10   24.79    1.30
 -34  -2  10   26.24    1.23
 -34  -2  10   23.73    1.44
 -34  -2  10   27.07    1.38
 -34   2  10   21.94    1.21
  34   2 -10   21.88    1.11
 -34   2  10   20.69    1.53
 -34   2  10   21.51    1.02
 -32  -2  10   46.33    2.04
 -32  -2  10   46.12    1.91
 -32  -2  10   47.52    1.78
 -32  -2  10   47.35    1.92
 -32   2  10   42.58    1.64
 -32   2  10   41.56    1.79
  32   2 -10   44.81    1.66
 -32   2  10   44.52    2.26
 -30  -2  10   20.16    1.33
 -30  -2  10   21.63    1.24
 -30  -2  10   19.65    1.08
 -30  -2  10   20.01    1.13
 -30   2  10   20.07    0.98
  30   2 -10   21.51    1.07
 -30   2  10   21.73    1.20
 -30   2  10   18.97    1.49
 -28  -2  10   28.08    1.37
 -28  -2  10   25.83    1.29
 -28  -2  10   27.46    1.25
 -28  -2  10   27.31    1.50
 -28   2  10   28.06    1.36
  28   2 -10   27.33    1.19
 -28   2  10   25.43    1.66
 -28   2  10   26.86    1.17
 -26  -2  10   18.93    1.23
 -26  -2  10   19.17    1.13
 -26  -2  10   17.60    1.05
 -26  -2  10   18.25    1.04
  26   2 -10   16.97    0.93
 -26   2  10   15.25    1.05
 -26   2  10   16.52    1.31
 -24  -2  10   11.60    0.94
 -24  -2  10   11.63    1.04
 -24  -2  10   12.00    0.87
 -24   2  10    9.59    0.88
  24   2 -10   10.92    0.78
 -24   2  10   11.26    1.14
 -22  -2  10   30.27    1.36
 -22  -2  10   29.41    1.37
 -22  -2  10   30.36    1.33
 -22  -2  10   32.10    1.52
  22   2 -10   33.11    1.32
 -22   2  10   31.36    1.44
 -22   2  10   31.75    1.78
 -20  -2  10   14.03    0.91
 -20  -2  10   15.11    1.07
 -20  -2  10   15.13    0.90
 -20  -2  10   14.26    0.95
 -20   2  10   13.86    0.97
 -20   2  10   15.67    1.21
  20   2 -10   15.71    0.85
 -18  -2  10    7.99    0.68
 -18  -2  10    8.06    0.74
 -18  -2  10    8.94    0.74
 -18  -2  10    7.80    0.89
 -18   2  10    7.45    0.97
  18   2 -10    7.60    0.65
 -18   2  10    7.20    0.79
 -16  -2  10    4.23    0.54
 -16  -2  10    3.80    0.57
 -16  -2  10    4.65    0.62
 -16  -2  10    4.23    0.60
 -16   2  10    5.02    0.87
 -16   2  10    4.57    0.60
 -16   2  10    5.60    0.82
  16   2 -10    4.39    0.56
 -14  -2  10   29.89    1.29
 -14  -2  10   31.11    1.31
  14   2 -10   28.79    1.13
 -14   2  10   25.92    1.27
 -14   2  10   27.81    1.57
 -14   2  10   25.46    1.52
 -12  -2  10   18.34    0.96
 -12  -2  10   17.75    0.96
 -12   2  10   15.28    0.97
  12   2 -10   17.58    0.82
 -12   2  10   15.14    1.18
 -10  -2  10   23.85    1.15
 -10  -2  10   23.35    1.13
 -10   2  10   20.08    1.29
  10   2 -10   20.41    0.90
 -10   2  10   17.60    1.03
  -8  -2  10   19.58    1.00
  -8  -2  10   17.53    1.01
  -8   2  10   19.52    1.24
   8   2 -10   17.17    0.86
  -8   2  10   18.03    1.00
  -6  -2  10   18.35    1.01
  -6  -2  10   18.49    1.01
  -6   2  10   17.38    0.97
  -6   2  10   17.02    1.16
   6   2 -10   16.94    0.84
  -4  -2  10    4.02    0.55
  -4  -2  10    5.23    0.66
  -4   2  10    3.25    0.63
  -4   2  10    2.57    0.49
   4   2 -10    3.12    0.49
  -2  -2  10   78.09    2.79
  -2  -2  10   78.23    2.65
  -2   2  10   73.49    3.12
   2   2 -10   76.78    2.49
   0  -2  10   75.32    2.59
   0  -2  10   75.64    2.72
   0   2 -10   70.69    2.32
   0   2  10   67.39    2.90
   2  -2  10    2.48    0.56
   2  -2  10    2.56    0.52
   2   2  10    2.73    0.47
   2   2  10    3.48    0.62
  -2   2 -10    2.32    0.38
   4  -2  10    2.49    0.58
   4  -2  10    2.00    0.49
  -4   2 -10    1.44    0.35
   4   2  10    1.74    0.44
   6  -2  10    8.95    0.82
   6  -2  10   10.37    1.00
  -6   2 -10    7.62    0.64
   6   2  10    8.90    0.82
   6   2  10    7.30    0.68
   8  -2  10    6.88    0.80
   8  -2  10    7.89    1.00
  -8   2 -10    5.82    0.63
   8   2  10    5.30    0.64
   8   2  10    6.02    0.80
  10  -2  10   35.47    1.73
  10  -2  10   34.15    1.51
  10   2  10   29.67    1.40
  10   2  10   28.05    1.37
 -10   2 -10   30.46    1.24
  12  -2  10   15.14    1.30
  12  -2  10   16.53    1.06
  12   2  10   15.48    1.01
 -12   2 -10   13.05    0.83
  12   2  10   11.39    0.92
  14  -2  10   12.99    1.26
  14  -2  10   13.61    0.98
  14   2  10   12.03    1.02
 -14   2 -10   11.71    0.82
  16  -2  10   14.31    1.02
  16  -2  10   15.81    1.32
  16   2  10   14.25    1.08
 -16   2 -10   12.95    0.86
  18  -2  10    0.03    0.68
  18  -2  10    0.95    0.54
  18   2  10   -0.11    0.52
 -18   2 -10   -0.14    0.40
  20  -2  10   26.81    1.58
  20  -2  10   27.45    1.33
 -20   2 -10   26.30    1.16
  20   2  10   25.04    1.38
  22  -2  10   -0.36    0.64
  22  -2  10    1.31    0.56
  22   2  10    0.33    0.55
 -22   2 -10    0.54    0.41
  24  -2  10   23.92    1.21
  24  -2  10   23.51    1.46
 -24   2 -10   23.85    1.08
  24   2  10   23.74    1.30
  26  -2  10    4.32    0.62
  26  -2  10    3.80    0.75
  26   2  10    4.10    0.66
 -26   2 -10    4.09    0.60
  28  -2  10    5.79    0.72
  28  -2  10    5.02    0.75
 -28   2 -10    5.36    0.58
  30  -2  10    9.77    0.73
  30  -2  10    8.85    1.00
 -30   2 -10    8.21    0.61
  32  -2  10    3.70    0.60
 -45  -3  10    1.02    0.49
 -45   3  10    0.60    0.47
  45   3 -10    0.72    0.41
 -43  -3  10    3.78    0.60
 -43  -3  10    5.52    0.91
 -43   3  10    5.74    0.81
  43   3 -10    5.93    0.73
 -41  -3  10   12.95    1.04
 -41  -3  10   14.43    1.12
 -41   3  10   12.07    0.97
  41   3 -10   10.96    0.85
 -39  -3  10    1.85    0.51
 -39  -3  10    1.46    0.61
 -39  -3  10    3.17    0.65
  39   3 -10    2.40    0.51
 -39   3  10    1.86    0.60
 -37  -3  10   15.28    1.18
 -37  -3  10   16.53    1.17
 -37  -3  10   15.05    0.98
 -37   3  10   10.59    1.14
 -37   3  10   13.78    1.04
  37   3 -10   13.41    0.91
 -35  -3  10    6.48    0.82
 -35  -3  10   10.00    1.04
 -35  -3  10    8.11    1.07
  35   3 -10    7.83    0.78
 -35   3  10    4.46    0.84
 -35   3  10    7.32    0.95
 -33  -3  10    9.20    1.03
 -33  -3  10    8.74    0.83
 -33  -3  10    8.93    1.14
 -33   3  10    3.93    0.83
 -33   3  10    6.75    0.93
  33   3 -10    5.74    0.80
 -31  -3  10    4.88    0.77
 -31  -3  10    5.29    0.72
 -31  -3  10    6.35    1.07
 -31   3  10    5.46    0.71
 -31   3  10    3.88    0.83
  31   3 -10    6.00    0.77
 -29  -3  10    0.31    0.61
 -29  -3  10    1.02    0.49
 -29  -3  10   -0.32    0.52
 -29   3  10    0.10    0.53
 -29   3  10   -0.12    0.62
  29   3 -10   -0.25    0.44
 -27  -3  10   40.20    1.87
 -27  -3  10   39.13    1.58
 -27  -3  10   40.23    1.72
 -27   3  10   35.84    1.63
 -27   3  10   35.67    1.94
  27   3 -10   37.00    1.48
 -25  -3  10    9.94    0.86
 -25  -3  10    9.95    0.96
 -25  -3  10    8.93    1.09
 -25   3  10   11.12    1.15
 -25   3  10    9.49    0.99
  25   3 -10   12.86    0.86
 -23  -3  10   12.65    1.01
 -23  -3  10   15.77    1.17
 -23  -3  10   15.47    0.99
  23   3 -10   12.84    0.89
 -23   3  10   13.42    1.20
 -23   3  10   12.63    1.05
 -21  -3  10   14.36    0.98
 -21  -3  10   14.53    1.02
 -21  -3  10   13.02    1.11
 -21   3  10   12.13    1.19
 -21   3  10   14.15    1.43
 -21   3  10   14.15    1.08
 -21   3  10   15.28    1.18
  21   3 -10   13.86    0.90
 -19  -3  10    8.83    0.86
 -19  -3  10   10.02    1.00
 -19   3  10    8.57    0.97
 -19   3  10   11.36    1.33
  19   3 -10    9.37    0.77
 -19   3  10    9.79    1.07
 -19   3  10    7.69    1.04
 -17  -3  10   55.46    2.24
 -17  -3  10   55.98    2.08
 -17   3  10   60.60    2.29
 -17   3  10   63.72    3.03
 -17   3  10   57.31    2.67
  17   3 -10   58.02    2.08
 -17   3  10   55.25    2.51
 -15  -3  10  131.46    4.61
 -15  -3  10  138.37    4.30
 -15   3  10  138.11    5.41
  15   3 -10  140.34    4.34
 -15   3  10  138.31    4.60
 -15   3  10  136.98    5.12
 -15   3  10  137.43    6.08
 -13  -3  10   20.47    1.13
  13   3 -10   16.75    0.93
 -13   3  10   19.64    1.62
 -13   3  10   15.65    1.08
 -13   3  10   16.34    1.27
 -13   3  10   16.48    1.31
 -11  -3  10   40.15    1.63
 -11   3  10   39.14    2.10
 -11   3  10   46.60    2.50
 -11   3  10   43.48    1.81
  11   3 -10   43.50    1.63
 -11   3  10   44.58    2.09
  -9  -3  10   84.34    2.86
  -9   3  10   80.12    3.79
  -9   3  10   75.41    3.20
  -9   3  10   78.85    3.30
   9   3 -10   79.60    2.62
  -9   3  10   79.76    2.83
  -7  -3  10   23.42    1.18
  -7  -3  10   22.93    1.17
  -7   3  10   23.43    1.22
  -7   3  10   20.82    1.40
  -7   3  10   23.21    1.53
   7   3 -10   20.49    1.04
  -7   3  10   24.42    1.76
  -5  -3  10   12.65    0.93
  -5  -3  10   13.92    0.92
  -5  -3  10   13.46    0.97
  -5  -3  10   12.89    0.93
  -5   3  10   11.85    1.08
   5   3 -10   11.58    0.78
  -5   3  10   12.27    1.31
  -5   3  10   14.68    1.46
  -5   3  10   12.46    0.98
  -3  -3  10    8.39    0.82
  -3  -3  10    7.73    0.82
  -3  -3  10    7.96    0.78
  -3  -3  10    7.63    0.85
   3   3 -10    8.25    0.68
  -3   3  10    6.88    0.94
  -1  -3  10    3.58    0.57
  -1  -3  10    3.73    0.60
  -1  -3  10    2.57    0.55
  -1  -3  10    2.75    0.47
  -1   3  10    2.48    0.66
   1   3 -10    2.29    0.45
   1  -3  10    7.14    0.76
   1  -3  10    9.22    0.86
   1  -3  10    8.67    0.87
   1  -3  10    6.38    0.88
  -1   3 -10    8.60    0.70
   3  -3  10    2.96    0.50
   3  -3  10    2.97    0.61
   3  -3  10    3.11    0.61
  -3   3 -10    2.66    0.44
   5  -3  10   29.56    1.49
   5  -3  10   29.85    1.31
   5  -3  10   31.87    1.44
   5   3  10   27.99    1.28
  -5   3 -10   27.76    1.18
   7  -3  10    4.72    0.73
   7  -3  10    5.51    0.84
   7  -3  10    6.48    0.95
   7   3  10    5.48    0.77
  -7   3 -10    5.20    0.63
   9  -3  10    0.03    0.41
   9  -3  10    1.02    0.52
   9  -3  10   -0.38    0.54
  -9   3 -10   -0.24    0.33
   9   3  10   -0.32    0.44
  11  -3  10   27.98    1.49
  11  -3  10   26.80    1.33
  11  -3  10   27.14    1.24
 -11   3 -10   25.38    1.13
  11   3  10   26.21    1.28
  13  -3  10   28.47    1.52
  13  -3  10   29.17    1.36
  13   3  10   24.54    1.26
 -13   3 -10   25.00    1.10
  15  -3  10   29.35    1.54
  15  -3  10   29.97    1.38
 -15   3 -10   26.50    1.17
  15   3  10   28.38    1.35
  17  -3  10   22.33    1.15
  17  -3  10   20.78    1.34
 -17   3 -10   19.23    0.97
  17   3  10   20.87    1.17
  19  -3  10    1.76    0.55
  19  -3  10    0.32    0.65
  19   3  10    1.14    0.52
 -19   3 -10    0.81    0.37
  21  -3  10    4.51    0.76
  21  -3  10    4.50    0.61
 -21   3 -10    4.06    0.58
  21   3  10    4.83    0.62
  23  -3  10    0.80    0.62
  23  -3  10    0.61    0.49
 -23   3 -10    0.23    0.32
  23   3  10    0.35    0.51
  25  -3  10   11.43    1.05
  25  -3  10   13.08    0.85
  25   3  10   10.57    0.89
  27  -3  10   16.61    1.08
 -38  -4  10    5.53    0.63
 -38  -4  10    7.70    0.88
 -38   4  10    3.57    0.59
 -36  -4  10    9.36    0.96
 -36  -4  10    6.86    0.91
  36   4 -10    7.01    0.71
 -36   4  10    7.20    0.87
 -34  -4  10    1.80    0.46
 -34  -4  10    0.82    0.58
 -34  -4  10    1.20    0.55
 -34   4  10    0.08    0.53
  34   4 -10    1.25    0.44
 -32  -4  10   14.10    1.05
 -32  -4  10   13.00    0.87
 -32  -4  10   12.42    1.14
  32   4 -10   11.27    0.84
 -32   4  10   11.49    0.97
 -30  -4  10   10.75    0.82
 -30  -4  10   10.41    1.00
 -30  -4  10   11.30    1.13
 -30   4  10   11.08    0.99
  30   4 -10   11.27    0.83
 -28  -4  10    2.82    0.61
 -28  -4  10    1.94    0.50
 -28  -4  10    3.15    0.70
 -28   4  10    3.43    0.67
  28   4 -10    3.18    0.52
 -26  -4  10    9.78    1.11
 -26  -4  10    8.24    0.94
 -26  -4  10    8.74    0.81
  26   4 -10    7.94    0.81
 -26   4  10    7.16    0.96
 -24  -4  10    3.17    0.53
 -24  -4  10    3.12    0.68
 -24   4  10    3.10    0.69
  24   4 -10    2.84    0.53
 -22  -4  10    9.81    1.11
 -22  -4  10   11.80    0.86
 -22   4  10   10.49    1.02
  22   4 -10   11.53    0.83
 -22   4  10   10.51    1.33
 -20  -4  10    5.87    1.00
 -20  -4  10    5.82    0.76
 -20   4  10    6.74    1.36
  20   4 -10    5.82    0.75
 -20   4  10    6.21    0.91
 -18  -4  10    9.24    0.86
 -18  -4  10   10.00    1.15
 -18  -4  10    9.68    0.80
 -18   4  10   11.93    1.50
 -18   4  10    8.41    0.95
  18   4 -10   10.37    0.82
 -18   4  10    9.61    1.13
 -16  -4  10    6.23    0.80
 -16  -4  10    5.86    0.71
  16   4 -10    5.59    0.75
 -16   4  10    6.57    0.92
 -16   4  10    5.98    1.12
 -16   4  10    4.62    0.83
 -14  -4  10    2.63    0.52
 -14  -4  10    3.22    0.67
 -14  -4  10    2.36    0.55
  14   4 -10    3.39    0.53
 -14   4  10    4.00    1.03
 -14   4  10    2.86    0.75
 -14   4  10    3.87    0.67
 -12  -4  10   19.60    1.11
 -12  -4  10   16.80    1.34
 -12  -4  10   18.69    1.04
 -12   4  10   15.20    1.27
 -12   4  10   16.72    1.68
  12   4 -10   17.56    0.98
 -12   4  10   18.28    1.16
 -10  -4  10    5.91    0.82
 -10  -4  10    7.37    0.78
  10   4 -10    5.50    0.75
 -10   4  10   12.08    1.49
  -8  -4  10   50.64    1.86
  -8  -4  10   51.45    1.96
  -8   4  10   52.41    2.06
  -8   4  10   51.46    2.36
  -8   4  10   50.74    2.80
   8   4 -10   52.28    1.88
  -6  -4  10   48.26    1.76
  -6  -4  10   45.76    1.83
   6   4 -10   45.55    1.67
  -6   4  10   41.67    2.51
  -6   4  10   46.78    2.17
  -4  -4  10   10.33    0.88
  -4  -4  10    8.76    0.90
  -4  -4  10   10.41    1.02
  -4   4  10   12.14    1.22
   4   4 -10    8.24    0.78
  -4   4  10   10.35    1.40
  -2  -4  10   10.86    1.02
  -2  -4  10    9.38    0.86
  -2  -4  10   11.15    0.92
   2   4 -10    8.60    0.75
  -2   4  10    8.53    1.22
  -2   4  10    8.09    1.36
   0  -4  10    5.99    0.63
   0  -4  10    7.54    0.83
   0  -4  10    6.53    0.93
   0   4 -10    5.56    0.69
   0   4  10    5.75    0.97
   2  -4  10    4.00    0.69
   2  -4  10    4.70    0.72
   2  -4  10    6.06    0.82
  -2   4 -10    3.90    0.49
   2   4  10    5.79    0.94
   4  -4  10   20.72    1.16
   4  -4  10   21.10    1.24
   4  -4  10   20.73    1.07
  -4   4 -10   17.86    0.91
   4   4  10   17.48    1.45
   6  -4  10    5.31    0.74
   6  -4  10    6.27    0.83
   6  -4  10    4.39    0.70
   6   4  10    5.72    0.95
  -6   4 -10    4.52    0.62
   8  -4  10   11.71    0.90
   8  -4  10    9.12    0.83
   8   4  10    9.33    1.24
  -8   4 -10    8.22    0.67
  10  -4  10    9.14    0.83
  10  -4  10    7.80    0.79
  10   4  10    6.94    1.21
  12  -4  10    0.80    0.50
  12  -4  10    0.01    0.42
  12   4  10   -0.15    0.41
  14  -4  10   10.91    0.96
  14  -4  10   10.05    0.79
  14   4  10    9.26    0.78
  14   4  10   10.64    1.23
  16  -4  10   21.70    1.02
  16   4  10   21.60    1.08
  16   4  10   22.10    1.42
  18   4  10    0.25    0.65
  18   4  10    0.20    0.42
  20   4  10    6.87    0.70
  22   4  10    7.31    0.67
 -29  -5  10    2.56    0.56
 -29   5  10    1.96    0.49
 -27  -5  10    1.48    0.53
 -27   5  10    1.94    0.52
 -25  -5  10    9.49    0.98
 -25   5  10    9.47    0.86
 -23  -5  10    3.25    0.60
 -23   5  10    4.15    0.61
 -21  -5  10    3.49    0.64
 -21   5  10    6.11    1.18
 -21   5  10    5.28    0.84
 -19  -5  10   21.18    1.28
 -19  -5  10   23.46    1.06
 -19   5  10   23.46    1.19
 -19   5  10   21.73    1.64
 -17  -5  10   22.80    0.98
 -17  -5  10   21.52    1.30
 -17   5  10   21.86    1.17
 -17   5  10   18.74    1.60
 -15  -5  10    3.93    0.66
 -15  -5  10    3.17    0.46
 -15   5  10    3.14    0.91
 -13  -5  10    6.05    0.66
 -13  -5  10    3.65    0.68
 -13   5  10    6.85    1.33
 -11  -5  10    7.86    0.74
 -11   5  10    6.71    1.32
  -9  -5  10    4.86    0.71
  -9   5  10    3.21    0.77
  -9   5  10    2.28    0.92
  -7  -5  10    6.28    0.74
  -7   5  10    4.40    0.96
  -7   5  10    3.21    0.79
  -5  -5  10    5.84    0.71
  -5   5  10    6.31    1.27
  -5   5  10    4.20    0.80
  -3  -5  10    8.28    0.79
  -3   5  10   10.01    1.11
  -1  -5  10    9.67    0.79
  -1   5  10    9.39    1.11
   1  -5  10    1.18    0.43
   1   5  10    1.78    0.71
   3  -5  10    7.67    0.75
   3   5  10    6.01    1.01
   5  -5  10    9.46    0.78
   5   5  10    8.63    1.03
   7  -5  10    4.26    0.66
   7   5  10    5.07    0.94
   9  -5  10    2.30    0.42
   9   5  10    2.24    0.67
  11   5  10    0.27    0.59
 -50   0  11   19.05    0.94
  48   0 -11   27.72    1.25
 -48   0  11   31.21    1.27
 -46   0  11    0.45    0.41
  46   0 -11    0.01    0.49
 -44   0  11   -0.11    0.42
  44   0 -11   -0.28    0.51
  42   0 -11    5.60    0.83
 -42   0  11    5.84    0.77
 -40   0  11   53.75    2.07
 -38   0  11   22.84    1.53
 -38   0  11   28.98    1.29
 -36   0  11   13.03    1.16
 -36   0  11   13.40    0.95
 -34   0  11    8.26    1.01
 -34   0  11    9.32    0.81
 -32   0  11    1.62    0.45
 -32   0  11    1.74    0.62
 -32   0  11    1.71    0.46
 -30   0  11    0.95    0.40
 -30   0  11    0.56    0.55
 -30   0  11    0.87    0.40
 -28   0  11  103.89    3.59
 -28   0  11  103.46    4.17
 -28   0  11  101.03    3.23
 -26   0  11    4.26    0.72
 -26   0  11    4.98    0.64
 -26   0  11    4.26    0.62
 -24   0  11  165.64    6.26
 -24   0  11  163.30    4.93
 -24   0  11  162.23    5.50
 -22   0  11  117.62    4.58
 -22   0  11  113.64    3.97
 -20   0  11   53.39    2.40
 -18   0  11   47.46    2.17
 -16   0  11    0.41    0.44
 -16   0  11    0.67    0.35
 -14   0  11   47.18    2.13
 -14   0  11   46.60    1.80
 -12   0  11  112.21    3.72
 -12   0  11  110.67    4.36
 -10   0  11   12.39    0.96
 -10   0  11   13.68    0.85
  -8   0  11    7.57    0.74
  -8   0  11    7.42    0.61
  -8   0  11    7.24    0.78
  -6   0  11    4.95    0.71
  -6   0  11    5.10    0.69
  -6   0  11    5.17    0.56
  -4   0  11    6.15    0.59
  -4   0  11    5.40    0.73
  -4   0  11    6.42    0.74
  -2   0  11   64.39    2.21
  -2   0  11   64.60    2.39
  -2   0  11   64.82    2.73
   0   0  11   17.45    1.08
   0   0  11   17.70    0.93
   2   0  11    9.96    0.76
  -2   0 -11   10.63    0.70
   2   0  11   11.51    0.96
   4   0  11    7.07    0.70
   4   0  11    7.85    0.91
  -4   0 -11    7.34    0.62
   6   0  11   20.75    1.04
  -6   0 -11   19.04    0.92
   6   0  11   19.69    1.21
   8   0  11   -0.50    0.49
  -8   0 -11    0.67    0.34
 -10   0 -11    0.38    0.34
  10   0  11    0.46    0.54
 -12   0 -11   35.24    1.43
  12   0  11   38.07    1.71
  14   0  11   65.61    2.53
 -14   0 -11   66.31    2.27
 -16   0 -11   14.39    0.89
  16   0  11   15.48    1.18
  18   0  11   13.93    1.12
 -18   0 -11   12.37    0.87
 -20   0 -11   11.61    0.84
  20   0  11   11.35    1.08
  22   0  11   20.00    1.25
 -22   0 -11   20.77    1.05
 -24   0 -11   90.00    2.88
  24   0  11   87.20    3.08
  26   0  11    3.29    0.60
 -26   0 -11    3.01    0.47
 -28   0 -11    0.32    0.35
  28   0  11    0.57    0.49
 -30   0 -11    3.60    0.55
  30   0  11    4.67    0.64
 -49  -1  11    0.30    0.38
 -49   1  11    0.24    0.33
  49   1 -11    0.14    0.43
 -47  -1  11    6.22    0.71
 -47   1  11    7.76    0.66
  47   1 -11    7.47    0.76
 -45  -1  11    9.64    0.82
  45   1 -11    8.32    0.82
 -45   1  11    9.70    0.75
 -43  -1  11    3.74    0.54
 -43   1  11    3.92    0.67
  43   1 -11    4.05    0.55
 -41  -1  11   19.12    1.09
  41   1 -11   16.71    0.99
 -41   1  11   16.33    0.95
 -41   1  11   13.52    1.29
 -39  -1  11    4.80    0.76
 -39  -1  11    3.88    0.59
 -39   1  11    4.73    0.86
  39   1 -11    4.64    0.75
 -39   1  11    4.11    0.51
 -37  -1  11   25.19    1.29
 -37  -1  11   25.37    1.20
 -37   1  11   24.35    1.60
  37   1 -11   22.14    1.13
 -37   1  11   24.91    1.16
 -35  -1  11    6.92    0.95
 -35  -1  11    8.03    0.79
 -35  -1  11    6.32    0.80
 -35  -1  11    6.80    1.05
  35   1 -11    6.30    0.76
 -35   1  11    6.40    1.08
 -35   1  11    7.30    0.74
 -33  -1  11   12.90    1.06
 -33  -1  11   12.45    0.88
 -33  -1  11   13.13    0.91
 -33  -1  11   12.48    1.11
 -33   1  11   12.14    1.25
  33   1 -11   12.71    0.87
 -33   1  11   11.87    0.84
 -31  -1  11    5.07    0.68
 -31  -1  11    5.87    0.72
 -31  -1  11    4.55    0.73
 -31  -1  11    5.24    0.69
  31   1 -11    4.57    0.59
 -31   1  11    3.62    0.79
 -31   1  11    3.69    0.48
 -29  -1  11   32.39    1.37
 -29  -1  11   34.32    1.59
 -29  -1  11   31.89    1.50
 -29  -1  11   33.36    1.44
  29   1 -11   34.23    1.39
 -29   1  11   34.30    1.88
 -29   1  11   32.87    1.39
 -27  -1  11   42.00    1.62
 -27  -1  11   43.11    1.84
 -27  -1  11   43.04    1.73
 -27  -1  11   42.18    1.75
 -27   1  11   36.91    1.50
 -27   1  11   37.52    1.97
  27   1 -11   38.42    1.49
 -25  -1  11    1.80    0.51
 -25  -1  11    1.85    0.50
 -25  -1  11    1.97    0.51
 -25  -1  11    1.96    0.43
 -25   1  11    2.48    0.41
  25   1 -11    2.96    0.48
 -25   1  11    1.88    0.62
 -23  -1  11    7.33    0.87
 -23  -1  11    7.75    0.72
 -23  -1  11    6.68    0.68
 -23  -1  11    7.24    0.80
  23   1 -11    7.93    0.67
 -23   1  11    6.74    0.65
 -23   1  11    8.61    1.00
 -21  -1  11   14.57    0.97
 -21  -1  11   16.08    0.90
 -21  -1  11   17.15    0.93
 -21  -1  11   15.28    1.04
 -21   1  11   15.52    1.18
 -21   1  11   13.53    0.80
  21   1 -11   14.98    0.83
 -19  -1  11   41.34    1.59
  19   1 -11   40.80    1.52
 -19   1  11   41.53    2.04
 -17  -1  11   14.17    0.82
 -17  -1  11   14.36    0.87
  17   1 -11   11.88    0.71
 -17   1  11   13.70    1.11
 -15  -1  11   41.79    1.92
 -15  -1  11   41.05    1.59
 -15  -1  11   43.67    1.68
 -15   1  11   36.39    1.78
 -15   1  11   32.25    1.41
  15   1 -11   34.04    1.28
 -13  -1  11    3.71    0.58
 -13  -1  11    3.16    0.52
 -13  -1  11    3.70    0.56
 -13   1  11    4.76    0.65
 -13   1  11    5.50    0.83
  13   1 -11    4.91    0.51
 -11  -1  11   18.02    0.95
 -11  -1  11   20.28    1.03
 -11  -1  11   19.28    1.12
  11   1 -11   19.04    0.87
 -11   1  11   16.94    0.96
 -11   1  11   19.27    0.98
 -11   1  11   20.17    1.24
  -9  -1  11   29.84    1.35
  -9  -1  11   28.44    1.25
  -9  -1  11   29.43    1.47
   9   1 -11   28.28    1.13
  -9   1  11   28.35    1.53
  -9   1  11   28.99    1.26
  -7  -1  11    1.79    0.47
  -7  -1  11    1.47    0.39
  -7  -1  11    1.21    0.44
   7   1 -11    1.40    0.30
  -7   1  11    1.25    0.50
  -7   1  11    1.78    0.40
  -5  -1  11   40.09    1.52
  -5  -1  11   38.18    1.64
   5   1 -11   35.96    1.37
  -5   1  11   38.26    1.83
  -5   1  11   36.28    1.52
  -3  -1  11   17.13    1.05
  -3  -1  11   17.99    0.95
  -3   1  11   15.36    0.95
   3   1 -11   14.08    0.75
  -3   1  11   15.60    1.09
  -1  -1  11   25.17    1.28
  -1  -1  11   22.02    1.10
   1   1 -11   19.20    0.87
  -1   1  11   17.37    1.17
  -1   1  11   18.26    1.06
   1  -1  11    1.48    0.42
   1  -1  11    0.92    0.49
   1   1  11    1.32    0.47
  -1   1 -11    1.99    0.35
   3  -1  11   37.07    1.51
   3  -1  11   36.36    1.67
   3   1  11   36.06    1.57
  -3   1 -11   35.87    1.39
   5  -1  11   65.98    2.52
   5  -1  11   65.21    2.33
  -5   1 -11   63.06    2.10
   5   1  11   65.34    2.30
   5   1  11   54.81    2.14
   7  -1  11   48.38    2.04
   7  -1  11   46.10    1.83
   7   1  11   36.16    1.60
  -7   1 -11   38.41    1.44
   9  -1  11    0.69    0.59
   9  -1  11    0.88    0.51
  -9   1 -11    0.60    0.33
   9   1  11    0.37    0.48
  11  -1  11   30.95    1.61
  11  -1  11   28.00    1.39
 -11   1 -11   28.68    1.21
  11   1  11   27.94    1.39
  13  -1  11   41.90    1.92
  13  -1  11   40.87    1.71
 -13   1 -11   39.26    1.52
  15  -1  11   29.80    1.60
  15  -1  11   29.02    1.40
 -15   1 -11   26.29    1.18
  17  -1  11   18.10    1.32
 -17   1 -11   17.27    0.95
  19  -1  11    5.86    0.83
  19  -1  11    4.89    0.78
 -19   1 -11    4.81    0.68
  21  -1  11    3.18    0.73
  21  -1  11    3.04    0.60
 -21   1 -11    1.56    0.45
  23  -1  11   21.76    1.31
  23  -1  11   19.58    1.10
 -23  -1 -11   18.93    0.98
 -23   1 -11   17.50    0.92
 -25  -1 -11   18.23    0.94
  25  -1  11   18.13    1.04
  25  -1  11   18.68    1.24
 -25   1 -11   19.17    0.93
  27  -1  11    8.07    0.77
  27  -1  11    9.31    0.98
 -27  -1 -11    7.71    0.68
 -27   1 -11    6.70    0.64
  29  -1  11   10.72    0.76
 -29  -1 -11   10.02    0.70
  29  -1  11   12.14    0.94
 -29   1 -11   11.01    0.69
 -46  -2  11    2.16    0.46
 -46   2  11    2.31    0.33
  46   2 -11    3.20    0.47
 -44  -2  11    0.86    0.40
 -44   2  11    0.34    0.31
  44   2 -11    1.40    0.48
 -42  -2  11    2.57    0.58
 -42  -2  11    1.91    0.49
  42   2 -11    2.26    0.51
 -42   2  11    2.21    0.36
 -40  -2  11   21.59    1.11
 -40  -2  11   23.44    1.37
 -40  -2  11   22.57    1.29
 -40  -2  11   23.44    1.18
  40   2 -11   17.98    1.02
 -40   2  11   17.12    0.87
 -40   2  11   18.14    1.08
 -38  -2  11    1.23    0.49
 -38  -2  11    2.12    0.61
 -38  -2  11    1.38    0.60
 -38  -2  11    1.32    0.51
  38   2 -11    1.95    0.48
 -38   2  11    1.04    0.68
 -38   2  11    1.95    0.57
 -38   2  11    1.22    0.37
 -36  -2  11    9.38    0.90
 -36  -2  11   10.34    0.88
 -36  -2  11    9.27    1.12
 -36  -2  11   11.41    1.05
  36   2 -11    8.84    0.82
 -36   2  11    8.53    0.90
 -36   2  11    8.62    1.11
 -36   2  11    8.76    0.69
 -34  -2  11   15.88    1.13
 -34  -2  11   13.89    1.00
 -34  -2  11   15.52    1.22
 -34  -2  11   15.72    0.97
 -34   2  11   15.92    0.86
  34   2 -11   16.97    0.97
 -34   2  11   15.39    1.32
 -34   2  11   16.69    1.08
 -32  -2  11    1.46    0.50
 -32  -2  11    0.94    0.46
 -32  -2  11    0.30    0.56
 -32  -2  11    1.96    0.57
 -32   2  11    1.56    0.57
 -32   2  11    1.44    0.67
 -32   2  11    0.98    0.35
  32   2 -11    2.08    0.48
 -30  -2  11   29.08    1.41
 -30  -2  11   28.07    1.27
 -30  -2  11   28.55    1.49
 -30  -2  11   28.39    1.36
  30   2 -11   26.10    1.21
 -30   2  11   26.21    1.33
 -30   2  11   25.95    1.12
 -30   2  11   26.62    1.64
 -28  -2  11    5.71    0.85
 -28  -2  11    6.13    0.77
 -28  -2  11    5.73    0.76
 -28  -2  11    6.77    0.93
 -28   2  11    4.34    0.66
 -28   2  11    3.72    0.80
  28   2 -11    5.30    0.70
 -26  -2  11   12.50    0.90
 -26  -2  11   12.09    0.95
 -26  -2  11   13.69    0.94
 -26  -2  11   10.55    1.02
  26   2 -11   12.56    0.86
 -26   2  11   13.11    1.00
 -26   2  11   12.49    1.19
 -24  -2  11    3.00    0.55
 -24  -2  11    3.62    0.61
 -24  -2  11    2.56    0.49
  24   2 -11    2.42    0.49
 -24   2  11    1.15    0.53
 -24   2  11    1.82    0.67
 -22  -2  11   21.13    1.12
 -22  -2  11   18.42    1.05
 -22  -2  11   21.03    1.11
 -22  -2  11   22.33    1.24
 -22   2  11   22.09    1.46
 -22   2  11   21.34    1.21
  22   2 -11   22.58    1.07
 -20  -2  11    3.58    0.53
 -20  -2  11    5.12    0.66
 -20  -2  11    4.96    0.67
 -20   2  11    3.12    0.71
  20   2 -11    3.21    0.45
 -20   2  11    3.01    0.56
 -18  -2  11   24.03    1.19
 -18  -2  11   23.57    1.15
  18   2 -11   27.04    1.15
 -18   2  11   25.54    1.58
 -18   2  11   26.18    1.28
 -16  -2  11   37.88    1.59
 -16  -2  11   38.08    1.53
 -16  -2  11   35.84    1.50
 -16   2  11   34.71    1.53
 -16   2  11   34.17    1.87
 -16   2  11   39.68    1.94
  16   2 -11   36.98    1.41
 -14  -2  11    5.87    0.66
 -14  -2  11    4.02    0.65
 -14   2  11    5.50    0.92
  14   2 -11    4.24    0.55
 -14   2  11    4.63    0.60
 -14   2  11    6.76    0.92
 -12  -2  11   38.12    1.54
 -12  -2  11   35.17    1.49
 -12   2  11   38.09    1.89
  12   2 -11   36.70    1.40
 -12   2  11   34.83    1.53
 -10  -2  11  125.96    4.24
 -10  -2  11  131.23    4.11
 -10   2  11  123.28    4.67
 -10   2  11  113.25    3.90
  10   2 -11  116.38    3.70
  -8  -2  11   35.75    1.51
  -8  -2  11   36.22    1.56
  -8   2  11   31.48    1.69
   8   2 -11   32.31    1.27
  -8   2  11   31.49    1.38
  -6  -2  11   89.66    3.14
  -6  -2  11   90.39    3.02
  -6   2  11   86.99    3.56
   6   2 -11   85.19    2.81
  -4  -2  11   18.17    1.08
  -4  -2  11   18.76    1.07
  -4   2  11   15.97    1.19
   4   2 -11   16.58    0.86
  -2  -2  11   52.75    2.03
  -2  -2  11   57.32    2.15
   2   2 -11   54.17    1.86
  -2   2  11   49.91    2.35
   0  -2  11    8.28    0.90
   0  -2  11    7.11    0.79
   0   2 -11    7.31    0.63
   0   2  11    7.66    0.91
   2  -2  11   30.16    1.38
   2  -2  11   29.79    1.48
  -2   2 -11   28.36    1.19
   4  -2  11   13.30    0.96
   4  -2  11   11.48    1.03
  -4   2 -11   13.70    0.81
   6  -2  11   29.56    1.54
   6  -2  11   30.51    1.40
  -6   2 -11   25.59    1.12
   8  -2  11    0.84    0.48
   8  -2  11   -0.26    0.55
  -8   2 -11    0.70    0.35
  10  -2  11    9.55    1.09
  10  -2  11    9.21    0.89
 -10   2 -11    7.43    0.64
  12  -2  11   50.17    2.12
  12  -2  11   46.18    1.85
 -12   2 -11   36.82    1.41
  14  -2  11    7.00    0.85
  14  -2  11    5.88    0.79
 -14   2 -11    6.37    0.64
  16  -2  11    4.70    0.63
  16  -2  11    4.18    0.75
 -16   2 -11    2.94    0.43
  18  -2  11   15.08    1.01
  18  -2  11   18.15    1.29
 -18   2 -11   10.77    0.73
  20  -2  11    2.87    0.58
  20  -2  11    1.97    0.68
 -20   2 -11    3.11    0.43
  22  -2  11   10.33    1.08
  22  -2  11    7.05    0.79
 -22   2 -11    7.34    0.65
  24  -2  11   11.48    1.08
  24  -2  11   10.59    0.83
 -24   2 -11    8.18    0.65
  26  -2  11    2.31    0.49
 -26  -2 -11    3.18    0.44
  26  -2  11    3.93    0.65
 -26   2 -11    2.80    0.39
  28  -2  11    5.03    0.82
  28  -2  11    5.03    0.60
 -43  -3  11    4.04    0.60
 -43   3  11    5.25    0.59
  43   3 -11    4.61    0.62
 -41  -3  11   10.03    0.96
 -41  -3  11    6.38    0.86
  41   3 -11    6.95    0.72
 -41   3  11    7.59    0.84
 -39  -3  11    5.64    0.68
 -39  -3  11    6.10    0.87
 -39  -3  11    8.18    0.97
 -39   3  11    7.25    0.87
  39   3 -11    5.89    0.71
 -37  -3  11    2.97    0.59
 -37  -3  11    2.48    0.50
 -37  -3  11    2.54    0.63
 -37   3  11    2.71    0.60
  37   3 -11    2.62    0.49
 -35  -3  11   10.12    0.84
 -35  -3  11   12.40    1.01
 -35  -3  11   12.21    1.11
  35   3 -11   10.58    0.81
 -35   3  11   10.71    0.98
 -33  -3  11    3.04    0.52
 -33  -3  11    4.03    0.68
 -33  -3  11    3.43    0.63
  33   3 -11    1.39    0.49
 -33   3  11    3.13    0.62
 -33   3  11    1.04    0.63
 -31  -3  11    0.73    0.58
 -31  -3  11    0.89    0.46
 -31  -3  11    0.23    0.53
  31   3 -11    0.13    0.43
 -31   3  11   -0.33    0.54
 -31   3  11   -0.52    0.58
 -29  -3  11    1.23    0.48
 -29  -3  11    0.91    0.60
 -29  -3  11    0.57    0.54
 -29   3  11    0.94    0.64
  29   3 -11    1.35    0.49
 -29   3  11    0.62    0.58
 -27  -3  11   -0.74    0.43
 -27  -3  11   -0.21    0.49
 -27  -3  11    0.65    0.60
  27   3 -11   -0.19    0.45
 -27   3  11    0.43    0.59
 -27   3  11   -0.18    0.54
 -25  -3  11    1.95    0.56
 -25  -3  11    1.51    0.51
 -25  -3  11    2.32    0.61
 -25   3  11    0.57    0.57
  25   3 -11    1.43    0.46
 -25   3  11    1.43    0.64
 -23  -3  11   25.23    1.39
 -23  -3  11   25.06    1.22
 -23   3  11   18.74    1.38
 -23   3  11   21.52    1.22
  23   3 -11   20.63    1.06
 -21  -3  11   43.65    1.90
 -21   3  11   47.70    2.24
  21   3 -11   48.23    1.76
 -21   3  11   48.11    1.92
 -21   3  11   43.26    2.24
 -19  -3  11   17.97    1.18
 -19  -3  11   19.41    1.09
 -19   3  11   16.57    1.10
 -19   3  11   16.44    1.23
  19   3 -11   15.00    0.93
 -19   3  11   14.87    1.22
 -17  -3  11   24.41    1.18
 -17  -3  11   19.18    1.28
  17   3 -11   21.05    1.07
 -17   3  11   23.70    1.24
 -17   3  11   19.92    1.41
 -17   3  11   22.95    1.41
 -15  -3  11    8.16    0.83
 -15   3  11    9.54    0.92
 -15   3  11    9.00    1.08
  15   3 -11    7.25    0.72
 -15   3  11    7.22    1.00
 -13  -3  11   16.63    1.03
 -13   3  11   17.78    1.31
 -13   3  11   20.87    1.19
  13   3 -11   19.67    1.00
 -13   3  11   20.50    1.39
 -11  -3  11   12.72    0.93
 -11  -3  11   13.60    0.88
 -11   3  11   11.91    1.22
 -11   3  11   11.52    1.11
  11   3 -11   12.84    0.81
 -11   3  11   13.55    1.00
  -9  -3  11    5.20    0.73
  -9  -3  11    6.75    0.72
  -9   3  11    6.01    0.95
  -9   3  11    6.31    1.12
   9   3 -11    7.72    0.68
  -9   3  11    6.43    0.87
  -7  -3  11   11.52    0.89
  -7  -3  11   13.11    0.92
   7   3 -11   10.06    0.73
  -7   3  11    9.71    1.06
  -7   3  11   12.54    1.28
  -5  -3  11   39.33    1.60
  -5  -3  11   37.44    1.63
  -5   3  11   37.51    1.98
   5   3 -11   38.45    1.46
  -5   3  11   36.18    1.88
  -3  -3  11    8.71    0.84
  -3  -3  11    8.37    0.87
   3   3 -11    7.20    0.64
  -3   3  11    5.09    0.93
  -3   3  11    7.33    1.22
  -1  -3  11    5.10    0.82
  -1  -3  11    5.09    0.66
   1   3 -11    4.24    0.58
   1  -3  11   13.72    0.97
   1  -3  11   13.94    1.01
  -1   3 -11   13.05    0.79
   3  -3  11    2.47    0.56
   3  -3  11    3.92    0.63
  -3   3 -11    2.03    0.42
   5  -3  11   14.16    1.11
   5  -3  11   15.43    1.03
  -5   3 -11   13.62    0.81
   7  -3  11    6.11    0.76
   7  -3  11    6.51    0.83
  -7   3 -11    5.57    0.63
   9  -3  11    9.29    0.91
   9  -3  11    8.72    0.98
  -9   3 -11    7.79    0.69
  11  -3  11   18.43    1.11
  11  -3  11   19.05    1.22
 -11   3 -11   17.22    0.91
  13  -3  11   39.55    1.76
  13  -3  11   39.14    1.63
 -13   3 -11   37.47    1.42
  15  -3  11    8.28    0.87
  15  -3  11    8.16    1.04
 -15   3 -11    6.51    0.65
  17  -3  11   33.31    1.45
  17  -3  11   34.58    1.58
 -17   3 -11   30.27    1.19
  19  -3  11    0.06    0.58
  19  -3  11    0.03    0.49
 -19   3 -11    0.73    0.31
  21  -3  11   11.10    0.99
  21  -3  11   10.05    0.81
 -21   3 -11    8.89    0.58
  21   3  11   11.25    1.07
  23  -3  11    2.09    0.47
  23  -3  11    1.68    0.56
  23   3  11    2.94    0.68
 -36  -4  11    2.60    0.54
 -36   4  11    2.12    0.50
 -34  -4  11    1.23    0.52
 -34   4  11    1.83    0.54
  34   4 -11    1.80    0.40
 -32  -4  11   33.92    1.49
 -32  -4  11   30.39    1.25
 -32  -4  11   30.65    1.36
  32   4 -11   29.43    1.22
 -32   4  11   30.26    1.36
 -30  -4  11    1.50    0.44
 -30  -4  11    2.59    0.59
  30   4 -11    1.68    0.44
 -30   4  11    1.81    0.55
 -28  -4  11   20.54    1.29
 -28  -4  11   20.98    1.01
 -28   4  11   20.84    1.16
  28   4 -11   21.08    1.01
 -26  -4  11    7.14    0.98
 -26  -4  11    4.82    0.67
  26   4 -11    7.75    0.77
 -26   4  11    7.81    0.87
 -24  -4  11   14.89    1.14
 -24  -4  11   13.66    0.87
 -24   4  11   13.59    0.99
  24   4 -11   12.45    0.89
 -22  -4  11    4.30    0.66
 -22  -4  11    4.10    0.54
  22   4 -11    4.87    0.70
 -22   4  11    5.80    0.87
 -20  -4  11   13.88    1.08
 -20  -4  11   12.91    0.86
  20   4 -11   15.75    0.93
 -20   4  11   16.46    1.09
 -18  -4  11   22.78    1.28
 -18  -4  11   22.73    1.10
 -18   4  11   22.83    1.44
 -18   4  11   23.16    1.29
  18   4 -11   26.13    1.13
 -16  -4  11    4.87    0.73
 -16   4  11    3.68    0.77
 -16   4  11    5.16    0.84
  16   4 -11    4.67    0.72
 -14  -4  11   11.09    0.89
  14   4 -11   10.89    0.85
 -14   4  11   12.94    1.02
 -14   4  11   11.97    1.14
 -12  -4  11    1.27    0.50
  12   4 -11    0.27    0.41
 -12   4  11    1.15    0.56
 -12   4  11    0.77    0.64
 -10  -4  11    5.35    0.78
 -10   4  11    6.21    1.05
  10   4 -11    6.13    0.74
  -8  -4  11    3.66    0.59
  -8   4  11    3.25    0.80
   8   4 -11    4.81    0.69
  -6  -4  11    4.55    0.62
  -6   4  11    3.12    0.81
   6   4 -11    2.67    0.46
  -4  -4  11   13.05    0.95
   4   4 -11   14.16    0.85
  -4   4  11   13.66    1.25
  -2  -4  11    4.29    0.63
  -2   4  11    6.05    0.90
   2   4 -11    6.47    0.68
   0  -4  11    2.31    0.55
   0   4 -11    2.36    0.42
   0   4  11    3.37    0.81
   2  -4  11    5.21    0.77
   2   4  11    5.24    0.90
  -2   4 -11    4.23    0.61
   4  -4  11    9.35    0.84
   4   4  11   10.44    1.20
  -4   4 -11   10.84    0.73
   6  -4  11   11.20    0.87
   6   4  11   10.94    1.20
  -6   4 -11    8.79    0.68
   8  -4  11   31.01    1.33
   8   4  11   28.54    1.64
  10  -4  11    6.29    0.72
  10   4  11    5.71    1.07
  12  -4  11   11.83    0.81
  12   4  11   10.56    1.11
  14  -4  11    8.61    0.81
  14   4  11    5.99    0.79
  16   4  11    8.60    0.93
  -7   5  11    0.85    0.63
  -5   5  11   11.90    1.11
  -3   5  11    5.26    0.98
  -1   5  11   16.45    1.16
   1   5  11    9.75    1.00
   3   5  11    1.66    0.61
   5   5  11    0.28    0.55
 -46   0  12    0.46    0.37
 -44   0  12    9.65    0.77
 -42   0  12    0.44    0.41
 -40   0  12   28.94    1.31
 -38   0  12   11.03    0.86
 -36   0  12   22.62    1.17
 -34   0  12   10.79    1.07
 -34   0  12   11.62    0.87
 -32   0  12   12.69    0.86
 -32   0  12   12.27    1.11
 -30   0  12    0.56    0.39
 -30   0  12   -0.12    0.52
 -28   0  12    0.67    0.57
 -28   0  12    1.34    0.41
 -26   0  12   -0.05    0.48
 -26   0  12   -0.22    0.35
 -24   0  12    1.52    0.54
 -24   0  12    1.06    0.38
 -22   0  12    4.69    0.80
 -22   0  12    4.29    0.63
 -20   0  12   42.59    2.04
 -18   0  12   25.09    1.42
 -16   0  12    1.24    0.48
 -14   0  12    1.23    0.48
 -14   0  12    0.82    0.38
 -12   0  12   12.87    0.87
 -12   0  12   12.65    0.98
 -10   0  12   21.43    1.26
 -10   0  12   20.21    1.09
  -8   0  12   14.55    1.05
  -8   0  12   14.78    0.95
  -6   0  12   47.02    1.76
  -6   0  12   47.84    2.18
  -6   0  12   48.19    1.91
  -4   0  12    6.90    0.65
  -4   0  12    7.31    0.83
  -2   0  12    2.26    0.52
  -2   0  12    1.14    0.39
   0   0  12   20.84    1.19
   0   0  12   20.12    1.03
   2   0  12   25.29    1.17
  -2   0 -12   24.70    1.07
   2   0  12   25.26    1.31
  -4   0 -12    1.45    0.39
   4   0  12    1.59    0.44
   4   0  12    1.97    0.53
  -6   0 -12    0.41    0.34
   6   0  12   -0.02    0.48
   6   0  12    0.18    0.40
   8   0  12    2.09    0.50
   8   0  12    0.74    0.53
  -8   0 -12    1.83    0.37
  10   0  12   27.59    1.46
  10   0  12   29.43    1.32
 -10   0 -12   25.95    1.17
 -12   0 -12    2.36    0.43
  12   0  12    2.44    0.65
  12   0  12    3.36    0.59
  14   0  12    0.66    0.50
 -14   0 -12    0.32    0.38
  14   0  12    0.18    0.57
  16   0  12   17.01    1.17
  16   0  12   17.81    1.08
 -16   0 -12   17.49    0.93
 -18   0 -12   12.24    0.79
  18   0  12   10.85    0.93
  18   0  12   10.56    1.03
  20   0  12   30.36    1.49
 -20   0 -12   32.07    1.29
  20   0  12   33.03    1.40
  22   0  12   29.99    1.43
  22   0  12   33.63    1.37
 -22   0 -12   32.74    1.26
  24   0  12    2.44    0.51
 -24   0 -12    1.81    0.38
  24   0  12    1.94    0.49
 -26   0 -12    0.18    0.30
  26   0  12   -0.18    0.38
 -45  -1  12   15.69    0.90
  45   1 -12   14.13    0.86
 -45   1  12   13.52    0.76
 -43  -1  12   27.07    1.24
  43   1 -12   21.16    1.04
 -43   1  12   22.61    1.02
 -41  -1  12   33.65    1.45
  41   1 -12   29.41    1.28
 -41   1  12   31.23    1.28
 -39  -1  12    4.25    0.74
 -39  -1  12    3.59    0.53
  39   1 -12    3.74    0.53
 -39   1  12    3.76    0.64
 -37  -1  12    2.49    0.51
 -37  -1  12    2.53    0.50
  37   1 -12    2.94    0.51
 -37   1  12    1.73    0.42
 -37   1  12    1.88    0.67
 -35  -1  12    1.21    0.45
 -35  -1  12    1.18    0.46
  35   1 -12    1.30    0.47
 -35   1  12    1.93    0.42
 -35   1  12    1.43    0.67
 -33  -1  12    9.18    0.78
 -33  -1  12   11.10    0.86
  33   1 -12    8.82    0.80
 -33   1  12    7.61    1.05
 -33   1  12    9.25    0.75
 -31  -1  12   16.37    0.99
 -31  -1  12   15.11    0.91
 -31   1  12   16.23    0.92
 -31   1  12   16.73    1.29
  31   1 -12   17.41    0.98
 -29  -1  12    1.07    0.41
 -29  -1  12    2.22    0.48
 -29   1  12    1.18    0.61
 -29   1  12    1.09    0.37
  29   1 -12    0.80    0.42
 -27  -1  12    6.59    0.72
 -27  -1  12    5.59    0.87
 -27  -1  12    6.45    0.71
 -27   1  12    8.94    1.04
  27   1 -12    6.47    0.74
 -27   1  12    6.44    0.66
 -25  -1  12    4.06    0.57
 -25  -1  12    3.64    0.58
 -25  -1  12    3.38    0.50
 -25   1  12    3.17    0.44
  25   1 -12    2.67    0.47
 -25   1  12    2.01    0.64
 -23  -1  12    8.76    0.74
  23   1 -12    8.62    0.72
 -23   1  12    8.34    0.67
 -23   1  12    7.59    1.01
 -21  -1  12   11.36    0.82
 -21  -1  12   11.18    0.77
  21   1 -12   11.90    0.77
 -21   1  12   13.11    1.10
 -21   1  12   10.94    0.75
 -19  -1  12   24.77    1.15
 -19  -1  12   26.64    1.22
  19   1 -12   26.46    1.14
 -19   1  12   26.84    1.56
 -17  -1  12   32.05    1.33
  17   1 -12   29.60    1.20
 -17   1  12   31.40    1.69
 -15  -1  12   26.59    1.24
 -15  -1  12   26.40    1.18
 -15   1  12   27.85    1.56
  15   1 -12   27.20    1.13
 -13  -1  12    3.61    0.52
 -13  -1  12    3.22    0.56
 -13  -1  12    3.68    0.58
 -13   1  12    1.68    0.54
  13   1 -12    3.21    0.47
 -11  -1  12    7.33    0.71
 -11  -1  12    9.69    0.78
 -11  -1  12    9.16    0.83
  11   1 -12    9.70    0.64
 -11   1  12    8.88    0.95
  -9  -1  12    5.68    0.73
  -9  -1  12    5.59    0.64
  -9   1  12    6.42    0.86
  -9   1  12    5.93    0.71
   9   1 -12    6.36    0.56
  -7  -1  12    7.42    0.82
  -7  -1  12    6.70    0.69
  -7   1  12    6.22    0.72
  -7   1  12    6.52    0.85
   7   1 -12    5.39    0.55
  -5  -1  12   14.33    1.01
  -5  -1  12   14.70    0.90
  -5   1  12   11.00    0.87
   5   1 -12   12.16    0.71
  -5   1  12   12.57    1.03
  -3  -1  12   10.00    0.93
  -3  -1  12    9.90    0.79
   3   1 -12    8.90    0.65
  -3   1  12    9.90    0.95
  -3   1  12    9.22    0.83
  -1  -1  12   15.63    1.06
  -1  -1  12   14.30    0.92
   1   1 -12   14.29    0.80
  -1   1  12   13.88    0.95
   1  -1  12   24.51    1.19
   1  -1  12   23.60    1.31
   1   1  12   19.44    1.13
  -1   1 -12   20.12    0.93
   3  -1  12    9.21    0.95
   3  -1  12    6.48    0.77
  -3   1 -12    6.40    0.59
   3   1  12    5.95    0.82
   5  -1  12    5.09    0.73
   5  -1  12    4.92    0.75
  -5   1 -12    5.08    0.58
   5   1  12    5.11    0.79
   7  -1  12    6.55    1.00
   7  -1  12    7.55    0.80
   7   1  12    5.67    0.80
  -7   1 -12    5.20    0.59
   9  -1  12    2.15    0.54
   9  -1  12    3.20    0.66
   9   1  12    3.39    0.59
   9   1  12    2.66    0.50
  -9   1 -12    2.38    0.41
  11  -1  12    8.59    0.86
  11  -1  12    9.68    1.05
  11   1  12    9.04    0.78
 -11   1 -12    8.94    0.72
  13  -1  12   16.02    1.19
  13  -1  12   13.84    1.00
 -13   1 -12   12.65    0.80
  13   1  12   12.12    0.86
 -15  -1 -12    2.56    0.44
  15  -1  12    2.40    0.56
  15  -1  12    3.56    0.69
  15   1  12    3.74    0.55
 -15   1 -12    2.77    0.45
 -17  -1 -12    1.18    0.41
  17  -1  12    1.10    0.51
  17  -1  12    1.39    0.60
  17   1  12    1.95    0.49
 -17   1 -12    1.41    0.39
  19  -1  12    3.24    0.57
  19  -1  12    4.11    0.69
 -19  -1 -12    3.18    0.46
 -19   1 -12    2.16    0.41
  19   1  12    2.32    0.51
 -21  -1 -12    3.86    0.60
  21  -1  12    3.46    0.57
  21  -1  12    3.86    0.66
 -21   1 -12    3.10    0.45
  21   1  12    2.72    0.49
  23  -1  12   20.97    1.15
 -23  -1 -12   18.74    0.89
  23  -1  12   18.90    1.00
 -23   1 -12   18.37    0.86
  23   1  12   16.93    0.93
  25  -1  12    4.90    0.80
  25  -1  12    4.82    0.62
 -25  -1 -12    3.99    0.55
  25   1  12    2.55    0.46
 -25   1 -12    3.88    0.49
 -44  -2  12    0.50    0.39
  44   2 -12   -0.39    0.39
 -42  -2  12    0.67    0.40
  42   2 -12    1.24    0.46
 -42   2  12    1.40    0.30
 -40  -2  12   12.39    0.88
 -40  -2  12   11.54    0.80
 -40   2  12   10.01    0.62
  40   2 -12    9.99    0.81
 -38  -2  12    0.65    0.44
 -38  -2  12    0.76    0.45
 -38   2  12    0.69    0.30
  38   2 -12    0.62    0.47
 -36  -2  12    1.23    0.49
 -36  -2  12    3.00    0.51
 -36  -2  12    2.84    0.62
  36   2 -12    3.02    0.52
 -36   2  12    2.53    0.36
 -34  -2  12   13.05    0.94
 -34  -2  12   15.30    1.06
 -34  -2  12   13.42    0.89
 -34  -2  12   12.22    1.12
 -34   2  12   11.66    1.14
 -34   2  12   13.42    0.77
  34   2 -12   12.88    0.87
 -34   2  12   12.74    0.97
 -32  -2  12   10.05    1.05
 -32  -2  12   10.43    0.88
 -32  -2  12   12.23    1.00
 -32  -2  12   10.82    0.83
 -32   2  12    8.62    0.89
 -32   2  12    8.56    1.04
  32   2 -12    9.82    0.80
 -30  -2  12   11.10    1.06
 -30  -2  12   11.09    0.83
 -30  -2  12   10.45    0.97
 -30  -2  12   10.91    0.88
 -30   2  12    8.73    1.10
 -30   2  12   10.92    0.93
  30   2 -12   10.88    0.82
 -28  -2  12   22.38    1.16
 -28  -2  12   20.64    1.19
 -28  -2  12   22.64    1.11
 -28  -2  12   22.71    1.30
  28   2 -12   18.84    1.01
 -28   2  12   20.72    1.15
 -28   2  12   18.75    1.37
 -26  -2  12    7.05    0.92
 -26  -2  12    6.98    0.76
 -26  -2  12    6.90    0.79
 -26  -2  12    6.16    0.83
 -26   2  12    8.44    0.88
 -26   2  12    6.78    1.00
  26   2 -12    8.42    0.77
 -24  -2  12    6.21    0.77
 -24  -2  12    6.98    0.82
 -24  -2  12    6.96    0.91
  24   2 -12    5.18    0.70
 -24   2  12    6.19    0.80
 -24   2  12    5.43    0.97
 -22  -2  12    9.81    0.82
 -22  -2  12    8.03    0.75
 -22   2  12    9.65    0.90
  22   2 -12    8.99    0.75
 -22   2  12    9.13    1.05
 -20  -2  12   20.62    1.06
 -20  -2  12   20.34    1.09
 -20   2  12   16.69    1.03
  20   2 -12   16.60    0.90
 -20   2  12   14.12    1.21
 -18  -2  12   -0.24    0.38
 -18  -2  12    0.41    0.38
  18   2 -12    1.49    0.41
 -18   2  12    0.94    0.59
 -18   2  12    1.47    0.50
 -16  -2  12    8.73    0.79
 -16  -2  12   10.68    0.81
 -16  -2  12   10.25    0.80
 -16   2  12    9.76    1.03
  16   2 -12   10.21    0.74
 -16   2  12   10.54    0.87
 -14  -2  12   13.23    0.88
 -14  -2  12   13.49    0.89
 -14  -2  12   12.73    0.86
 -14   2  12   14.96    0.97
 -14   2  12   14.66    1.16
  14   2 -12   14.56    0.84
 -14   2  12   14.88    1.30
 -12  -2  12    2.60    0.49
 -12  -2  12    2.34    0.47
 -12   2  12    5.42    0.90
  12   2 -12    3.42    0.46
 -12   2  12    2.17    0.63
 -10  -2  12   48.41    1.93
 -10  -2  12   52.00    1.90
 -10   2  12   43.05    2.13
  10   2 -12   44.88    1.62
  -8  -2  12   46.71    1.89
  -8  -2  12   49.03    1.86
  -8   2  12   42.32    2.06
   8   2 -12   41.66    1.55
  -6  -2  12    3.73    0.58
  -6  -2  12    4.83    0.77
  -6   2  12    3.46    0.66
   6   2 -12    2.99    0.40
  -4  -2  12    9.12    0.82
  -4  -2  12    8.39    0.87
  -4   2  12    7.28    0.95
   4   2 -12    8.84    0.66
  -2  -2  12   10.04    0.88
  -2  -2  12   10.49    0.95
   2   2 -12    8.27    0.65
   0  -2  12    4.38    0.63
   0  -2  12    4.32    0.65
   0   2 -12    4.43    0.57
   2  -2  12   53.21    2.00
   2  -2  12   50.39    2.08
  -2   2 -12   43.38    1.61
   4  -2  12    1.75    0.56
   4  -2  12    1.21    0.52
  -4   2 -12    1.75    0.39
   6  -2  12    6.41    0.81
   6  -2  12    6.15    0.99
  -6   2 -12    5.50    0.59
   8  -2  12   18.98    1.11
   8  -2  12   21.69    1.34
  -8   2 -12   21.32    0.99
  10  -2  12    8.81    0.86
  10  -2  12   10.68    1.06
 -10   2 -12    9.75    0.70
  12  -2  12   31.04    1.41
  12  -2  12   32.39    1.58
 -12   2 -12   26.29    1.13
  14  -2  12    1.99    0.55
  14  -2  12    1.97    0.60
 -14   2 -12    1.00    0.37
  16  -2  12   28.99    1.47
  16  -2  12   28.04    1.29
 -16   2 -12   22.48    1.00
  18  -2  12    4.16    0.59
  18  -2  12    3.36    0.65
 -18   2 -12    3.74    0.56
  20  -2  12    2.71    0.61
  20  -2  12    1.61    0.49
 -20   2 -12    1.13    0.34
  22  -2  12    7.92    0.71
  22  -2  12   11.13    0.93
 -22   2 -12    7.10    0.56
  24  -2  12   10.96    0.73
  24  -2  12   12.22    0.91
 -39   3  12    4.76    0.68
  39   3 -12    3.78    0.48
 -37  -3  12    6.97    0.68
 -37  -3  12    8.73    0.92
 -37  -3  12    7.07    0.82
 -37   3  12    5.55    0.77
  37   3 -12    6.11    0.72
 -35  -3  12    0.89    0.50
 -35  -3  12    0.11    0.54
 -35  -3  12    0.73    0.41
  35   3 -12    1.32    0.42
 -35   3  12   -0.03    0.50
 -33  -3  12    3.35    0.62
 -33  -3  12    1.69    0.54
 -33  -3  12    2.73    0.46
  33   3 -12    2.45    0.49
 -33   3  12    3.06    0.59
 -31  -3  12    2.02    0.46
 -31  -3  12    2.68    0.60
 -31  -3  12    2.42    0.55
 -31   3  12    2.13    0.58
  31   3 -12    2.23    0.47
 -29  -3  12   12.73    0.84
 -29  -3  12   12.50    1.07
 -29   3  12   13.11    0.98
  29   3 -12   12.37    0.86
 -27  -3  12    3.12    0.50
 -27  -3  12    1.90    0.54
 -27   3  12    1.37    0.59
  27   3 -12    1.72    0.46
 -27   3  12    1.68    0.55
 -25  -3  12    9.71    0.80
 -25  -3  12    9.21    0.95
 -25   3  12    8.71    1.02
  25   3 -12    9.07    0.78
 -25   3  12   10.97    0.94
 -23  -3  12   15.72    1.08
 -23  -3  12   15.56    0.95
  23   3 -12   13.48    0.88
 -23   3  12   13.26    1.15
 -23   3  12   15.41    1.05
 -21  -3  12    3.80    0.60
 -21   3  12    2.48    0.64
  21   3 -12    2.92    0.51
 -21   3  12    2.74    0.60
 -19  -3  12    8.36    0.81
 -19   3  12    7.77    1.02
  19   3 -12    6.76    0.72
 -19   3  12    7.62    0.95
 -19   3  12    7.79    0.91
 -17  -3  12    8.94    0.83
 -17   3  12    8.09    0.96
 -17   3  12    9.81    0.92
 -17   3  12    8.50    1.06
  17   3 -12   10.80    0.77
 -15  -3  12    2.69    0.51
 -15   3  12    3.54    0.74
  15   3 -12    2.52    0.48
 -15   3  12    2.32    0.59
 -15   3  12    1.46    0.62
 -13  -3  12    1.52    0.49
 -13   3  12    0.61    0.57
 -13   3  12    2.48    0.70
  13   3 -12    1.03    0.38
 -11  -3  12    7.21    0.79
 -11  -3  12    5.48    0.68
  11   3 -12    7.01    0.67
 -11   3  12    5.94    1.05
 -11   3  12    6.30    0.93
  -9  -3  12    0.30    0.38
  -9  -3  12    1.13    0.46
  -9   3  12    0.53    0.56
  -9   3  12   -0.16    0.69
   9   3 -12    0.30    0.35
  -7  -3  12    8.78    0.80
  -7  -3  12   10.99    0.84
  -7   3  12    9.98    1.19
   7   3 -12    9.08    0.71
  -7   3  12    8.49    1.00
  -5  -3  12   10.03    0.86
  -5  -3  12   11.73    0.87
   5   3 -12   10.43    0.73
  -5   3  12   11.43    1.26
  -3  -3  12    0.79    0.47
  -3  -3  12    1.36    0.47
  -3   3  12    1.18    0.80
   3   3 -12    1.18    0.35
  -1  -3  12    1.33    0.47
  -1  -3  12    1.13    0.50
  -1   3  12    0.28    0.81
   1   3 -12    1.16    0.36
   1  -3  12   20.92    1.20
   1  -3  12   20.92    1.14
   1   3  12   17.39    1.41
  -1   3 -12   17.14    0.87
   3  -3  12    9.50    0.87
   3  -3  12    6.99    0.92
  -3   3 -12    8.37    0.64
   3   3  12    9.55    1.22
   5  -3  12    5.21    0.69
   5  -3  12    5.25    0.67
  -5   3 -12    4.93    0.58
   7  -3  12    2.62    0.59
   7  -3  12    2.28    0.54
  -7   3 -12    1.38    0.35
   9  -3  12    0.94    0.51
   9  -3  12    1.29    0.55
  -9   3 -12    0.43    0.32
  11  -3  12    6.25    0.78
  11  -3  12    6.66    0.91
 -11   3 -12    4.38    0.56
  13  -3  12    3.29    0.60
  13  -3  12    3.65    0.58
 -13   3 -12    2.54    0.36
  15  -3  12    5.04    0.81
  15  -3  12    5.06    0.72
 -15   3 -12    4.44    0.50
  15   3  12    4.53    0.80
  17  -3  12    1.33    0.51
  17  -3  12    1.68    0.46
  17   3  12    1.63    0.70
 -17   3 -12    0.46    0.27
  19  -3  12    7.84    0.81
  19   3  12    7.87    0.93
 -30  -4  12    5.58    0.83
 -30   4  12    2.94    0.52
 -28  -4  12   16.04    1.02
 -28  -4  12   15.18    0.82
 -28   4  12   17.25    1.00
  28   4 -12   17.19    0.85
 -26  -4  12   11.05    0.93
 -26  -4  12   11.51    0.73
 -26   4  12    9.63    0.85
  26   4 -12    9.11    0.74
 -24  -4  12    2.78    0.54
 -24  -4  12    2.13    0.44
 -24   4  12    2.89    0.54
  24   4 -12    3.16    0.46
 -22  -4  12    0.76    0.39
  22   4 -12    0.73    0.41
 -22   4  12    0.72    0.49
 -20  -4  12   18.84    0.94
 -20   4  12   18.79    1.10
  20   4 -12   20.03    0.95
 -18  -4  12    7.80    0.71
  18   4 -12    9.51    0.75
 -16  -4  12   18.66    0.95
 -16   4  12   19.55    1.28
  16   4 -12   20.53    0.97
  14   4 -12   10.60    0.77
 -14   4  12   10.47    1.07
 -12  -4  12   10.79    0.84
  12   4 -12   12.35    0.82
 -12   4  12   12.62    1.11
 -10  -4  12   12.66    0.88
 -10   4  12   13.00    1.08
  10   4 -12   10.12    0.76
  -8  -4  12    9.21    0.82
  -8   4  12   11.91    1.08
   8   4 -12    8.51    0.73
  -6  -4  12   29.96    1.31
  -6   4  12   31.30    1.64
   6   4 -12   31.21    1.24
  -4  -4  12    3.97    0.57
  -4   4  12    5.42    1.00
   4   4 -12    4.29    0.62
  -2  -4  12    3.20    0.54
  -2   4  12    2.90    0.73
   2   4 -12    2.78    0.41
   0  -4  12   27.79    1.23
   0   4  12   27.43    1.51
   0   4 -12   27.32    1.10
   2  -4  12    2.50    0.50
  -2   4 -12    2.20    0.37
   2   4  12    2.50    0.71
   4  -4  12   12.03    0.84
   4   4  12   15.47    1.15
  -4   4 -12   13.16    0.73
   6  -4  12   27.64    1.18
   6   4  12   29.83    1.55
   8  -4  12   43.73    1.58
   8   4  12   40.64    1.83
  10   4  12    8.67    0.93
 -44   0  13    1.33    0.36
 -42   0  13    5.41    0.66
 -40   0  13    1.21    0.41
 -38   0  13    5.86    0.72
 -36   0  13    8.89    0.79
 -34   0  13    5.14    0.71
 -32   0  13    2.85    0.47
 -30   0  13   83.46    3.56
 -30   0  13   91.42    3.09
 -28   0  13   13.42    0.84
 -28   0  13   11.28    1.00
 -26   0  13   17.53    0.95
 -26   0  13   16.22    1.15
 -24   0  13   22.81    1.11
 -24   0  13   24.28    1.38
 -22   0  13    1.07    0.39
 -22   0  13    1.31    0.49
 -20   0  13    7.11    0.84
 -20   0  13    6.01    0.66
 -18   0  13    3.06    0.59
 -16   0  13   47.54    2.18
 -14   0  13    4.30    0.69
 -12   0  13    3.25    0.59
 -12   0  13    1.98    0.45
 -10   0  13    0.15    0.36
 -10   0  13   -0.46    0.45
  -8   0  13   48.08    1.89
  -6   0  13    5.69    0.75
  -4   0  13   21.47    1.09
  -4   0  13   23.14    1.20
  -2   0  13    0.33    0.41
  -2   0  13    0.60    0.43
   0   0  13    8.80    0.77
   0   0  13    9.08    0.92
   2   0  13   -0.24    0.40
   2   0  13   -0.05    0.46
  -2   0 -13   -0.25    0.27
  -4   0 -13    1.37    0.36
   4   0  13    2.33    0.57
   4   0  13    2.61    0.51
  -6   0 -13    4.81    0.57
   6   0  13    4.81    0.72
   6   0  13    5.27    0.68
  -8   0 -13   -0.34    0.32
   8   0  13    0.58    0.45
   8   0  13   -0.01    0.50
  10   0  13   15.39    0.96
  10   0  13   15.26    1.07
 -10   0 -13   13.28    0.82
 -12   0 -13   25.02    1.09
  12   0  13   24.13    1.29
  12   0  13   24.82    1.20
 -14   0 -13    8.11    0.65
  14   0  13    8.59    0.81
  14   0  13    6.98    0.87
  16   0  13   44.83    1.74
  16   0  13   43.04    1.65
 -16   0 -13   42.81    1.57
  18   0  13    3.72    0.54
 -18   0 -13    2.85    0.41
  18   0  13    4.30    0.68
  20   0  13    4.64    0.64
  20   0  13    6.06    0.69
 -20   0 -13    5.38    0.55
  22   0  13   52.21    1.78
 -43  -1  13    8.84    0.72
 -43   1  13    8.61    0.60
 -41  -1  13   19.16    1.01
 -41   1  13   16.42    0.81
  41   1 -13   15.54    0.85
 -39  -1  13   20.14    1.06
  39   1 -13   19.50    0.99
 -39   1  13   20.00    0.95
 -37  -1  13    0.23    0.42
 -37  -1  13    1.46    0.45
  37   1 -13    0.83    0.43
 -37   1  13    1.24    0.37
 -35  -1  13    8.83    0.77
 -35  -1  13    9.38    0.82
  35   1 -13    9.13    0.76
 -35   1  13    9.66    0.74
 -33  -1  13   11.18    0.79
 -33  -1  13   12.00    0.86
 -33   1  13    9.90    0.75
  33   1 -13    9.18    0.77
 -31  -1  13    2.34    0.45
 -31  -1  13    3.24    0.49
  31   1 -13    2.33    0.47
 -31   1  13    2.44    0.41
 -31   1  13    1.33    0.59
 -29  -1  13    0.35    0.38
 -29  -1  13    1.07    0.40
  29   1 -13    0.70    0.41
 -29   1  13    0.29    0.34
 -29   1  13    0.30    0.53
 -27  -1  13   29.30    1.30
 -27  -1  13   27.65    1.22
 -27   1  13   26.01    1.57
  27   1 -13   27.83    1.21
 -27   1  13   26.93    1.17
 -25  -1  13    7.99    0.74
 -25  -1  13    7.57    0.74
  25   1 -13    9.88    0.77
 -25   1  13    9.21    1.04
 -25   1  13    9.55    0.72
 -23  -1  13    7.84    0.78
 -23  -1  13    8.79    0.74
 -23   1  13    7.25    0.93
 -23   1  13    6.80    0.65
  23   1 -13    6.37    0.70
 -21  -1  13   49.89    1.94
 -21   1  13   45.76    2.16
  21   1 -13   45.52    1.66
 -21   1  13   43.84    1.72
 -19  -1  13    8.97    0.75
 -19  -1  13    9.22    0.71
 -19   1  13    9.44    0.70
  19   1 -13   10.46    0.72
 -19   1  13    9.96    0.98
 -17  -1  13    0.83    0.38
 -17  -1  13    0.65    0.36
  17   1 -13    0.73    0.32
 -17   1  13    0.12    0.47
 -15  -1  13   18.52    0.96
 -15   1  13   17.27    1.22
  15   1 -13   18.19    0.87
 -13  -1  13   15.16    0.92
 -13  -1  13   13.97    0.86
 -13   1  13   12.99    1.07
  13   1 -13   12.71    0.73
 -11  -1  13   14.01    0.87
 -11  -1  13   15.49    0.94
 -11   1  13   15.69    1.15
  11   1 -13   15.36    0.79
  -9  -1  13    1.72    0.45
  -9  -1  13    1.61    0.44
   9   1 -13    1.65    0.34
  -9   1  13    1.39    0.55
  -7  -1  13    0.69    0.40
  -7  -1  13    1.10    0.43
  -7   1  13    1.27    0.43
   7   1 -13    2.09    0.36
  -7   1  13    1.58    0.55
  -5  -1  13    0.44    0.42
  -5  -1  13    0.32    0.38
   5   1 -13    0.65    0.29
  -5   1  13   -0.19    0.37
  -3  -1  13    9.53    0.82
  -3  -1  13   10.94    0.93
   3   1 -13   10.28    0.68
  -3   1  13    9.92    0.83
  -1  -1  13    1.25    0.46
  -1  -1  13    2.01    0.54
  -1   1  13    0.66    0.42
   1   1 -13    0.60    0.33
   1  -1  13   10.52    0.89
   1  -1  13   11.39    1.01
   1   1  13   10.46    0.85
  -1   1 -13   10.33    0.69
   3  -1  13   10.07    0.88
   3  -1  13   10.33    0.99
  -3   1 -13    9.48    0.68
   3   1  13    9.83    0.83
   5  -1  13   21.87    1.31
   5  -1  13   25.69    1.23
  -5   1 -13   19.55    0.94
   5   1  13   19.13    1.06
   7  -1  13    0.46    0.50
   7  -1  13    0.23    0.48
  -7   1 -13    0.13    0.34
   9  -1  13    6.49    0.82
   9  -1  13    6.14    0.92
  -9   1 -13    6.30    0.62
  11  -1  13   27.77    1.42
  11  -1  13   26.55    1.28
 -11   1 -13   21.15    0.96
  13  -1  13   20.56    1.24
  13  -1  13   19.62    1.09
  13   1  13   16.76    1.02
 -13   1 -13   17.36    0.85
  15  -1  13    1.47    0.56
  15  -1  13    0.76    0.49
 -15   1 -13    1.14    0.33
  15   1  13    0.93    0.44
 -17  -1 -13    0.08    0.31
  17  -1  13    0.37    0.51
  17  -1  13    1.03    0.48
  17   1  13    0.34    0.40
 -17   1 -13    0.19    0.30
  19  -1  13    3.68    0.53
  19  -1  13    3.53    0.57
 -19  -1 -13    4.07    0.52
  19   1  13    3.03    0.45
 -19   1 -13    1.94    0.36
  21  -1  13    5.40    0.72
  21  -1  13    3.00    0.49
 -21   1 -13    3.31    0.47
 -40  -2  13    4.43    0.64
  40   2 -13    3.19    0.46
 -38  -2  13    0.75    0.39
 -38  -2  13    1.09    0.40
  38   2 -13    1.33    0.44
 -36  -2  13    4.08    0.68
 -36  -2  13    3.53    0.49
  36   2 -13    3.48    0.47
 -34  -2  13    5.76    0.75
 -34  -2  13    6.48    0.67
  34   2 -13    6.02    0.69
 -32  -2  13    5.17    0.57
 -32  -2  13    6.28    0.67
  32   2 -13    5.55    0.69
 -30  -2  13   24.63    1.19
 -30  -2  13   23.10    1.09
  30   2 -13   23.25    1.08
 -28  -2  13    1.92    0.47
 -28  -2  13    2.71    0.48
 -28   2  13    2.35    0.61
 -28   2  13    2.17    0.54
  28   2 -13    4.15    0.52
 -26  -2  13    6.63    0.76
 -26  -2  13    5.35    0.72
 -26   2  13    4.98    0.76
  26   2 -13    6.27    0.71
 -26   2  13    4.89    0.89
 -24  -2  13    5.91    0.74
 -24  -2  13    5.18    0.73
  24   2 -13    4.31    0.68
 -24   2  13    4.87    0.62
 -24   2  13    3.71    0.69
 -22  -2  13    4.07    0.71
 -22   2  13    7.37    0.80
 -22   2  13    4.91    0.89
  22   2 -13    6.14    0.70
 -20  -2  13    0.66    0.41
 -20  -2  13    0.80    0.38
 -20   2  13    0.24    0.51
  20   2 -13    0.23    0.37
 -18  -2  13    3.32    0.49
 -18  -2  13    2.59    0.46
 -18   2  13    1.51    0.58
  18   2 -13    2.64    0.43
 -16  -2  13    1.58    0.45
 -16  -2  13    1.12    0.43
  16   2 -13    1.21    0.37
 -16   2  13    0.87    0.54
 -14  -2  13   22.10    1.12
 -14  -2  13   21.20    1.09
  14   2 -13   23.70    1.07
 -14   2  13   22.94    1.42
 -12  -2  13   -0.23    0.37
 -12  -2  13    0.17    0.35
 -12  -2  13    0.26    0.38
 -12   2  13    0.38    0.67
 -12   2  13    0.09    0.49
  12   2 -13   -0.04    0.31
 -10  -2  13   12.64    0.86
 -10  -2  13   12.69    0.88
  10   2 -13   12.19    0.75
 -10   2  13   12.58    1.25
 -10   2  13   13.03    1.08
  -8  -2  13   14.33    0.93
  -8  -2  13   15.09    0.96
  -8   2  13   16.00    1.33
  -8   2  13   13.43    1.12
   8   2 -13   14.18    0.79
  -6  -2  13   21.57    1.14
  -6  -2  13   19.53    1.09
   6   2 -13   19.76    0.93
  -4  -2  13    5.74    0.77
  -4  -2  13    6.04    0.79
   4   2 -13    6.06    0.58
  -2  -2  13   21.78    1.16
  -2  -2  13   21.80    1.21
   2   2 -13   16.20    0.84
   0  -2  13    5.90    0.77
   0  -2  13    5.63    0.86
   0   2 -13    5.30    0.57
   2  -2  13   21.43    1.26
   2  -2  13   21.09    1.15
  -2   2 -13   21.69    0.98
   4  -2  13   42.00    1.70
   4  -2  13   42.81    1.82
  -4   2 -13   36.50    1.37
   6  -2  13    6.45    0.82
   6  -2  13    8.30    0.97
  -6   2 -13    5.19    0.55
   8  -2  13   12.97    0.96
   8  -2  13   13.97    1.07
  -8   2 -13   10.30    0.67
  10  -2  13    7.61    0.83
  10  -2  13    9.60    0.98
 -10   2 -13    7.33    0.61
  12  -2  13    3.30    0.60
  12  -2  13    4.86    0.68
 -12   2 -13    2.22    0.37
  14  -2  13   22.12    1.23
  14  -2  13   20.80    1.10
 -14   2 -13   19.15    0.86
  16  -2  13   18.59    1.01
  16  -2  13   19.18    1.14
 -16   2 -13   15.50    0.74
  18  -2  13    3.87    0.56
  18  -2  13    2.55    0.50
 -18   2 -13    1.79    0.30
  35   3 -13   13.67    0.79
 -35   3  13   13.57    0.82
 -33  -3  13   10.59    0.71
  33   3 -13   12.77    0.78
 -33   3  13   12.24    0.84
 -31  -3  13    1.01    0.38
 -31  -3  13    1.15    0.49
  31   3 -13    1.05    0.40
 -31   3  13    0.70    0.46
 -29  -3  13    2.14    0.43
 -29  -3  13    2.23    0.50
 -29   3  13    2.72    0.53
  29   3 -13    2.00    0.44
 -27  -3  13    4.11    0.51
  27   3 -13    4.17    0.50
 -27   3  13    5.31    0.77
 -25  -3  13    0.84    0.39
  25   3 -13    0.70    0.43
 -25   3  13    0.21    0.47
 -23  -3  13    4.13    0.52
 -23   3  13    4.76    0.77
  23   3 -13    5.13    0.65
 -21  -3  13    1.06    0.45
  21   3 -13    3.70    0.49
 -19  -3  13   50.33    1.79
  19   3 -13   52.44    1.86
 -17  -3  13    4.87    0.68
 -17   3  13    5.73    0.95
  17   3 -13    4.26    0.63
 -15  -3  13   15.50    0.93
  15   3 -13   14.81    0.83
 -15   3  13   13.59    1.11
 -13  -3  13    1.07    0.43
  13   3 -13    1.70    0.39
 -13   3  13    2.27    0.66
 -11  -3  13   46.81    1.77
  11   3 -13   43.97    1.59
 -11   3  13   42.31    1.97
  -9  -3  13    1.41    0.40
  -9  -3  13    1.13    0.44
  -9   3  13    0.78    0.62
   9   3 -13    1.25    0.37
  -7  -3  13   27.87    1.22
  -7  -3  13   27.73    1.27
   7   3 -13   26.04    1.12
  -7   3  13   26.59    1.52
  -5  -3  13    0.52    0.43
  -5  -3  13    0.36    0.41
  -5   3  13    0.37    0.68
   5   3 -13    1.17    0.34
  -3  -3  13    1.36    0.45
  -3  -3  13    1.33    0.43
  -3   3  13    0.51    0.68
   3   3 -13    0.80    0.33
  -1  -3  13    0.36    0.42
  -1  -3  13    0.41    0.42
  -1   3  13    1.20    0.72
   1   3 -13    0.42    0.31
   1  -3  13   16.39    0.96
   1  -3  13   14.57    0.92
   1   3  13   12.92    1.20
  -1   3 -13   12.41    0.71
   3  -3  13   44.09    1.64
   3  -3  13   41.33    1.69
   3   3  13   41.52    1.97
  -3   3 -13   41.28    1.48
   5  -3  13    0.71    0.49
   5  -3  13    0.59    0.43
   5   3  13    0.71    0.70
  -5   3 -13    0.22    0.29
   7  -3  13    7.80    0.84
   7  -3  13    8.28    0.76
   7   3  13    6.96    1.06
  -7   3 -13    6.25    0.55
   9  -3  13    8.13    0.73
   9  -3  13    7.87    0.84
  -9   3 -13    7.03    0.54
   9   3  13    6.02    0.99
  11  -3  13    2.85    0.50
  11  -3  13    3.10    0.54
 -11   3 -13    2.02    0.30
  11   3  13    2.44    0.67
  13  -3  13    2.01    0.43
  13   3  13    2.44    0.62
  20   4 -13   -0.20    0.34
  18   4 -13    5.26    0.58
 -16  -4  13   12.10    0.73
  16   4 -13   13.49    0.75
 -14  -4  13    0.61    0.38
 -14   4  13    2.49    0.59
  14   4 -13    1.71    0.37
 -12  -4  13    0.97    0.39
  12   4 -13    0.53    0.33
 -12   4  13    1.73    0.59
 -10   4  13    7.36    0.90
  10   4 -13    5.02    0.58
  -8  -4  13   10.03    0.73
  -8   4  13    8.14    0.91
   8   4 -13    8.49    0.63
  -6  -4  13    2.61    0.42
   6   4 -13    1.69    0.33
  -6   4  13    2.07    0.59
  -4  -4  13    4.19    0.60
   4   4 -13    5.28    0.54
  -4   4  13    5.25    0.86
  -2  -4  13    8.08    0.66
  -2   4  13   10.35    0.96
   0  -4  13   12.89    0.75
   0   4  13   11.31    0.97
   2   4  13    3.69    0.63
 -38   0  14   16.85    0.89
 -36   0  14    1.65    0.39
 -34   0  14    2.52    0.43
 -32   0  14    1.95    0.42
 -30   0  14    2.28    0.42
 -28   0  14    2.05    0.40
 -26   0  14    0.63    0.35
 -24   0  14    6.19    0.66
 -24   0  14    6.55    0.85
 -22   0  14   54.39    1.98
 -22   0  14   51.07    2.33
 -20   0  14    5.35    0.79
 -20   0  14    6.27    0.65
 -18   0  14    8.34    0.69
 -18   0  14    8.30    0.88
 -16   0  14   23.02    1.34
  -8   0  14   22.19    1.14
  -6   0  14    1.06    0.43
  -4   0  14    2.13    0.48
  -2   0  14    1.71    0.48
   0   0  14   40.78    1.67
   0   0  14   40.36    1.59
  -2   0 -14    0.42    0.30
   2   0  14    0.01    0.44
   2   0  14    0.40    0.42
   4   0  14    8.67    0.78
  -4   0 -14    7.28    0.60
   4   0  14    7.30    0.82
   6   0  14   11.57    0.85
   6   0  14   10.54    0.89
  -6   0 -14   10.08    0.66
   8   0  14    4.68    0.70
  -8   0 -14    4.07    0.53
   8   0  14    4.84    0.60
  10   0  14   -0.10    0.43
 -10   0 -14    0.06    0.29
  10   0  14    0.84    0.44
  12   0  14   21.05    0.99
  12   0  14   19.67    1.01
 -12   0 -14   18.41    0.86
 -14   0 -14   12.40    0.68
  14   0  14   14.55    0.82
  14   0  14   14.94    0.82
 -37  -1  14   20.68    1.03
 -37   1  14   17.08    0.80
 -35  -1  14    9.42    0.79
  35   1 -14    8.99    0.67
 -35   1  14    8.71    0.64
 -33  -1  14    9.98    0.79
 -33  -1  14    8.02    0.70
  33   1 -14    7.82    0.69
 -33   1  14    9.15    0.67
 -31  -1  14   14.02    0.89
 -31  -1  14   13.71    0.79
  31   1 -14   14.88    0.85
 -31   1  14   15.42    0.82
 -29  -1  14   11.12    0.75
 -29  -1  14   11.35    0.82
  29   1 -14    9.16    0.74
 -29   1  14    9.81    0.67
 -27  -1  14    6.63    0.70
 -27  -1  14    6.99    0.64
 -27   1  14    7.39    0.62
  27   1 -14    7.60    0.71
 -25  -1  14    1.10    0.40
 -25  -1  14    1.11    0.40
  25   1 -14    1.38    0.41
 -25   1  14    0.76    0.32
 -23  -1  14    2.04    0.46
 -23  -1  14    1.86    0.42
 -23   1  14    2.00    0.56
 -23   1  14    1.33    0.35
  23   1 -14    1.66    0.41
 -21  -1  14    8.58    0.73
 -21  -1  14    8.71    0.76
 -21   1  14    8.55    0.92
  21   1 -14    8.70    0.72
 -21   1  14    9.49    0.67
 -19  -1  14   15.63    0.91
  19   1 -14   15.32    0.84
 -19   1  14   14.72    0.82
 -19   1  14   14.68    1.11
 -17  -1  14    0.47    0.36
 -17   1  14    0.33    0.31
 -17   1  14    1.24    0.51
  17   1 -14    0.71    0.33
 -15  -1  14   17.89    0.92
 -15  -1  14   18.05    0.97
  15   1 -14   18.45    0.90
 -15   1  14   18.99    1.22
 -13  -1  14   24.09    1.10
 -13   1  14   24.34    1.42
  13   1 -14   25.04    1.05
 -11  -1  14   12.73    0.86
 -11  -1  14   11.37    0.78
  11   1 -14    9.73    0.63
  -9  -1  14    4.66    0.68
  -9  -1  14    4.78    0.63
   9   1 -14    3.56    0.49
  -7  -1  14   20.86    1.10
  -7  -1  14   20.03    1.02
   7   1 -14   18.03    0.85
  -5  -1  14   11.90    0.90
  -5  -1  14   11.21    0.84
   5   1 -14   12.43    0.70
  -3  -1  14    0.96    0.45
  -3  -1  14    0.52    0.45
   3   1 -14    1.09    0.31
  -1  -1  14    6.37    0.74
  -1  -1  14    5.25    0.79
  -1   1  14    4.51    0.65
   1   1 -14    5.11    0.53
   1  -1  14   26.60    1.31
   1  -1  14   25.78    1.24
   1   1  14   24.48    1.17
  -1   1 -14   27.33    1.07
   3  -1  14    5.00    0.76
   3  -1  14    6.10    0.87
  -3   1 -14    3.38    0.50
   5  -1  14    0.70    0.49
   5  -1  14    1.62    0.54
  -5   1 -14    1.32    0.33
   7  -1  14   10.16    0.89
   7  -1  14   11.67    0.97
  -7   1 -14   10.03    0.64
   9  -1  14   16.80    1.09
   9  -1  14   17.70    1.01
  -9   1 -14   18.21    0.84
  11  -1  14    7.41    0.88
  11  -1  14    7.87    0.79
 -11   1 -14    5.63    0.54
  13  -1  14    3.79    0.57
  13  -1  14    3.80    0.56
 -13   1 -14    2.55    0.34
  15  -1  14    3.85    0.53
  15  -1  14    4.02    0.54
 -15   1 -14    4.84    0.48
 -34  -2  14    9.01    0.72
  34   2 -14    8.79    0.66
 -32  -2  14   10.60    0.79
 -32  -2  14   11.42    0.70
  32   2 -14   10.86    0.74
 -30  -2  14    1.79    0.42
 -30  -2  14    1.67    0.39
  30   2 -14    1.57    0.42
 -28  -2  14    0.39    0.36
 -28  -2  14    1.07    0.39
  28   2 -14    0.26    0.38
 -26  -2  14    7.50    0.66
 -26  -2  14    7.74    0.74
  26   2 -14    7.22    0.70
 -24  -2  14    1.35    0.41
 -24  -2  14    1.64    0.44
  24   2 -14    1.16    0.40
 -22  -2  14    0.80    0.40
 -22  -2  14    0.63    0.42
  22   2 -14    1.25    0.39
 -20  -2  14    3.80    0.54
 -20  -2  14    4.00    0.52
  20   2 -14    3.72    0.46
 -18  -2  14    3.03    0.44
 -18  -2  14    4.01    0.67
  18   2 -14    3.37    0.45
 -16  -2  14    4.95    0.63
 -16  -2  14    5.68    0.66
  16   2 -14    4.64    0.61
 -14  -2  14    5.05    0.66
 -14  -2  14    5.78    0.65
  14   2 -14    4.95    0.58
 -12  -2  14   21.73    1.11
 -12  -2  14   23.61    1.09
  12   2 -14   21.40    0.99
 -12   2  14   22.58    1.43
 -10  -2  14    9.52    0.76
 -10  -2  14    9.25    0.77
 -10  -2  14    8.94    0.74
 -10   2  14    7.53    1.05
  10   2 -14   10.19    0.67
  -8  -2  14   23.67    1.13
  -8  -2  14   22.34    1.12
  -8  -2  14   23.23    1.11
   8   2 -14   24.93    1.05
  -8   2  14   24.53    1.49
  -6  -2  14   21.50    1.14
  -6  -2  14   23.10    1.10
  -6   2  14   19.25    1.34
   6   2 -14   17.45    0.85
  -4  -2  14    0.77    0.42
  -4  -2  14    0.45    0.42
   4   2 -14    0.86    0.32
  -4   2  14    2.08    0.76
  -2  -2  14    5.92    0.72
  -2  -2  14    5.53    0.78
   2   2 -14    4.88    0.53
   0  -2  14    0.52    0.44
   0  -2  14    0.61    0.46
   0   2 -14    0.15    0.27
   2  -2  14   20.49    1.09
   2  -2  14   21.37    1.14
  -2   2 -14   20.18    0.88
   4  -2  14    3.73    0.57
   4  -2  14    3.55    0.56
  -4   2 -14    2.45    0.34
   6  -2  14    5.06    0.63
   6  -2  14    5.72    0.66
  -6   2 -14    3.70    0.48
   8  -2  14    0.55    0.46
   8  -2  14    1.39    0.51
  -8   2 -14    0.05    0.25
  10  -2  14    8.54    0.74
  10  -2  14    7.88    0.84
 -10   2 -14    6.44    0.50
  27   3 -14    7.41    0.65
 -25  -3  14    5.43    0.56
  25   3 -14    4.99    0.63
 -23  -3  14    4.30    0.53
  23   3 -14    3.97    0.48
 -21  -3  14   36.81    1.35
  21   3 -14   36.54    1.36
 -19  -3  14    2.91    0.43
  19   3 -14    3.36    0.42
 -17  -3  14    5.40    0.60
  17   3 -14    4.83    0.63
  15   3 -14   23.91    1.05
 -13  -3  14   20.34    0.98
 -13   3  14   21.26    1.18
  13   3 -14   19.90    0.94
 -11  -3  14    5.71    0.64
  11   3 -14    5.75    0.59
 -11   3  14    5.44    0.85
  -9  -3  14    9.80    0.72
  -9   3  14   10.27    0.95
   9   3 -14   10.38    0.69
  -7  -3  14   23.16    1.06
  -7   3  14   20.45    1.24
   7   3 -14   22.99    0.96
  -5  -3  14    8.63    0.71
  -5   3  14   11.48    0.97
   5   3 -14   10.46    0.67
  -3  -3  14    5.49    0.66
  -3  -3  14    7.23    0.61
  -3   3  14    7.48    0.93
   3   3 -14    7.13    0.58
  -1  -3  14    3.28    0.42
  -1  -3  14    4.08    0.52
  -1   3  14    4.53    0.70
   1   3 -14    3.50    0.50
   1  -3  14    9.29    0.69
   1  -3  14    7.30    0.64
   1   3  14    7.11    0.90
  -1   3 -14    7.07    0.55
   3  -3  14    4.16    0.56
   3   3  14    3.88    0.65
  -3   3 -14    3.47    0.45
 -32   0  15    6.06    0.63
 -30   0  15    5.15    0.61
 -28   0  15   23.66    1.06
 -26   0  15    9.30    0.68
 -24   0  15   16.73    0.87
 -22   0  15    4.65    0.62
 -20   0  15   11.55    0.74
 -18   0  15   11.80    0.75
 -16   0  15    2.04    0.37
 -14   0  15    1.02    0.34
  -2   0  15    2.31    0.45
   0   0  15    0.17    0.37
   2   0  15   -0.56    0.34
  -4   0 -15   22.50    0.98
   4   0  15   26.33    1.09
   6   0  15    4.11    0.58
 -31  -1  15    6.03    0.66
 -31   1  15    4.40    0.51
 -29  -1  15    2.13    0.41
 -29   1  15    1.98    0.33
 -27  -1  15    5.13    0.66
 -27   1  15    3.86    0.51
  27   1 -15    4.28    0.45
 -25  -1  15    8.27    0.70
 -25  -1  15    7.02    0.63
  25   1 -15    6.97    0.65
 -25   1  15    7.37    0.57
 -23  -1  15    1.53    0.37
 -23  -1  15    1.93    0.40
  23   1 -15    2.06    0.40
 -23   1  15    2.13    0.33
 -21  -1  15    6.77    0.70
 -21  -1  15    7.02    0.65
  21   1 -15    6.91    0.65
 -21   1  15    8.25    0.59
 -19  -1  15    1.51    0.38
 -19  -1  15    2.37    0.44
  19   1 -15    1.97    0.40
 -19   1  15    2.28    0.35
 -17  -1  15   10.09    0.72
 -17   1  15    9.51    0.62
  17   1 -15    9.02    0.66
 -15  -1  15    2.04    0.40
 -15   1  15    3.88    0.52
  15   1 -15    3.14    0.39
 -13  -1  15    9.84    0.72
  13   1 -15    9.35    0.63
 -13   1  15    9.30    0.65
 -11  -1  15    4.52    0.59
  11   1 -15    4.76    0.53
  -9  -1  15   10.99    0.75
   9   1 -15    9.87    0.64
  -7  -1  15   13.53    0.79
   7   1 -15   14.08    0.70
  -5  -1  15    8.16    0.66
  -5  -1  15    6.28    0.73
   5   1 -15    6.09    0.50
  -3  -1  15    5.98    0.71
  -3  -1  15    7.64    0.68
   3   1 -15    7.59    0.54
  -1  -1  15   12.35    0.85
  -1  -1  15   11.76    0.79
   1   1 -15    8.80    0.56
   1  -1  15   11.36    0.84
   1  -1  15   11.33    0.77
  -1   1 -15   10.93    0.60
   3  -1  15   13.90    0.84
   3  -1  15   13.69    0.90
  -3   1 -15   12.46    0.63
   5  -1  15    4.12    0.53
   5  -1  15    3.42    0.49
  -5   1 -15    2.91    0.42
   7  -1  15    4.48    0.51
 -26  -2  15    3.04    0.42
  26   2 -15    4.42    0.46
 -24  -2  15    0.91    0.36
  24   2 -15    1.31    0.36
 -22  -2  15    3.75    0.56
 -22  -2  15    5.71    0.63
  22   2 -15    5.13    0.57
 -20  -2  15   11.27    0.73
 -20  -2  15   13.43    0.79
  20   2 -15   13.01    0.77
 -18  -2  15    1.07    0.37
 -18  -2  15    0.97    0.37
  18   2 -15    0.20    0.33
 -16  -2  15   10.43    0.76
  16   2 -15    9.68    0.68
 -14  -2  15    0.68    0.32
 -14  -2  15    0.47    0.33
  14   2 -15    0.63    0.31
 -12  -2  15   39.12    1.54
 -12  -2  15   39.58    1.44
  12   2 -15   41.29    1.47
 -10  -2  15    1.99    0.38
 -10  -2  15    2.01    0.37
  10   2 -15    1.98    0.33
  -8  -2  15   17.23    0.91
  -8  -2  15   19.28    0.91
   8   2 -15   15.84    0.77
  -6  -2  15    7.51    0.65
  -6  -2  15    7.36    0.63
  -6   2  15    7.47    0.90
   6   2 -15    7.92    0.58
  -4  -2  15    1.98    0.41
  -4  -2  15    1.95    0.35
  -4  -2  15    1.85    0.39
  -4   2  15    1.20    0.58
   4   2 -15    1.57    0.31
  -2  -2  15    1.06    0.36
  -2  -2  15    0.31    0.28
  -2  -2  15    1.00    0.35
  -2   2  15    0.58    0.55
   2   2 -15    0.11    0.25
   0  -2  15    9.31    0.67
   0  -2  15    8.00    0.68
   0  -2  15    8.41    0.61
   0   2  15    8.28    0.87
   0   2 -15    8.16    0.54
 -22   0  16    2.97    0.50
 -20   0  16    0.71    0.30
 -18   0  16    1.30    0.33
 -16   0  16   33.13    1.30
 -14   0  16   27.53    1.12
 -12   0  16    9.56    0.63
 -10   0  16    5.70    0.55
  -8   0  16    1.08    0.30
 -17  -1  16    6.15    0.64
 -15  -1  16    0.41    0.33
 -15   1  16    0.08    0.24
 -13  -1  16    1.52    0.33
 -13   1  16    1.34    0.26
 -11  -1  16    0.88    0.30
 -11   1  16    0.61    0.24
   0   0   0    0.00    0.00
;
_shelx_hkl_checksum              54253
_olex2_submission_original_sample_id cx0040a
_olex2_submission_special_instructions 'No special instructions were received'
loop_
_space_group_symop_operation_xyz
'x, y, z'
'-x, y, -z'
'x+1/2, y+1/2, z'
'-x+1/2, y+1/2, -z'
loop_
_atom_site_label
_atom_site_type_symbol
_atom_site_fract_x
_atom_site_fract_y
_atom_site_fract_z
_atom_site_U_iso_or_equiv
_atom_site_adp_type
_atom_site_occupancy
_atom_site_site_symmetry_order
_atom_site_calc_flag
_atom_site_refinement_flags_posn
_atom_site_refinement_flags_adp
_atom_site_refinement_flags_occupancy
_atom_site_disorder_assembly
_atom_site_disorder_group
S1 S 0.56946(2) 0.3372(2) 0.03066(9) 0.0291(3) Uani 1 1 d . . . . .
P1 P 0.56525(3) -0.1216(3) 0.27792(10) 0.0356(4) Uani 1 1 d . . . . .
O1 O 0.69953(6) 0.8248(5) 0.1158(2) 0.0145(6) Uani 1 1 d . . . . .
O2 O 0.76273(6) 0.8012(5) 0.2530(2) 0.0156(6) Uani 1 1 d . . . . .
O3 O 0.84836(7) 0.9193(5) 0.5264(2) 0.0215(7) Uani 1 1 d . . . . .
N1 N 0.69513(7) 0.2841(5) 0.1236(2) 0.0120(7) Uani 1 1 d . . . . .
H1 H 0.7018 0.1542 0.1163 0.014 Uiso 1 1 calc R . . . .
N2 N 0.75973(7) 0.2734(5) 0.2555(2) 0.0112(7) Uani 1 1 d . . . . .
H2 H 0.7541 0.1379 0.2472 0.013 Uiso 1 1 calc R . . . .
N4 N 0.80452(8) 0.2204(6) 0.1632(2) 0.0130(7) Uani 1 1 d . . . . .
H4 H 0.7849 0.1755 0.1290 0.016 Uiso 1 1 calc R . . . .
N28 N 0.79416(8) 0.1996(6) 0.6299(3) 0.0187(8) Uani 1 1 d . . . . .
C1 C 0.56897(11) -0.0224(9) 0.4060(4) 0.0305(12) Uani 1 1 d . . . . .
C2 C 0.5910(2) 0.1053(15) 0.4506(6) 0.040(2) Uani 0.739(11) 1 d . U . A 1
H2A H 0.6043 0.1468 0.4135 0.047 Uiso 0.739(11) 1 calc R . . A 1
C3 C 0.5950(2) 0.1769(17) 0.5477(6) 0.046(2) Uani 0.739(11) 1 d . U . A 1
H3 H 0.6103 0.2705 0.5756 0.055 Uiso 0.739(11) 1 calc R . . A 1
C4 C 0.5769(4) 0.113(4) 0.6034(19) 0.043(3) Uani 0.739(11) 1 d . U . A 1
H4A H 0.5792 0.1691 0.6691 0.052 Uiso 0.739(11) 1 calc R . . A 1
C5 C 0.5553(2) -0.0310(19) 0.5669(7) 0.045(2) Uani 0.739(11) 1 d . U . A 1
H5 H 0.5431 -0.0779 0.6071 0.054 Uiso 0.739(11) 1 calc R . . A 1
C6 C 0.5519(2) -0.1058(18) 0.4682(6) 0.043(2) Uani 0.739(11) 1 d . U . A 1
H6 H 0.5380 -0.2128 0.4426 0.051 Uiso 0.739(11) 1 calc R . . A 1
C7 C 0.52716(12) -0.1300(10) 0.2317(4) 0.0359(13) Uani 1 1 d . . . . .
C8 C 0.5105(9) 0.072(6) 0.252(3) 0.037(5) Uani 0.416(18) 1 d . U . B 1
H8 H 0.5202 0.1857 0.2928 0.044 Uiso 0.416(18) 1 calc R . . B 1
C9 C 0.4816(5) 0.091(4) 0.2107(17) 0.040(4) Uani 0.416(18) 1 d . U . B 1
H9 H 0.4718 0.2202 0.2191 0.048 Uiso 0.416(18) 1 calc R . . B 1
C10 C 0.4678(5) -0.078(4) 0.1588(17) 0.047(4) Uani 0.416(18) 1 d . U . B 1
H10 H 0.4482 -0.0622 0.1300 0.056 Uiso 0.416(18) 1 calc R . . B 1
C11 C 0.4795(5) -0.260(4) 0.1458(18) 0.045(4) Uani 0.416(18) 1 d . U . B 1
H11 H 0.4685 -0.3766 0.1117 0.054 Uiso 0.416(18) 1 calc R . . B 1
C12 C 0.5092(5) -0.284(4) 0.1835(18) 0.046(4) Uani 0.416(18) 1 d . U . B 1
H12 H 0.5172 -0.4208 0.1739 0.056 Uiso 0.416(18) 1 calc R . . B 1
C13 C 0.57263(11) 0.1282(10) 0.2138(4) 0.0316(12) Uani 1 1 d . . . . .
H13A H 0.5634 0.2535 0.2376 0.038 Uiso 1 1 calc R . . . .
H13B H 0.5932 0.1553 0.2301 0.038 Uiso 1 1 calc R . . . .
C14 C 0.56163(10) 0.1043(10) 0.1003(4) 0.0286(12) Uani 1 1 d . . . . .
H14A H 0.5410 0.0827 0.0847 0.034 Uiso 1 1 calc R . . . .
H14B H 0.5701 -0.0266 0.0780 0.034 Uiso 1 1 calc R . . . .
C15 C 0.60675(9) 0.3250(8) 0.0568(3) 0.0193(9) Uani 1 1 d . . . . .
C16 C 0.62039(9) 0.1424(7) 0.0333(3) 0.0168(9) Uani 1 1 d . . . . .
H16 H 0.6096 0.0224 0.0024 0.020 Uiso 1 1 calc R . . . .
C17 C 0.64955(9) 0.1318(7) 0.0541(3) 0.0135(8) Uani 1 1 d . . . . .
H17 H 0.6585 0.0045 0.0382 0.016 Uiso 1 1 calc R . . . .
C18 C 0.66581(9) 0.3081(7) 0.0983(3) 0.0112(8) Uani 1 1 d . . . . .
C19 C 0.65217(9) 0.4935(7) 0.1207(3) 0.0159(9) Uani 1 1 d . . . . .
H19 H 0.6629 0.6152 0.1499 0.019 Uiso 1 1 calc R . . . .
C20 C 0.62303(9) 0.5013(8) 0.1005(3) 0.0188(9) Uani 1 1 d . . . . .
H20 H 0.6140 0.6281 0.1166 0.023 Uiso 1 1 calc R . . . .
C21 C 0.71417(9) 0.4414(6) 0.1581(3) 0.0103(8) Uani 1 1 d . . . . .
C22 C 0.71521(9) 0.6780(7) 0.1539(3) 0.0106(8) Uani 1 1 d . . . . .
C23 C 0.74472(9) 0.6683(7) 0.2165(3) 0.0118(8) Uani 1 1 d . . . . .
C24 C 0.74233(9) 0.4301(6) 0.2153(3) 0.0107(8) Uani 1 1 d . . . . .
C25 C 0.78848(8) 0.3212(7) 0.3141(3) 0.0105(8) Uani 1 1 d . . . . .
H25 H 0.7925 0.4776 0.3045 0.013 Uiso 1 1 calc R . . . .
C26 C 0.79079(8) 0.2833(6) 0.4253(3) 0.0110(8) Uani 1 1 d . . . . .
C27 C 0.77825(9) 0.1062(7) 0.4562(3) 0.0145(9) Uani 1 1 d . . . . .
H27 H 0.7681 0.0065 0.4084 0.017 Uiso 1 1 calc R . . . .
C28 C 0.78035(9) 0.0718(7) 0.5583(3) 0.0172(9) Uani 1 1 d . . . . .
H28 H 0.7712 -0.0517 0.5770 0.021 Uiso 1 1 calc R . . . .
C29 C 0.80705(9) 0.3775(7) 0.6013(3) 0.0148(9) Uani 1 1 d . . . . .
C30 C 0.82287(10) 0.5113(7) 0.6765(3) 0.0176(9) Uani 1 1 d . . . . .
H30 H 0.8238 0.4768 0.7445 0.021 Uiso 1 1 calc R . . . .
C31 C 0.83691(10) 0.6900(7) 0.6551(3) 0.0175(9) Uani 1 1 d . . . . .
H31 H 0.8478 0.7764 0.7074 0.021 Uiso 1 1 calc R . . . .
C32 C 0.83512(9) 0.7442(7) 0.5546(3) 0.0146(9) Uani 1 1 d . . . . .
C33 C 0.81985(9) 0.6186(7) 0.4793(3) 0.0138(8) Uani 1 1 d . . . . .
H33 H 0.8188 0.6591 0.4119 0.017 Uiso 1 1 calc R . . . .
C34 C 0.80558(9) 0.4296(7) 0.4986(3) 0.0128(8) Uani 1 1 d . . . . .
C35 C 0.86462(10) 1.0561(8) 0.6014(3) 0.0218(10) Uani 1 1 d . . . . .
H35A H 0.8725 1.1753 0.5697 0.033 Uiso 1 1 calc GR . . . .
H35B H 0.8800 0.9723 0.6435 0.033 Uiso 1 1 calc GR . . . .
H35C H 0.8526 1.1151 0.6426 0.033 Uiso 1 1 calc GR . . . .
C36 C 0.80955(9) 0.1849(7) 0.2729(3) 0.0115(8) Uani 1 1 d . . . . .
H36 H 0.8055 0.0289 0.2835 0.014 Uiso 1 1 calc R . . . .
C37 C 0.84097(9) 0.2261(7) 0.3242(3) 0.0132(9) Uani 1 1 d . . . . .
H37A H 0.8425 0.3209 0.3831 0.016 Uiso 1 1 calc R . . . .
H37B H 0.8505 0.0871 0.3470 0.016 Uiso 1 1 calc R . . . .
C38 C 0.85510(9) 0.3346(7) 0.2490(3) 0.0146(8) Uani 1 1 d . . . . .
H38 H 0.8747 0.3806 0.2827 0.018 Uiso 1 1 calc R . . . .
C39 C 0.83755(9) 0.5305(7) 0.2051(3) 0.0179(9) Uani 1 1 d . . . . .
H39A H 0.8475 0.6152 0.1631 0.022 Uiso 1 1 calc R . . . .
H39B H 0.8345 0.6254 0.2595 0.022 Uiso 1 1 calc R . . . .
C40 C 0.80906(10) 0.4501(7) 0.1415(3) 0.0172(9) Uani 1 1 d . . . . .
H40A H 0.7937 0.5392 0.1560 0.021 Uiso 1 1 calc R . . . .
H40B H 0.8087 0.4667 0.0698 0.021 Uiso 1 1 calc R . . . .
C41 C 0.82528(9) 0.0887(7) 0.1266(3) 0.0148(9) Uani 1 1 d . . . . .
H41A H 0.8199 0.0847 0.0526 0.018 Uiso 1 1 calc R . . . .
H41B H 0.8250 -0.0617 0.1512 0.018 Uiso 1 1 calc R . . . .
C42 C 0.85566(9) 0.1816(7) 0.1618(3) 0.0150(9) Uani 1 1 d . . . . .
H42 H 0.8593 0.2723 0.1061 0.018 Uiso 1 1 calc R . . . .
C43 C 0.87825(9) 0.0080(7) 0.1840(3) 0.0182(9) Uani 1 1 d . . . . .
H43A H 0.8742 -0.1012 0.1299 0.022 Uiso 1 1 calc R . . . .
H43B H 0.8775 -0.0659 0.2471 0.022 Uiso 1 1 calc R . . . .
C44 C 0.90775(11) 0.0962(9) 0.1934(5) 0.0357(13) Uani 1 1 d . . . . .
H44A H 0.9084 0.1777 0.1329 0.054 Uiso 1 1 calc GR . . . .
H44B H 0.9212 -0.0243 0.2018 0.054 Uiso 1 1 calc GR . . . .
H44C H 0.9128 0.1922 0.2516 0.054 Uiso 1 1 calc GR . . . .
C2A C 0.5760(6) 0.201(5) 0.4356(17) 0.039(4) Uani 0.261(11) 1 d . U . A 2
H2AA H 0.5790 0.3076 0.3893 0.047 Uiso 0.261(11) 1 calc R . . A 2
C3A C 0.5781(6) 0.251(5) 0.5388(17) 0.041(4) Uani 0.261(11) 1 d . U . A 2
H3A H 0.5832 0.3932 0.5632 0.049 Uiso 0.261(11) 1 calc R . . A 2
C4A C 0.5726(14) 0.090(13) 0.604(6) 0.043(4) Uani 0.261(11) 1 d . U . A 2
H4AA H 0.5743 0.1154 0.6734 0.052 Uiso 0.261(11) 1 calc R . . A 2
C5A C 0.5650(7) -0.097(6) 0.562(2) 0.048(4) Uani 0.261(11) 1 d . U . A 2
H5A H 0.5586 -0.2034 0.6013 0.058 Uiso 0.261(11) 1 calc R . . A 2
C6A C 0.5654(8) -0.157(6) 0.463(2) 0.054(5) Uani 0.261(11) 1 d . U . A 2
H6A H 0.5627 -0.3043 0.4423 0.065 Uiso 0.261(11) 1 calc R . . A 2
C8A C 0.5095(6) 0.016(4) 0.242(2) 0.035(4) Uani 0.584(18) 1 d . U . B 2
H8A H 0.5162 0.1405 0.2804 0.042 Uiso 0.584(18) 1 calc R . . B 2
C9A C 0.4805(4) -0.003(3) 0.1971(12) 0.040(3) Uani 0.584(18) 1 d . U . B 2
H9A H 0.4677 0.1045 0.2083 0.048 Uiso 0.584(18) 1 calc R . . B 2
C10A C 0.4712(3) -0.177(3) 0.1377(12) 0.042(3) Uani 0.584(18) 1 d . U . B 2
H10A H 0.4518 -0.1897 0.1050 0.050 Uiso 0.584(18) 1 calc R . . B 2
C11A C 0.4905(3) -0.338(3) 0.1251(9) 0.046(3) Uani 0.584(18) 1 d . U . B 2
H11A H 0.4839 -0.4616 0.0857 0.055 Uiso 0.584(18) 1 calc R . . B 2
C12A C 0.5192(3) -0.318(3) 0.1694(11) 0.037(3) Uani 0.584(18) 1 d . U . B 2
H12A H 0.5326 -0.4221 0.1593 0.044 Uiso 0.584(18) 1 calc R . . B 2
Cl1S Cl 0.48930(5) 0.4910(5) 0.39154(16) 0.0873(7) Uani 1 1 d . . . . .
C1S C 0.5000 0.335(3) 0.5000 0.106(5) Uani 1 2 d S T P . .
H1SA H 0.4842 0.2400 0.5068 0.127 Uiso 0.5 1 calc R . . . .
H1SB H 0.5158 0.2401 0.4932 0.127 Uiso 0.5 1 calc R . . . .
O1S O 0.75154(7) 0.1197(6) 0.0317(2) 0.0258(8) Uani 1 1 d . . . . .
H1SC H 0.7397 0.0773 0.0656 0.039 Uiso 1 1 d G . . . .
H1SD H 0.7463 0.2442 0.0043 0.039 Uiso 1 1 d G . . . .
loop_
_atom_site_aniso_label
_atom_site_aniso_U_11
_atom_site_aniso_U_22
_atom_site_aniso_U_33
_atom_site_aniso_U_23
_atom_site_aniso_U_13
_atom_site_aniso_U_12
S1 0.0143(5) 0.0415(8) 0.0301(6) 0.0031(6) 0.0025(4) 0.0037(5)
P1 0.0348(7) 0.0437(9) 0.0246(6) -0.0041(6) -0.0002(5) 0.0047(7)
O1 0.0208(15) 0.0094(14) 0.0131(13) 0.0034(12) 0.0032(11) 0.0004(12)
O2 0.0198(16) 0.0107(15) 0.0149(14) -0.0042(12) 0.0014(12) -0.0015(13)
O3 0.0310(18) 0.0184(17) 0.0137(14) -0.0006(13) 0.0025(13) -0.0090(14)
N1 0.0165(19) 0.0060(16) 0.0135(16) -0.0019(13) 0.0034(14) 0.0000(14)
N2 0.0164(18) 0.0079(17) 0.0086(15) 0.0003(13) 0.0015(13) -0.0022(13)
N4 0.0162(19) 0.0158(18) 0.0064(16) -0.0009(14) 0.0015(13) -0.0002(14)
N28 0.028(2) 0.0174(19) 0.0129(18) -0.0006(15) 0.0085(15) -0.0038(16)
C1 0.025(3) 0.040(3) 0.024(2) 0.003(2) 0.000(2) -0.001(2)
C2 0.039(5) 0.053(5) 0.024(3) 0.007(3) 0.002(3) -0.013(4)
C3 0.049(5) 0.055(5) 0.028(3) 0.000(3) 0.000(3) -0.017(4)
C4 0.043(6) 0.059(6) 0.022(3) 0.002(4) -0.001(4) -0.005(5)
C5 0.038(5) 0.070(6) 0.027(3) 0.001(4) 0.011(3) -0.001(4)
C6 0.037(5) 0.067(6) 0.025(3) 0.000(4) 0.010(4) -0.019(4)
C7 0.035(3) 0.046(4) 0.022(2) 0.007(2) -0.002(2) -0.018(3)
C8 0.020(5) 0.059(11) 0.030(8) 0.005(9) 0.003(6) -0.011(9)
C9 0.026(5) 0.059(9) 0.035(7) 0.008(7) 0.006(5) -0.018(8)
C10 0.036(6) 0.061(9) 0.038(7) 0.006(7) -0.004(5) -0.021(7)
C11 0.035(8) 0.054(8) 0.040(6) 0.004(7) -0.002(6) -0.024(6)
C12 0.041(8) 0.054(8) 0.038(7) 0.001(6) -0.001(7) -0.016(7)
C13 0.022(2) 0.049(3) 0.024(2) -0.008(2) 0.006(2) -0.010(2)
C14 0.018(2) 0.044(3) 0.024(2) -0.003(2) 0.0059(19) -0.007(2)
C15 0.018(2) 0.025(2) 0.016(2) 0.006(2) 0.0038(17) 0.0030(19)
C16 0.019(2) 0.017(2) 0.0133(19) -0.0005(18) 0.0016(16) -0.0036(18)
C17 0.018(2) 0.011(2) 0.0121(19) 0.0016(16) 0.0040(16) 0.0010(17)
C18 0.016(2) 0.011(2) 0.0065(17) 0.0038(16) 0.0019(15) 0.0010(16)
C19 0.022(2) 0.013(2) 0.013(2) -0.0001(17) 0.0051(17) -0.0010(18)
C20 0.021(2) 0.020(2) 0.017(2) 0.0041(18) 0.0069(18) 0.0053(19)
C21 0.016(2) 0.0087(19) 0.0070(17) -0.0011(15) 0.0044(15) 0.0003(16)
C22 0.019(2) 0.007(2) 0.0066(18) -0.0005(16) 0.0047(15) -0.0017(17)
C23 0.018(2) 0.011(2) 0.0066(18) -0.0021(16) 0.0047(16) 0.0018(18)
C24 0.017(2) 0.009(2) 0.0060(17) -0.0011(15) 0.0047(16) -0.0011(16)
C25 0.0134(19) 0.009(2) 0.0088(18) 0.0004(16) 0.0028(15) -0.0015(16)
C26 0.014(2) 0.010(2) 0.0098(19) 0.0018(16) 0.0043(16) 0.0042(16)
C27 0.019(2) 0.012(2) 0.013(2) -0.0009(17) 0.0068(17) -0.0004(17)
C28 0.023(2) 0.016(2) 0.015(2) 0.0009(18) 0.0079(17) -0.0016(18)
C29 0.024(2) 0.011(2) 0.0119(19) 0.0012(17) 0.0081(16) 0.0015(18)
C30 0.030(2) 0.017(2) 0.0064(18) 0.0010(17) 0.0055(17) -0.0003(19)
C31 0.024(2) 0.016(2) 0.012(2) -0.0038(18) 0.0023(17) -0.0020(18)
C32 0.021(2) 0.010(2) 0.013(2) 0.0003(16) 0.0052(17) 0.0010(17)
C33 0.019(2) 0.014(2) 0.0089(18) 0.0014(16) 0.0050(16) 0.0016(17)
C34 0.016(2) 0.014(2) 0.0093(18) -0.0009(16) 0.0048(16) 0.0039(17)
C35 0.023(2) 0.018(2) 0.021(2) -0.0029(19) -0.0015(18) -0.006(2)
C36 0.017(2) 0.0096(19) 0.0068(18) 0.0009(16) 0.0014(15) -0.0009(16)
C37 0.015(2) 0.015(2) 0.0095(19) 0.0015(16) 0.0026(16) 0.0018(16)
C38 0.018(2) 0.012(2) 0.0149(19) -0.0017(18) 0.0063(16) -0.0035(18)
C39 0.027(2) 0.010(2) 0.021(2) -0.0006(18) 0.0142(18) -0.0016(19)
C40 0.028(2) 0.015(2) 0.0116(19) 0.0059(17) 0.0101(18) 0.0055(18)
C41 0.016(2) 0.016(2) 0.0114(19) -0.0016(17) 0.0034(16) 0.0011(17)
C42 0.022(2) 0.013(2) 0.012(2) 0.0020(18) 0.0080(17) -0.0010(18)
C43 0.020(2) 0.017(2) 0.019(2) -0.0031(18) 0.0069(17) 0.0004(18)
C44 0.023(3) 0.033(3) 0.053(3) -0.010(3) 0.013(2) 0.000(2)
C2A 0.039(8) 0.054(8) 0.027(6) -0.002(7) 0.014(7) -0.010(7)
C3A 0.043(8) 0.053(7) 0.027(6) -0.004(6) 0.008(6) -0.008(7)
C4A 0.044(8) 0.061(7) 0.024(6) 0.003(6) 0.005(6) -0.005(6)
C5A 0.050(8) 0.064(7) 0.028(6) 0.005(6) 0.005(6) -0.010(7)
C6A 0.058(11) 0.067(10) 0.032(7) -0.001(8) 0.000(9) -0.014(10)
C8A 0.025(5) 0.051(10) 0.028(6) -0.002(7) 0.006(4) -0.012(7)
C9A 0.025(4) 0.059(8) 0.034(5) 0.003(6) 0.002(4) -0.013(6)
C10A 0.027(5) 0.060(9) 0.032(5) 0.009(6) -0.004(4) -0.015(6)
C11A 0.038(6) 0.053(6) 0.037(5) 0.003(5) -0.006(5) -0.023(5)
C12A 0.031(7) 0.038(6) 0.036(6) 0.000(5) -0.001(5) -0.008(5)
Cl1S 0.0844(15) 0.118(2) 0.0606(12) 0.0026(13) 0.0203(11) 0.0111(15)
C1S 0.116(12) 0.123(13) 0.070(8) 0.000 0.005(8) 0.000
O1S 0.0204(16) 0.041(2) 0.0148(16) -0.0043(15) 0.0019(13) 0.0003(15)
loop_
_atom_type_symbol
_atom_type_description
_atom_type_scat_dispersion_real
_atom_type_scat_dispersion_imag
_atom_type_scat_source
C C 0.0181 0.0091 'International Tables Vol C Tables 4.2.6.8 and 6.1.1.4'
H H 0.0000 0.0000 'International Tables Vol C Tables 4.2.6.8 and 6.1.1.4'
Cl Cl 0.3639 0.7018 'International Tables Vol C Tables 4.2.6.8 and 6.1.1.4'
N N 0.0311 0.0180 'International Tables Vol C Tables 4.2.6.8 and 6.1.1.4'
O O 0.0492 0.0322 'International Tables Vol C Tables 4.2.6.8 and 6.1.1.4'
P P 0.2955 0.4335 'International Tables Vol C Tables 4.2.6.8 and 6.1.1.4'
S S 0.3331 0.5567 'International Tables Vol C Tables 4.2.6.8 and 6.1.1.4'
loop_
_geom_angle_atom_site_label_1
_geom_angle_atom_site_label_2
_geom_angle_atom_site_label_3
_geom_angle
_geom_angle_site_symmetry_1
C15 S1 C14 101.2(2) .
C1 P1 C13 101.2(2) .
C7 P1 C1 101.8(2) .
C7 P1 C13 99.0(2) .
C32 O3 C35 119.0(3) .
C18 N1 H1 116.9 .
C21 N1 H1 116.9 .
C21 N1 C18 126.2(3) .
C24 N2 H2 119.4 .
C24 N2 C25 121.2(3) .
C25 N2 H2 119.4 .
C36 N4 H4 110.2 .
C40 N4 H4 110.2 .
C40 N4 C36 110.5(3) .
C40 N4 C41 108.0(3) .
C41 N4 H4 110.2 .
C41 N4 C36 107.8(3) .
C28 N28 C29 116.9(4) .
C2 C1 P1 120.9(5) .
C2 C1 C6 117.0(6) .
C6 C1 P1 121.2(5) .
C2A C1 P1 123.2(9) .
C6A C1 P1 113.9(17) .
C6A C1 C2A 122.9(19) .
C1 C2 H2A 118.8 .
C1 C2 C3 122.4(8) .
C3 C2 H2A 118.8 .
C2 C3 H3 120.1 .
C4 C3 C2 119.8(12) .
C4 C3 H3 120.1 .
C3 C4 H4A 119.2 .
C3 C4 C5 122(2) .
C5 C4 H4A 119.2 .
C4 C5 H5 121.1 .
C4 C5 C6 117.7(13) .
C6 C5 H5 121.1 .
C1 C6 H6 119.7 .
C5 C6 C1 120.7(8) .
C5 C6 H6 119.7 .
C8 C7 P1 116.8(14) .
C12 C7 P1 132.8(12) .
C12 C7 C8 110.4(18) .
C8A C7 P1 127.2(11) .
C8A C7 C12A 122.6(12) .
C12A C7 P1 109.9(7) .
C7 C8 H8 119.4 .
C9 C8 C7 121(2) .
C9 C8 H8 119.4 .
C8 C9 H9 120.7 .
C10 C9 C8 119(2) .
C10 C9 H9 120.7 .
C9 C10 H10 117.8 .
C11 C10 C9 124(2) .
C11 C10 H10 117.8 .
C10 C11 H11 120.5 .
C10 C11 C12 119(2) .
C12 C11 H11 120.5 .
C7 C12 C11 126(2) .
C7 C12 H12 117.0 .
C11 C12 H12 117.0 .
P1 C13 H13A 109.6 .
P1 C13 H13B 109.6 .
H13A C13 H13B 108.1 .
C14 C13 P1 110.2(4) .
C14 C13 H13A 109.6 .
C14 C13 H13B 109.6 .
S1 C14 H14A 108.9 .
S1 C14 H14B 108.9 .
C13 C14 S1 113.3(4) .
C13 C14 H14A 108.9 .
C13 C14 H14B 108.9 .
H14A C14 H14B 107.7 .
C16 C15 S1 121.0(4) .
C16 C15 C20 118.5(4) .
C20 C15 S1 120.5(3) .
C15 C16 H16 119.4 .
C17 C16 C15 121.2(4) .
C17 C16 H16 119.4 .
C16 C17 H17 119.9 .
C16 C17 C18 120.2(4) .
C18 C17 H17 119.9 .
C17 C18 N1 117.9(4) .
C19 C18 N1 123.1(4) .
C19 C18 C17 118.9(4) .
C18 C19 H19 119.8 .
C20 C19 C18 120.5(4) .
C20 C19 H19 119.8 .
C15 C20 H20 119.6 .
C19 C20 C15 120.8(4) .
C19 C20 H20 119.6 .
N1 C21 C22 137.0(4) .
N1 C21 C24 131.1(4) .
C24 C21 C22 91.9(3) .
O1 C22 C21 137.2(4) .
O1 C22 C23 134.3(4) .
C21 C22 C23 88.6(3) .
O2 C23 C22 135.4(4) .
O2 C23 C24 136.2(4) .
C24 C23 C22 88.3(3) .
N2 C24 C21 135.6(4) .
N2 C24 C23 133.2(4) .
C21 C24 C23 91.2(3) .
N2 C25 H25 108.1 .
N2 C25 C26 110.6(3) .
N2 C25 C36 108.9(3) .
C26 C25 H25 108.1 .
C26 C25 C36 113.0(3) .
C36 C25 H25 108.1 .
C27 C26 C25 120.2(4) .
C27 C26 C34 118.4(4) .
C34 C26 C25 121.3(4) .
C26 C27 H27 119.9 .
C26 C27 C28 120.2(4) .
C28 C27 H27 119.9 .
N28 C28 C27 124.3(4) .
N28 C28 H28 117.9 .
C27 C28 H28 117.9 .
N28 C29 C30 118.0(4) .
N28 C29 C34 123.0(4) .
C30 C29 C34 119.0(4) .
C29 C30 H30 119.0 .
C31 C30 C29 122.0(4) .
C31 C30 H30 119.0 .
C30 C31 H31 120.4 .
C30 C31 C32 119.2(4) .
C32 C31 H31 120.4 .
O3 C32 C31 123.2(4) .
O3 C32 C33 116.4(4) .
C33 C32 C31 120.5(4) .
C32 C33 H33 119.0 .
C32 C33 C34 121.9(4) .
C34 C33 H33 119.0 .
C26 C34 C29 117.1(4) .
C33 C34 C26 125.5(4) .
C33 C34 C29 117.3(4) .
O3 C35 H35A 109.5 .
O3 C35 H35B 109.5 .
O3 C35 H35C 109.5 .
H35A C35 H35B 109.5 .
H35A C35 H35C 109.5 .
H35B C35 H35C 109.5 .
N4 C36 C25 109.3(3) .
N4 C36 H36 107.4 .
N4 C36 C37 110.1(3) .
C25 C36 H36 107.4 .
C25 C36 C37 114.8(3) .
C37 C36 H36 107.4 .
C36 C37 H37A 109.9 .
C36 C37 H37B 109.9 .
H37A C37 H37B 108.3 .
C38 C37 C36 108.8(3) .
C38 C37 H37A 109.9 .
C38 C37 H37B 109.9 .
C37 C38 H38 110.2 .
C37 C38 C42 110.8(4) .
C39 C38 C37 108.3(3) .
C39 C38 H38 110.2 .
C39 C38 C42 107.0(3) .
C42 C38 H38 110.2 .
C38 C39 H39A 110.0 .
C38 C39 H39B 110.0 .
C38 C39 C40 108.5(4) .
H39A C39 H39B 108.4 .
C40 C39 H39A 110.0 .
C40 C39 H39B 110.0 .
N4 C40 C39 110.7(4) .
N4 C40 H40A 109.5 .
N4 C40 H40B 109.5 .
C39 C40 H40A 109.5 .
C39 C40 H40B 109.5 .
H40A C40 H40B 108.1 .
N4 C41 H41A 109.2 .
N4 C41 H41B 109.2 .
N4 C41 C42 111.8(3) .
H41A C41 H41B 107.9 .
C42 C41 H41A 109.2 .
C42 C41 H41B 109.2 .
C38 C42 C41 106.1(3) .
C38 C42 H42 107.2 .
C41 C42 H42 107.2 .
C43 C42 C38 115.2(4) .
C43 C42 C41 113.4(4) .
C43 C42 H42 107.2 .
C42 C43 H43A 108.9 .
C42 C43 H43B 108.9 .
C42 C43 C44 113.3(4) .
H43A C43 H43B 107.7 .
C44 C43 H43A 108.9 .
C44 C43 H43B 108.9 .
C43 C44 H44A 109.5 .
C43 C44 H44B 109.5 .
C43 C44 H44C 109.5 .
H44A C44 H44B 109.5 .
H44A C44 H44C 109.5 .
H44B C44 H44C 109.5 .
C1 C2A H2AA 122.0 .
C3A C2A C1 116(2) .
C3A C2A H2AA 122.0 .
C2A C3A H3A 119.9 .
C4A C3A C2A 120(4) .
C4A C3A H3A 119.9 .
C3A C4A H4AA 122.7 .
C5A C4A C3A 115(6) .
C5A C4A H4AA 122.7 .
C4A C5A H5A 116.9 .
C4A C5A C6A 126(4) .
C6A C5A H5A 116.9 .
C1 C6A C5A 119(3) .
C1 C6A H6A 120.3 .
C5A C6A H6A 120.3 .
C7 C8A H8A 118.9 .
C7 C8A C9A 122.2(16) .
C9A C8A H8A 118.9 .
C8A C9A H9A 120.5 .
C10A C9A C8A 119.0(15) .
C10A C9A H9A 120.5 .
C9A C10A H10A 120.3 .
C9A C10A C11A 119.3(13) .
C11A C10A H10A 120.3 .
C10A C11A H11A 119.3 .
C12A C11A C10A 121.3(12) .
C12A C11A H11A 119.3 .
C7 C12A H12A 122.3 .
C11A C12A C7 115.5(12) .
C11A C12A H12A 122.3 .
Cl1S C1S Cl1S 113.1(11) 2_656
Cl1S C1S H1SA 109.0 2_656
Cl1S C1S H1SA 109.0 .
Cl1S C1S H1SB 109.0 2_656
Cl1S C1S H1SB 109.0 .
H1SA C1S H1SB 107.8 .
H1SC O1S H1SD 109.6 .
loop_
_geom_bond_atom_site_label_1
_geom_bond_atom_site_label_2
_geom_bond_distance
_geom_bond_site_symmetry_2
S1 C14 1.819(6) .
S1 C15 1.773(4) .
P1 C1 1.836(5) .
P1 C7 1.819(6) .
P1 C13 1.854(6) .
O1 C22 1.222(5) .
O2 C23 1.220(5) .
O3 C32 1.363(5) .
O3 C35 1.421(5) .
N1 H1 0.8800 .
N1 C18 1.400(5) .
N1 C21 1.350(5) .
N2 H2 0.8800 .
N2 C24 1.319(5) .
N2 C25 1.474(5) .
N4 H4 1.0000 .
N4 C36 1.489(5) .
N4 C40 1.477(6) .
N4 C41 1.480(5) .
N28 C28 1.317(6) .
N28 C29 1.370(6) .
C1 C2 1.359(10) .
C1 C6 1.429(10) .
C1 C2A 1.46(3) .
C1 C6A 1.19(3) .
C2 H2A 0.9500 .
C2 C3 1.378(12) .
C3 H3 0.9500 .
C3 C4 1.36(2) .
C4 H4A 0.9500 .
C4 C5 1.38(2) .
C5 H5 0.9500 .
C5 C6 1.409(13) .
C6 H6 0.9500 .
C7 C8 1.55(4) .
C7 C12 1.35(3) .
C7 C8A 1.28(3) .
C7 C12A 1.441(17) .
C8 H8 0.9500 .
C8 C9 1.40(4) .
C9 H9 0.9500 .
C9 C10 1.35(3) .
C10 H10 0.9500 .
C10 C11 1.29(4) .
C11 H11 0.9500 .
C11 C12 1.43(3) .
C12 H12 0.9500 .
C13 H13A 0.9900 .
C13 H13B 0.9900 .
C13 C14 1.535(7) .
C14 H14A 0.9900 .
C14 H14B 0.9900 .
C15 C16 1.387(7) .
C15 C20 1.397(7) .
C16 H16 0.9500 .
C16 C17 1.387(6) .
C17 H17 0.9500 .
C17 C18 1.399(6) .
C18 C19 1.395(6) .
C19 H19 0.9500 .
C19 C20 1.386(6) .
C20 H20 0.9500 .
C21 C22 1.463(6) .
C21 C24 1.415(6) .
C22 C23 1.495(6) .
C23 C24 1.475(6) .
C25 H25 1.0000 .
C25 C26 1.527(5) .
C25 C36 1.540(6) .
C26 C27 1.370(6) .
C26 C34 1.418(6) .
C27 H27 0.9500 .
C27 C28 1.402(6) .
C28 H28 0.9500 .
C29 C30 1.404(6) .
C29 C34 1.437(6) .
C30 H30 0.9500 .
C30 C31 1.368(7) .
C31 H31 0.9500 .
C31 C32 1.407(6) .
C32 C33 1.366(6) .
C33 H33 0.9500 .
C33 C34 1.417(6) .
C35 H35A 0.9800 .
C35 H35B 0.9800 .
C35 H35C 0.9800 .
C36 H36 1.0000 .
C36 C37 1.551(6) .
C37 H37A 0.9900 .
C37 H37B 0.9900 .
C37 C38 1.530(6) .
C38 H38 1.0000 .
C38 C39 1.522(6) .
C38 C42 1.533(6) .
C39 H39A 0.9900 .
C39 H39B 0.9900 .
C39 C40 1.540(6) .
C40 H40A 0.9900 .
C40 H40B 0.9900 .
C41 H41A 0.9900 .
C41 H41B 0.9900 .
C41 C42 1.557(6) .
C42 H42 1.0000 .
C42 C43 1.516(6) .
C43 H43A 0.9900 .
C43 H43B 0.9900 .
C43 C44 1.518(7) .
C44 H44A 0.9800 .
C44 H44B 0.9800 .
C44 H44C 0.9800 .
C2A H2AA 0.9500 .
C2A C3A 1.44(3) .
C3A H3A 0.9500 .
C3A C4A 1.41(7) .
C4A H4AA 0.9500 .
C4A C5A 1.31(8) .
C5A H5A 0.9500 .
C5A C6A 1.42(4) .
C6A H6A 0.9500 .
C8A H8A 0.9500 .
C8A C9A 1.41(3) .
C9A H9A 0.9500 .
C9A C10A 1.36(2) .
C10A H10A 0.9500 .
C10A C11A 1.41(2) .
C11A H11A 0.9500 .
C11A C12A 1.394(17) .
C12A H12A 0.9500 .
Cl1S C1S 1.751(11) .
C1S Cl1S 1.751(11) 2_656
C1S H1SA 0.9900 .
C1S H1SB 0.9900 .
O1S H1SC 0.8672 .
O1S H1SD 0.8677 .
loop_
_geom_torsion_atom_site_label_1
_geom_torsion_atom_site_label_2
_geom_torsion_atom_site_label_3
_geom_torsion_atom_site_label_4
_geom_torsion
S1 C15 C16 C17 -179.7(3)
S1 C15 C20 C19 -179.6(3)
P1 C1 C2 C3 -177.9(8)
P1 C1 C6 C5 178.9(7)
P1 C1 C2A C3A -180.0(17)
P1 C1 C6A C5A -174(2)
P1 C7 C8 C9 173(2)
P1 C7 C12 C11 -175.6(15)
P1 C7 C8A C9A 175.9(13)
P1 C7 C12A C11A -176.9(9)
P1 C13 C14 S1 -177.2(3)
O1 C22 C23 O2 2.6(8)
O1 C22 C23 C24 -177.9(5)
O2 C23 C24 N2 0.1(8)
O2 C23 C24 C21 178.2(5)
O3 C32 C33 C34 178.7(4)
N1 C18 C19 C20 -175.1(4)
N1 C21 C22 O1 -2.1(9)
N1 C21 C22 C23 178.8(5)
N1 C21 C24 N2 -0.8(8)
N1 C21 C24 C23 -178.8(4)
N2 C25 C26 C27 41.6(5)
N2 C25 C26 C34 -137.8(4)
N2 C25 C36 N4 52.9(4)
N2 C25 C36 C37 177.2(3)
N4 C36 C37 C38 11.6(5)
N4 C41 C42 C38 17.5(4)
N4 C41 C42 C43 144.9(3)
N28 C29 C30 C31 178.7(4)
N28 C29 C34 C26 -2.3(6)
N28 C29 C34 C33 179.9(4)
C1 P1 C7 C8 47(2)
C1 P1 C7 C12 -130.9(15)
C1 P1 C7 C8A 45(2)
C1 P1 C7 C12A -141.7(7)
C1 P1 C13 C14 -161.9(3)
C1 C2 C3 C4 2(2)
C1 C2A C3A C4A -2(5)
C2 C1 C6 C5 9.5(14)
C2 C1 C2A C3A -81(3)
C2 C1 C6A C5A 47(3)
C2 C3 C4 C5 3(3)
C3 C4 C5 C6 -2(3)
C4 C5 C6 C1 -4.5(19)
C6 C1 C2 C3 -8.5(14)
C6 C1 C2A C3A 31(3)
C6 C1 C6A C5A -63(4)
C7 P1 C1 C2 -147.2(6)
C7 P1 C1 C6 43.9(7)
C7 P1 C1 C2A -101.7(14)
C7 P1 C1 C6A 79(2)
C7 P1 C13 C14 -57.8(4)
C7 C8 C9 C10 5(4)
C7 C8A C9A C10A -3(3)
C8 C7 C12 C11 6(3)
C8 C7 C8A C9A 168(20)
C8 C7 C12A C11A -7(3)
C8 C9 C10 C11 1(3)
C9 C10 C11 C12 -4(3)
C10 C11 C12 C7 -1(3)
C12 C7 C8 C9 -8(4)
C12 C7 C8A C9A -7(3)
C12 C7 C12A C11A 22(3)
C13 P1 C1 C2 -45.4(7)
C13 P1 C1 C6 145.7(7)
C13 P1 C1 C2A 0.1(15)
C13 P1 C1 C6A -179(2)
C13 P1 C7 C8 -57(2)
C13 P1 C7 C12 125.6(15)
C13 P1 C7 C8A -58(2)
C13 P1 C7 C12A 114.8(7)
C14 S1 C15 C16 58.0(4)
C14 S1 C15 C20 -122.9(4)
C15 S1 C14 C13 65.6(4)
C15 C16 C17 C18 -0.9(6)
C16 C15 C20 C19 -0.5(6)
C16 C17 C18 N1 176.0(3)
C16 C17 C18 C19 -0.2(6)
C17 C18 C19 C20 0.8(6)
C18 N1 C21 C22 -23.7(7)
C18 N1 C21 C24 156.5(4)
C18 C19 C20 C15 -0.5(6)
C20 C15 C16 C17 1.2(6)
C21 N1 C18 C17 173.5(4)
C21 N1 C18 C19 -10.5(6)
C21 C22 C23 O2 -178.2(5)
C21 C22 C23 C24 1.3(3)
C22 C21 C24 N2 179.3(4)
C22 C21 C24 C23 1.4(3)
C22 C23 C24 N2 -179.4(4)
C22 C23 C24 C21 -1.3(3)
C24 N2 C25 C26 107.2(4)
C24 N2 C25 C36 -128.1(4)
C24 C21 C22 O1 177.8(5)
C24 C21 C22 C23 -1.3(3)
C25 N2 C24 C21 -178.8(4)
C25 N2 C24 C23 -1.6(6)
C25 C26 C27 C28 -179.9(4)
C25 C26 C34 C29 -178.7(4)
C25 C26 C34 C33 -1.1(6)
C25 C36 C37 C38 -112.2(4)
C26 C25 C36 N4 176.2(3)
C26 C25 C36 C37 -59.6(4)
C26 C27 C28 N28 -0.7(7)
C27 C26 C34 C29 1.8(6)
C27 C26 C34 C33 179.4(4)
C28 N28 C29 C30 -177.5(4)
C28 N28 C29 C34 1.2(6)
C29 N28 C28 C27 0.4(6)
C29 C30 C31 C32 1.2(7)
C30 C29 C34 C26 176.4(4)
C30 C29 C34 C33 -1.4(6)
C30 C31 C32 O3 179.9(4)
C30 C31 C32 C33 -0.9(7)
C31 C32 C33 C34 -0.6(7)
C32 C33 C34 C26 -175.8(4)
C32 C33 C34 C29 1.8(6)
C34 C26 C27 C28 -0.5(6)
C34 C29 C30 C31 0.0(7)
C35 O3 C32 C31 -0.6(6)
C35 O3 C32 C33 -179.9(4)
C36 N4 C40 C39 50.1(4)
C36 N4 C41 C42 -70.8(4)
C36 C25 C26 C27 -80.7(5)
C36 C25 C26 C34 99.9(4)
C36 C37 C38 C39 51.9(4)
C36 C37 C38 C42 -65.2(4)
C37 C38 C39 C40 -67.2(4)
C37 C38 C42 C41 48.1(4)
C37 C38 C42 C43 -78.2(5)
C38 C39 C40 N4 14.8(4)
C38 C42 C43 C44 -71.6(5)
C39 C38 C42 C41 -69.8(4)
C39 C38 C42 C43 163.9(3)
C40 N4 C36 C25 61.6(4)
C40 N4 C36 C37 -65.4(4)
C40 N4 C41 C42 48.6(4)
C41 N4 C36 C25 179.5(3)
C41 N4 C36 C37 52.5(4)
C41 N4 C40 C39 -67.6(4)
C41 C42 C43 C44 165.8(4)
C42 C38 C39 C40 52.3(4)
C2A C1 C2 C3 76.4(18)
C2A C1 C6 C5 -30.9(16)
C2A C1 C6A C5A 7(4)
C2A C3A C4A C5A -2(8)
C3A C4A C5A C6A 9(9)
C4A C5A C6A C1 -11(7)
C6A C1 C2 C3 -42(2)
C6A C1 C6 C5 93(3)
C6A C1 C2A C3A -1(4)
C8A C7 C8 C9 -13(15)
C8A C7 C12 C11 7(3)
C8A C7 C12A C11A -4(2)
C8A C9A C10A C11A 2(2)
C9A C10A C11A C12A -2(2)
C10A C11A C12A C7 2.8(18)
C12A C7 C8 C9 4(5)
C12A C7 C12 C11 -151(5)
C12A C7 C8A C9A 4(3)
