#------------------------------------------------------------------------------
#$Date: 2016-08-10 04:12:06 +0300 (Wed, 10 Aug 2016) $
#$Revision: 185715 $
#$URL: file:///home/coder/svn-repositories/cod/cif/1/54/38/1543872.cif $
#------------------------------------------------------------------------------
#
# This file is available in the Crystallography Open Database (COD),
# http://www.crystallography.net/. The original data for this entry
# were provided by IUCr Journals, http://journals.iucr.org/.
#
# The file may be used within the scientific community so long as
# proper attribution is given to the journal article from which the
# data were obtained.
#
data_1543872
loop_
_publ_author_name
'G\"orbitz, Carl Henrik'
'Karen, Pavel'
'Du\<sek, Michal'
'Pet\<r\'i\<cek, V\'aclav'
_publ_section_title
;
 An exceptional series of phase transitions in hydrophobic amino acids
 with linear side chains
;
_journal_issue                   5
_journal_name_full               IUCrJ
_journal_page_first
;
;
_journal_paper_doi               10.1107/S2052252516010472
_journal_volume                  3
_journal_year                    2016
_chemical_absolute_configuration rm
_chemical_formula_moiety         'C5 H11 N O2 S'
_chemical_formula_sum            'C5 H11 N O2 S'
_chemical_formula_weight         149.21
_chemical_name_common            L-methionine
_chemical_name_systematic
;
 S-2-amino-4-(methylthio)butanoic acid
;
_space_group_crystal_system      monoclinic
_space_group_IT_number           4
_space_group_name_Hall           'P 2yb'
_space_group_name_H-M_alt        'P 1 21 1'
_symmetry_space_group_name_Hall  'P 2yb'
_symmetry_space_group_name_H-M   'P 1 21 1'
_atom_sites_solution_hydrogens   geom
_atom_sites_solution_primary     direct
_atom_sites_solution_secondary   difmap
_audit_creation_method           SHELXL-2013
_cell_angle_alpha                90
_cell_angle_beta                 97.635(2)
_cell_angle_gamma                90
_cell_formula_units_Z            4
_cell_length_a                   9.5118(6)
_cell_length_b                   5.1936(4)
_cell_length_c                   15.3419(10)
_cell_measurement_reflns_used    8663
_cell_measurement_temperature    289(2)
_cell_measurement_theta_max      27.09
_cell_measurement_theta_min      2.39
_cell_volume                     751.18(9)
_computing_cell_refinement       'APEX2 (Bruker, 2014)'
_computing_data_collection       'APEX2 (Bruker, 2014)'
_computing_data_reduction        'APEX2 (Bruker, 2014)'
_computing_molecular_graphics    'MERCURY (Macrae et al., 2008)'
_computing_publication_material  'SHELXL (Sheldrick, 2015b)'
_computing_structure_refinement  'SHELXL (Sheldrick, 2015b)'
_computing_structure_solution    'SHELXT (Sheldrick, 2015a)'
_diffrn_ambient_temperature      289(2)
_diffrn_detector_area_resol_mean 8.3
_diffrn_measured_fraction_theta_full 0.999
_diffrn_measured_fraction_theta_max 0.998
_diffrn_measurement_device_type  'Bruker D8 Vantage single crystal CCD'
_diffrn_measurement_method
'Sets of exposures each taken over 0.5\% \w rotation'
_diffrn_radiation_monochromator  graphite
_diffrn_radiation_type           MoK\a
_diffrn_radiation_wavelength     0.71073
_diffrn_reflns_av_R_equivalents  0.0377
_diffrn_reflns_av_unetI/netI     0.0305
_diffrn_reflns_Laue_measured_fraction_full 0.999
_diffrn_reflns_Laue_measured_fraction_max 0.998
_diffrn_reflns_limit_h_max       12
_diffrn_reflns_limit_h_min       -12
_diffrn_reflns_limit_k_max       6
_diffrn_reflns_limit_k_min       -6
_diffrn_reflns_limit_l_max       19
_diffrn_reflns_limit_l_min       -19
_diffrn_reflns_number            15609
_diffrn_reflns_point_group_measured_fraction_full 0.998
_diffrn_reflns_point_group_measured_fraction_max 0.993
_diffrn_reflns_theta_full        25.242
_diffrn_reflns_theta_max         27.133
_diffrn_reflns_theta_min         2.160
_exptl_absorpt_coefficient_mu    0.363
_exptl_absorpt_correction_T_max  1.000
_exptl_absorpt_correction_T_min  0.912
_exptl_absorpt_correction_type   multi-scan
_exptl_absorpt_process_details   'SADABS (Bruker, 2014)'
_exptl_crystal_colour            colourless
_exptl_crystal_density_diffrn    1.319
_exptl_crystal_density_method    'not measured'
_exptl_crystal_description       plate
_exptl_crystal_F_000             320
_exptl_crystal_size_max          0.48
_exptl_crystal_size_mid          0.45
_exptl_crystal_size_min          0.11
_refine_diff_density_max         0.221
_refine_diff_density_min         -0.250
_refine_diff_density_rms         0.040
_refine_ls_abs_structure_details
;
 Flack x determined using 1020 quotients [(I+)-(I-)]/[(I+)+(I-)]
 (Parsons and Flack (2004), Acta Cryst. A60, s61).
;
_refine_ls_abs_structure_Flack   0.03(3)
_refine_ls_extinction_method     none
_refine_ls_goodness_of_fit_ref   1.046
_refine_ls_hydrogen_treatment    constr
_refine_ls_matrix_type           full
_refine_ls_number_parameters     231
_refine_ls_number_reflns         3308
_refine_ls_number_restraints     752
_refine_ls_restrained_S_all      0.965
_refine_ls_R_factor_all          0.0625
_refine_ls_R_factor_gt           0.0466
_refine_ls_shift/su_max          0.000
_refine_ls_shift/su_mean         0.000
_refine_ls_structure_factor_coef Fsqd
_refine_ls_weighting_details
;
 w=1/[\s^2^(Fo^2^)+(0.0490P)^2^+0.2813P]
 where P=(Fo^2^+2Fc^2^)/3
;
_refine_ls_weighting_scheme      calc
_refine_ls_wR_factor_gt          0.1098
_refine_ls_wR_factor_ref         0.1179
_reflns_Friedel_coverage         0.788
_reflns_Friedel_fraction_full    0.997
_reflns_Friedel_fraction_max     0.987
_reflns_number_gt                2682
_reflns_number_total             3308
_reflns_threshold_expression     'I > 2\s(I)'
_cod_data_source_file            ed5010.cif
_cod_data_source_block           Met293
_cod_database_code               1543872
_shelx_space_group_comment
;
The symmetry employed for this shelxl refinement is uniquely defined
by the following loop, which should always be used as a source of
symmetry information in preference to the above space-group names.
They are only intended as comments.
;
_shelxl_version_number           2013-2
_shelx_res_file
;
TITL M293 in P2(1)
CELL 0.71073   9.51180   5.19360  15.34190  90.0000  97.6354  90.0000
ZERR    4.00   0.00060   0.00040   0.00100   0.0000   0.0020   0.0000
LATT -1
SYMM -X, 0.5+Y, -Z
SFAC C H N O S
UNIT 20 44 4 8 4
LIST 4
TEMP 15.620

L.S. 50

DAMP 100

ACTA
BOND $H
CONF

FMAP 2
PLAN 5

ISOR 0.002 C21B

FLAT 0.05 C22A C32A C42A S12A
FLAT 0.05 C32A C42A S12A C52A

EADP C21A C22A
EADP C31A C32A
EADP C41A C42A
EADP S11A S12A
EADP C51A C52A

EADP C21B C22B C23B C24B
EADP C31B C32B C33B C34B

SIMU
DELU

DFIX 3.25 0.05 C32B C52B C33B C53B C34B C54B

EQIV $1 1-X, 0.5+Y, -Z
EQIV $2 X, -1+Y, Z
EQIV $3 1-X, -0.5+Y, -Z
EQIV $4 -1+X, -1+Y, Z
EQIV $5 -1+X, Y, Z

HTAB N1A O1B_$1
HTAB N1A O1B
HTAB N1A O2A_$2

HTAB N1B O1A_$3
HTAB N1B O2A_$4
HTAB N1B O1A_$4
HTAB N1B O2B_$2
HTAB C21B O1A_$5

SUMP 1.000 0.001 1.0 2 1.0 4 1.0 5 1.0 6

WGHT    0.049000    0.281300
FVAR       0.31951   0.69430   0.82993   0.11427   0.11490   0.07573   0.07231
FVAR       0.11408   0.12352
MOLE 1
O1A   4    0.891771    0.594366    0.076320    11.00000    0.02379    0.04401 =
         0.05913   -0.00184    0.01151   -0.00217
O2A   4    0.825584    0.959196    0.133546    11.00000    0.03523    0.03259 =
         0.07408   -0.00443    0.01452   -0.01009
N1A   3    0.640958    0.371828    0.070694    11.00000    0.02477    0.03249 =
         0.05510    0.00062    0.01034   -0.00734
AFIX  33
H1A   2    0.649587    0.407104    0.014885    11.00000   -1.50000
H2A   2    0.555380    0.306062    0.073854    11.00000   -1.50000
H3A   2    0.707041    0.258387    0.091681    11.00000   -1.50000
AFIX   0
C1A  1    0.805692    0.731965    0.109130    11.00000    0.02596    0.03376 =
         0.04393    0.00438    0.00603   -0.00461

PART 1
C21A  1    0.659015    0.610999    0.123309    31.00000    0.01754    0.02841 =
         0.05162   -0.00123    0.00995   -0.00211
AFIX  13
H21A  2    0.582009    0.731730    0.103896    31.00000   -1.20000
AFIX   0
C31A  1    0.660005    0.546731    0.220832    31.00000    0.03431    0.04131 =
         0.05070    0.00628    0.01082   -0.00610
AFIX  23
H31A  2    0.584238    0.425886    0.227092    31.00000   -1.20000
H32A  2    0.749220    0.464595    0.242976    31.00000   -1.20000
AFIX   0
C41A  1    0.641153    0.782888    0.274595    31.00000    0.09311    0.05200 =
         0.05759    0.00100    0.03126   -0.00195
AFIX  23
H41A  2    0.558179    0.877146    0.248274    31.00000   -1.20000
H42A  2    0.723121    0.894104    0.274791    31.00000   -1.20000
AFIX   0
S11A  5    0.620443    0.697788    0.385444    31.00000    0.16291    0.06710 =
         0.06143    0.00990    0.04943    0.01082
C51A  1    0.593507    0.991823    0.431811    31.00000    0.25085    0.09178 =
         0.07064    0.00500    0.05726    0.04978
AFIX  33
H51A  2    0.578820    0.968181    0.492001    31.00000   -1.50000
H52A  2    0.511523    1.072588    0.399960    31.00000   -1.50000
H53A  2    0.675130    1.098985    0.429379    31.00000   -1.50000
AFIX   0

PART 2
SAME 0.004 0.006 C21A > C51A
C22A  1    0.685467    0.605592    0.122441   -31.00000    0.01754    0.02841 =
         0.05162   -0.00123    0.00995   -0.00211
AFIX  13
H22A  2    0.614476    0.727727    0.094963   -31.00000   -1.20000
AFIX   0
C32A  1    0.628524    0.562556    0.210136   -31.00000    0.03431    0.04131 =
         0.05070    0.00628    0.01082   -0.00610
AFIX  23
H33A  2    0.533682    0.490823    0.198960   -31.00000   -1.20000
H34A  2    0.688438    0.439027    0.244960   -31.00000   -1.20000
AFIX   0
C42A  1    0.624240    0.808511    0.261217   -31.00000    0.09311    0.05200 =
         0.05759    0.00100    0.03126   -0.00195
AFIX  23
H43A  2    0.565549    0.933402    0.226227   -31.00000   -1.20000
H44A  2    0.719274    0.878788    0.273654   -31.00000   -1.20000
AFIX   0
S12A  5    0.554177    0.753387    0.362509   -31.00000    0.16291    0.06710 =
         0.06143    0.00990    0.04943    0.01082
C52A  1    0.560448    1.055753    0.408430   -31.00000    0.25085    0.09178 =
         0.07064    0.00500    0.05726    0.04978
AFIX  33
H54A  2    0.516841    1.052100    0.461370   -31.00000   -1.50000
H55A  2    0.510510    1.174766    0.367565   -31.00000   -1.50000
H56A  2    0.657495    1.109258    0.422000   -31.00000   -1.50000
AFIX   0

PART 0
MOLE 2
O1B   4    0.375445    0.186547    0.082966    11.00000    0.02774    0.03606 =
         0.06943   -0.00991    0.01859   -0.01033
O2B   4    0.312274    0.580619    0.115477    11.00000    0.04330    0.02875 =
         0.11259   -0.00100    0.02079   -0.00661
N1B   3    0.116651    0.000000    0.101944    11.00000    0.02883    0.04194 =
         0.05892    0.00728    0.01030   -0.01151
AFIX  33
H1B   2    0.100068    0.041357    0.045212    11.00000   -1.50000
H2B   2    0.036824   -0.055965    0.119867    11.00000   -1.50000
H3B   2    0.182006   -0.123474    0.109628    11.00000   -1.50000
AFIX   0
C1B   1    0.294283    0.346482    0.111812    11.00000    0.02511    0.03166 =
         0.05650   -0.00021    0.00766   -0.00472

PART 1
C21B  1    0.169056    0.233014    0.154472    21.00000    0.02815    0.03608 =
         0.04529   -0.00048    0.00984    0.00026
AFIX  13
H21B  2    0.092745    0.360695    0.151814    21.00000   -1.20000
AFIX   0
C31B  1    0.210050    0.146705    0.249692    21.00000    0.04837    0.05600 =
         0.05129    0.00627    0.01566    0.00343
AFIX  23
H31B  2    0.136138    0.034869    0.265994    21.00000   -1.20000
H32B  2    0.296685    0.046459    0.253409    21.00000   -1.20000
AFIX   0
C41B  1    0.232391    0.365279    0.315254    21.00000    0.07539    0.09035 =
         0.05818   -0.01097    0.01264   -0.01612
AFIX  23
H41B  2    0.294281    0.492091    0.293740    21.00000   -1.20000
H42B  2    0.280262    0.298768    0.370434    21.00000   -1.20000
AFIX   0
S11B  5    0.069855    0.523521    0.335846    21.00000    0.12207    0.06449 =
         0.07923   -0.01059    0.03973    0.01518
C51B  1   -0.008031    0.295860    0.398548    21.00000    0.11016    0.12436 =
         0.11428    0.02864    0.04764    0.01201
AFIX  33
H51B  2   -0.095090    0.363640    0.414334    21.00000   -1.50000
H52B  2    0.055594    0.257809    0.450916    21.00000   -1.50000
H53B  2   -0.027330    0.141224    0.364794    21.00000   -1.50000
AFIX   0

PART 2
SAME 0.004 0.006 C21B > C51B
C22B  1    0.170520    0.234041    0.150305    41.00000    0.02815    0.03608 =
         0.04529   -0.00048    0.00984    0.00026
AFIX  13
H22B  2    0.094521    0.362112    0.148485    41.00000   -1.20000
AFIX   0
C32B  1    0.235815    0.187755    0.245575    41.00000    0.04837    0.05600 =
         0.05129    0.00627    0.01566    0.00343
AFIX  23
H33B  2    0.306322    0.052483    0.246553    41.00000   -1.20000
H34B  2    0.284264    0.343317    0.267948    41.00000   -1.20000
AFIX   0
C42B  1    0.129596    0.112785    0.306355    41.00000   71.00000
AFIX  23
H43B  2    0.180506    0.043331    0.360208    41.00000   -1.20000
H44B  2    0.069155   -0.022637    0.278651    41.00000   -1.20000
AFIX   0
S12B  5    0.018740    0.376995    0.334024    41.00000   81.00000
C52B  1    0.138305    0.569468    0.401964    41.00000   91.00000
AFIX  33
H54B  2    0.088605    0.712427    0.423182    41.00000   -1.50000
H55B  2    0.210295    0.632245    0.369075    41.00000   -1.50000
H56B  2    0.181588    0.469291    0.450895    41.00000   -1.50000
AFIX   0

PART 3
SAME 0.004 0.006 C21B > C51B
C23B  1    0.155414    0.219141    0.130578    51.00000    0.02815    0.03608 =
         0.04529   -0.00048    0.00984    0.00026
AFIX  13
H23B  2    0.077981    0.339595    0.111808    51.00000   -1.20000
AFIX   0
C33B  1    0.167417    0.194607    0.230625    51.00000    0.04837    0.05600 =
         0.05129    0.00627    0.01566    0.00343
AFIX  23
H35B  2    0.095663    0.074892    0.244988    51.00000   -1.20000
H36B  2    0.259390    0.122010    0.252322    51.00000   -1.20000
AFIX   0
C43B  1    0.150301    0.446100    0.277934    51.00000   71.00000
AFIX  23
H45B  2    0.057576    0.517086    0.257126    51.00000   -1.20000
H46B  2    0.220887    0.566975    0.262731    51.00000   -1.20000
AFIX   0
S13B  5    0.167959    0.416772    0.396787    51.00000   81.00000
C53B  1    0.025728    0.216164    0.412765    51.00000   91.00000
AFIX  33
H57B  2    0.026949    0.184023    0.474481    51.00000   -1.50000
H58B  2    0.034080    0.056010    0.382634    51.00000   -1.50000
H59B  2   -0.061849    0.298438    0.389942    51.00000   -1.50000
AFIX   0

PART 4
SAME 0.004 0.006 C21B > C51B
C24B  1    0.171600    0.260531    0.139806    61.00000    0.02815    0.03608 =
         0.04529   -0.00048    0.00984    0.00026
AFIX  13
H24B  2    0.097886    0.388780    0.121750    61.00000   -1.20000
AFIX   0
C34B  1    0.200314    0.266204    0.240266    61.00000    0.04837    0.05600 =
         0.05129    0.00627    0.01566    0.00343
AFIX  23
H37B  2    0.278371    0.150485    0.259432    61.00000   -1.20000
H38B  2    0.229838    0.438608    0.258888    61.00000   -1.20000
AFIX   0
C44B  1    0.074394    0.190500    0.285476    61.00000   71.00000
AFIX  23
H47B  2    0.060767    0.005828    0.279978    61.00000   -1.20000
H48B  2   -0.009890    0.273062    0.255426    61.00000   -1.20000
AFIX   0
S14B  5    0.092612    0.276203    0.401146    61.00000   81.00000
C54B  1    0.061211    0.608226    0.397883    61.00000   91.00000
AFIX  33
H60B  2    0.070202    0.674579    0.456765    61.00000   -1.50000
H61B  2   -0.032844    0.641055    0.368885    61.00000   -1.50000
H62B  2    0.129047    0.691218    0.366208    61.00000   -1.50000
REM
MOLE   2
AFIX   0
HKLF 4

REM  M293 in P2(1)
REM R1 =  0.0466 for    2682 Fo > 4sig(Fo)  and  0.0625 for all    3308 data
REM    231 parameters refined using    752 restraints

END

WGHT      0.0490      0.2813

REM Highest difference peak  0.221,  deepest hole -0.250,  1-sigma level  0.040
Q1    1   0.7079  0.7679  0.3755  11.00000  0.05    0.22
Q2    1  -0.0217  0.2166  0.3235  11.00000  0.05    0.19
Q3    1   0.5476  0.6665  0.3194  11.00000  0.05    0.18
Q4    1   0.1530  0.5085  0.3358  11.00000  0.05    0.18
Q5    1   0.5416  0.8549  0.3229  11.00000  0.05    0.16
;
_shelx_res_checksum              28385
_shelx_hkl_file
;
   1   0   0    0.00    0.02
   1   0   0    0.01    0.01
   2   0   0  102.01    3.22
  -2   0   0  106.03    2.88
   2   0   0   98.72    3.59
   2   0   0  105.09    2.94
  -2   0   0  110.28    3.59
   2   0   0  101.74    3.17
  -2   0   0   94.04    3.17
  -2   0   0  101.36    3.24
   3   0   0   85.88    2.90
   3   0   0   82.92    2.26
  -3   0   0   81.51    2.29
  -3   0   0   76.17    2.57
  -3   0   0   77.47    2.59
   3   0   0   75.39    2.55
   3   0   0   76.10    2.56
  -3   0   0   85.52    2.89
  -4   0   0  310.09    8.46
   4   0   0  306.92   10.52
   4   0   0  302.35    8.60
  -4   0   0  300.07    9.25
  -4   0   0  299.71   10.49
  -4   0   0  307.97    9.50
   4   0   0  299.12    9.56
   4   0   0  293.04    9.24
   5   0   0    0.68    0.09
   5   0   0    0.44    0.13
  -5   0   0    0.49    0.13
  -5   0   0    0.52    0.09
  -5   0   0    0.36    0.14
  -5   0   0    0.45    0.15
   5   0   0    0.28    0.12
   5   0   0    0.51    0.08
   6   0   0   22.18    1.10
  -6   0   0   21.70    1.03
  -6   0   0   21.82    1.04
  -6   0   0   23.25    0.97
  -6   0   0   23.15    0.81
   6   0   0   23.95    0.81
  -7   0   0    9.95    0.63
  -7   0   0   11.22    0.65
   7   0   0   10.59    0.63
  -7   0   0    9.16    0.71
   7   0   0   10.85    0.73
   7   0   0   10.33    0.37
  -7   0   0   10.92    0.50
   7   0   0   10.61    0.42
   8   0   0    0.20    0.06
  -8   0   0    0.07    0.13
  -8   0   0    0.06    0.14
   8   0   0   -0.09    0.07
  -8   0   0   -0.32    0.25
   8   0   0    0.07    0.19
  -9   0   0    0.68    0.20
   9   0   0    0.89    0.23
   9   0   0    0.50    0.11
  -9   0   0    0.54    0.36
   9   0   0    0.62    0.10
  -9   0   0    0.69    0.23
  10   0   0    1.03    0.15
  10   0   0    0.63    0.13
  10   0   0    0.69    0.29
 -10   0   0    0.96    0.29
 -10   0   0    0.96    0.24
 -10   0   0    1.32    0.52
 -11   0   0    2.70    0.50
 -11   0   0    2.71    0.41
  11   0   0    2.99    0.53
 -12   0   0    0.77    0.31
   0  -1   0   -0.01    0.02
   0  -1   0    0.00    0.04
   0  -1   0   -0.01    0.06
   0  -1   0   -0.01    0.02
   0   1   0    0.00    0.02
   0   1   0    0.03    0.03
   0   1   0   -0.02    0.06
   0   1   0    0.00    0.04
  -1  -1   0  513.09   18.73
   1  -1   0  537.42   16.41
  -1  -1   0  550.66   15.31
   1  -1   0  546.92   15.39
   1  -1   0  507.22   18.66
  -1  -1   0  529.24   18.86
  -1  -1   0  554.81   15.26
  -1  -1   0  538.08   16.36
  -1  -1   0  578.20   17.24
   1   1   0  527.88   16.35
  -1   1   0  533.07   16.98
   1   1   0  544.27   17.16
  -1   1   0  551.42   15.52
  -1   1   0  535.27   16.40
   2  -1   0   23.23    0.86
  -2  -1   0   23.81    0.68
  -2  -1   0   23.01    0.77
   2  -1   0   22.22    0.76
  -2  -1   0   21.38    0.79
   2  -1   0   21.74    0.89
  -2  -1   0   23.60    0.92
  -2   1   0   21.93    0.76
   2   1   0   22.64    0.70
  -2   1   0   21.84    0.80
   2   1   0   22.16    0.80
   2   1   0   23.95    0.92
  -2   1   0   22.45    0.85
   3  -1   0   58.78    1.94
   3  -1   0   61.84    2.04
  -3  -1   0   54.15    2.16
   3  -1   0   53.61    2.10
  -3  -1   0   64.75    1.82
  -3  -1   0   60.37    1.91
  -3  -1   0   54.32    1.63
   3  -1   0   56.48    1.75
   3   1   0   51.34    2.14
   3   1   0   61.42    1.88
  -3   1   0   60.18    2.06
   3   1   0   53.34    1.66
  -3   1   0   57.22    1.77
  -3   1   0   60.62    1.93
   3   1   0   59.27    1.88
  -4  -1   0   24.09    0.75
   4  -1   0   22.75    0.93
  -4  -1   0   23.46    0.67
   4  -1   0   21.79    0.77
  -4  -1   0   21.90    0.90
   4  -1   0   20.04    0.94
   4  -1   0   23.22    0.93
  -4  -1   0   20.84    0.99
   4   1   0   20.87    0.99
  -4   1   0   20.66    0.90
  -4   1   0   22.67    0.81
  -4   1   0   24.33    0.94
   4   1   0   24.40    0.78
  -4   1   0   23.36    0.99
   4   1   0   21.78    0.69
   4   1   0   22.49    0.87
  -5  -1   0   49.88    1.65
  -5  -1   0   52.77    2.02
  -5  -1   0   52.33    1.46
   5  -1   0   50.43    1.82
   5  -1   0   49.72    1.82
   5  -1   0   50.12    1.97
   5  -1   0   48.79    1.55
  -5  -1   0   50.76    1.82
  -5   1   0   50.26    1.62
   5   1   0   51.75    1.46
  -5   1   0   50.12    1.90
   5   1   0   48.13    1.75
  -5   1   0   48.41    1.89
   5   1   0   47.86    2.01
   5   1   0   51.22    1.63
  -5   1   0   50.91    1.83
   6  -1   0    9.34    0.43
  -6  -1   0    9.08    0.63
  -6  -1   0    9.07    0.44
   6  -1   0    9.37    0.52
  -6  -1   0    9.48    0.37
   6  -1   0    9.36    0.59
  -6  -1   0   10.15    0.61
   6  -1   0    9.58    0.62
  -6   1   0    8.70    0.64
  -6   1   0    8.66    0.61
   6   1   0    9.96    0.35
   6   1   0   10.27    0.67
   6   1   0    9.35    0.53
  -6   1   0    9.83    0.52
  -6   1   0    9.43    0.48
   7  -1   0   19.37    0.72
  -7  -1   0   20.71    0.83
  -7  -1   0   19.55    0.70
   7  -1   0   18.14    1.05
  -7  -1   0   20.41    1.05
   7  -1   0   21.56    0.88
   7  -1   0   22.03    1.01
  -7  -1   0   18.25    1.00
  -7   1   0   19.02    0.92
  -7   1   0   21.28    1.09
   7   1   0   20.37    0.94
  -7   1   0   20.27    0.84
   7   1   0   18.36    1.08
   7   1   0   20.23    0.65
  -7   1   0   18.82    1.02
   7   1   0   21.52    0.72
   8  -1   0   12.46    0.52
   8  -1   0   13.66    0.64
  -8  -1   0   12.06    0.65
   8  -1   0   12.37    0.83
  -8  -1   0   12.17    0.81
  -8  -1   0   12.35    0.53
   8   1   0   12.56    0.50
   8   1   0   12.35    0.47
  -8   1   0   12.02    0.69
   8   1   0   13.77    0.74
  -8   1   0   12.76    0.67
  -8   1   0   13.08    0.94
   9  -1   0    6.09    0.40
   9  -1   0    5.08    0.60
  -9  -1   0    6.12    0.39
  -9  -1   0    6.11    0.57
  -9  -1   0    5.10    0.51
   9  -1   0    5.95    0.36
   9   1   0    5.96    0.32
   9   1   0    6.25    0.34
   9   1   0    6.29    0.54
  -9   1   0    6.21    0.49
  -9   1   0    6.02    0.85
 -10  -1   0    2.13    0.36
 -10  -1   0    2.24    0.48
  10  -1   0    2.26    0.45
  10  -1   0    2.43    0.29
  10   1   0    3.38    0.48
 -10   1   0    2.51    0.37
 -10   1   0    3.26    0.70
 -10   1   0    1.85    0.38
  11  -1   0    1.00    0.18
  11  -1   0    0.34    0.38
 -11  -1   0    1.11    0.31
 -11   1   0    1.06    0.29
  11   1   0    1.03    0.33
 -11   1   0    0.43    0.35
   0  -2   0   56.71    2.02
   0  -2   0   55.37    2.00
   0  -2   0   57.70    1.74
   0   2   0   55.67    1.74
   0   2   0   54.72    2.03
   0   2   0   56.41    2.02
   0   2   0   52.79    1.73
  -1  -2   0   75.02    2.26
  -1  -2   0   70.70    2.23
  -1  -2   0   68.77    2.16
  -1  -2   0   70.24    2.61
  -1  -2   0   70.29    2.50
   1  -2   0   71.86    2.56
   1  -2   0   69.93    2.57
   1  -2   0   74.82    2.29
  -1  -2   0   72.51    2.49
  -1  -2   0   72.58    2.20
  -1   2   0   71.97    2.59
   1   2   0   73.49    2.63
  -1   2   0   73.18    2.59
  -1   2   0   73.85    2.23
  -1   2   0   75.40    2.25
  -2  -2   0    3.17    0.19
  -2  -2   0    3.05    0.28
  -2  -2   0    3.00    0.24
   2  -2   0    3.01    0.31
  -2  -2   0    3.45    0.27
  -2  -2   0    2.91    0.27
   2  -2   0    3.00    0.22
  -2  -2   0    2.91    0.21
   2  -2   0    2.82    0.27
   2  -2   0    3.49    0.20
  -2   2   0    3.04    0.25
  -2   2   0    3.25    0.21
   2   2   0    2.77    0.18
  -2   2   0    3.06    0.21
  -2   2   0    2.75    0.35
  -3  -2   0   11.68    0.59
   3  -2   0   11.15    0.50
   3  -2   0   10.17    0.52
  -3  -2   0    9.85    0.50
  -3  -2   0   10.07    0.47
  -3  -2   0   10.17    0.58
   3  -2   0   10.39    0.62
   3  -2   0   10.57    0.52
  -3  -2   0   10.76    0.39
  -3   2   0    9.77    0.48
   3   2   0   10.14    0.45
   3   2   0    9.83    0.51
  -3   2   0   11.09    0.48
   3   2   0   10.37    0.45
  -3   2   0   10.85    0.69
   4  -2   0   30.90    1.11
  -4  -2   0   30.60    1.17
   4  -2   0   32.39    1.22
   4  -2   0   31.00    1.33
  -4  -2   0   29.70    1.33
  -4  -2   0   32.19    1.04
   4  -2   0   32.24    1.25
  -4  -2   0   31.47    0.92
   4   2   0   29.99    1.31
   4   2   0   30.68    1.15
  -4   2   0   29.93    1.16
  -4   2   0   29.26    1.18
   4   2   0   29.90    1.02
  -4   2   0   30.89    1.14
   4   2   0   30.09    1.09
  -4   2   0   29.56    1.38
  -5  -2   0   47.96    1.92
   5  -2   0   44.59    1.81
   5  -2   0   45.49    1.54
   5  -2   0   45.91    1.71
  -5  -2   0   44.83    1.46
  -5  -2   0   44.94    1.69
  -5  -2   0   44.26    1.31
   5  -2   0   46.89    1.81
  -5   2   0   44.49    1.67
   5   2   0   44.22    1.60
  -5   2   0   44.55    1.89
   5   2   0   46.31    1.60
  -5   2   0   48.78    1.73
   5   2   0   43.50    1.87
  -5   2   0   45.50    1.58
   6  -2   0    1.23    0.26
  -6  -2   0    0.71    0.26
   6  -2   0    1.32    0.27
   6  -2   0    1.43    0.26
  -6  -2   0    1.11    0.12
  -6  -2   0    1.41    0.10
  -6  -2   0    1.36    0.27
   6   2   0    1.47    0.24
  -6   2   0    0.96    0.27
   6   2   0    1.93    0.39
   6   2   0    1.45    0.21
  -6   2   0    1.13    0.39
   6   2   0    1.17    0.19
  -6   2   0    0.94    0.19
   7  -2   0    4.07    0.50
  -7  -2   0    3.33    0.44
   7  -2   0    3.02    0.36
  -7  -2   0    4.33    0.58
  -7  -2   0    2.77    0.25
  -7  -2   0    3.06    0.18
   7  -2   0    3.00    0.44
   7   2   0    2.82    0.56
  -7   2   0    2.63    0.42
  -7   2   0    2.96    0.28
   7   2   0    2.74    0.33
  -7   2   0    3.48    0.61
   7   2   0    3.22    0.28
   8  -2   0   -0.08    0.20
   8  -2   0    0.34    0.23
  -8  -2   0    0.33    0.24
  -8  -2   0    0.24    0.09
  -8  -2   0    0.30    0.17
   8  -2   0    0.28    0.21
  -8   2   0    0.10    0.49
   8   2   0    0.10    0.18
  -8   2   0    0.39    0.22
  -8   2   0    0.23    0.13
   8   2   0    0.27    0.16
   9  -2   0    5.26    0.52
  -9  -2   0    4.66    0.32
   9  -2   0    5.33    0.66
   9   2   0    4.53    0.41
   9   2   0    4.96    0.51
  -9   2   0    5.06    0.85
  -9   2   0    4.69    0.41
  -9   2   0    4.65    0.54
 -10  -2   0    0.58    0.34
 -10  -2   0    0.78    0.20
  10  -2   0    0.29    0.37
  10   2   0    0.61    0.27
 -10   2   0    0.60    0.20
 -10   2   0    0.49    0.32
  11  -2   0    0.93    0.30
 -11  -2   0    0.61    0.36
  11  -2   0    0.72    0.46
 -11   2   0    1.53    0.45
  11   2   0    0.82    0.28
   0  -3   0   -0.14    0.16
   0  -3   0    0.03    0.08
   0  -3   0   -0.13    0.22
   0  -3   0    0.01    0.17
   0  -3   0   -0.04    0.05
   0   3   0    0.06    0.10
   0   3   0   -0.01    0.07
   1  -3   0   38.62    1.41
   1  -3   0   40.15    1.36
   1  -3   0   36.52    1.49
   1  -3   0   40.00    1.67
  -1  -3   0   41.04    1.29
  -1  -3   0   40.27    1.32
  -1  -3   0   39.05    1.39
  -1  -3   0   38.24    1.33
  -1  -3   0   38.56    1.60
  -1  -3   0   39.56    1.54
  -1  -3   0   38.74    1.61
  -1   3   0   39.74    1.69
  -1   3   0   39.43    1.29
  -1   3   0   40.59    1.54
  -1   3   0   36.48    1.38
   1   3   0   39.81    1.58
  -2  -3   0   25.49    0.91
   2  -3   0   26.50    1.27
  -2  -3   0   26.15    1.02
   2  -3   0   25.58    1.06
   2  -3   0   26.29    1.01
  -2  -3   0   26.60    1.17
   2  -3   0   26.59    1.05
  -2  -3   0   26.62    0.95
  -2  -3   0   27.50    1.18
  -2  -3   0   26.23    1.19
  -2  -3   0   26.76    1.14
  -2  -3   0   26.80    0.96
  -2   3   0   26.05    1.05
  -2   3   0   27.47    1.32
  -2   3   0   26.95    0.94
  -2   3   0   26.37    1.10
  -3  -3   0   20.16    0.83
   3  -3   0   20.06    0.91
   3  -3   0   20.69    1.09
  -3  -3   0   20.93    0.75
  -3  -3   0   21.32    0.87
   3  -3   0   20.84    0.87
   3  -3   0   21.01    0.86
  -3  -3   0   21.31    1.01
  -3  -3   0   20.53    0.92
  -3  -3   0   21.16    0.98
  -3  -3   0   21.40    0.98
   3   3   0   18.63    0.77
  -3   3   0   19.09    0.88
  -3   3   0   20.79    0.91
  -3   3   0   19.46    0.79
  -4  -3   0    4.78    0.42
  -4  -3   0    4.97    0.45
   4  -3   0    4.27    0.34
   4  -3   0    4.81    0.47
   4  -3   0    4.95    0.41
  -4  -3   0    4.80    0.26
  -4  -3   0    5.13    0.37
  -4  -3   0    4.40    0.45
  -4  -3   0    5.03    0.41
  -4  -3   0    5.46    0.45
  -4   3   0    4.93    0.70
  -4   3   0    4.37    0.32
   4   3   0    4.77    0.31
  -4   3   0    4.61    0.36
   5  -3   0    3.52    0.51
  -5  -3   0    3.74    0.42
  -5  -3   0    4.24    0.51
  -5  -3   0    3.60    0.43
   5  -3   0    3.80    0.50
  -5  -3   0    3.80    0.46
  -5  -3   0    4.31    0.21
   5  -3   0    4.34    0.42
   5  -3   0    3.96    0.39
  -5  -3   0    4.53    0.40
  -5   3   0    4.33    0.41
  -5   3   0    3.34    0.59
  -5   3   0    4.26    0.42
   5   3   0    4.14    0.31
   6  -3   0   24.39    1.13
  -6  -3   0   26.71    0.82
   6  -3   0   25.76    1.25
  -6  -3   0   27.54    1.37
  -6  -3   0   27.43    1.07
  -6  -3   0   25.26    1.23
  -6  -3   0   27.39    0.92
   6  -3   0   27.81    1.24
   6  -3   0   28.44    1.36
  -6  -3   0   26.39    1.12
  -6   3   0   27.94    1.15
  -6   3   0   24.63    1.54
  -6   3   0   27.26    1.18
  -6   3   0   25.15    1.16
   6   3   0   27.14    1.06
  -7  -3   0    1.38    0.23
   7  -3   0    1.01    0.28
  -7  -3   0    0.80    0.29
   7  -3   0    1.47    0.34
  -7  -3   0    1.01    0.14
  -7  -3   0    1.07    0.12
  -7  -3   0    1.33    0.32
   7   3   0    0.90    0.18
  -7   3   0    0.84    0.29
  -8  -3   0    0.56    0.20
   8  -3   0    1.16    0.34
  -8  -3   0    0.56    0.17
  -8  -3   0    0.62    0.11
  -8  -3   0    1.23    0.35
   8  -3   0    0.32    0.30
   8   3   0    0.29    0.16
  -8   3   0   -0.01    0.29
  -8   3   0    0.63    0.17
   9  -3   0    0.02    0.34
   9  -3   0   -0.55    0.32
  -9  -3   0    0.33    0.13
  -9  -3   0    0.37    0.37
  -9   3   0    0.22    0.16
   9   3   0   -0.16    0.20
  -9   3   0   -0.12    0.34
  10  -3   0    2.55    0.47
 -10  -3   0    2.27    0.47
 -10   3   0    3.27    0.55
  10   3   0    1.82    0.33
 -10   3   0    3.34    0.42
   0  -4   0    3.16    0.48
   0  -4   0    3.61    0.33
   0  -4   0    2.44    0.51
   0  -4   0    2.57    0.28
   0  -4   0    3.32    0.25
   0  -4   0    3.23    0.48
   0   4   0    3.60    0.34
  -1  -4   0    7.37    0.50
  -1  -4   0    6.76    0.62
  -1  -4   0    7.34    0.46
   1  -4   0    6.83    0.66
   1  -4   0    6.77    0.81
  -1  -4   0    7.01    0.40
   1  -4   0    7.00    0.61
   1  -4   0    6.69    0.44
  -1  -4   0    7.35    0.62
  -1  -4   0    7.28    0.36
   1  -4   0    7.02    0.42
  -1  -4   0    7.04    0.78
  -1   4   0    6.68    0.47
  -1   4   0    6.98    0.49
  -1   4   0    6.57    0.37
   1   4   0    7.30    0.52
  -2  -4   0    2.31    0.46
  -2  -4   0    2.16    0.40
  -2  -4   0    2.04    0.29
  -2  -4   0    2.02    0.18
  -2  -4   0    2.16    0.33
   2  -4   0    1.85    0.25
  -2  -4   0    2.53    0.29
  -2  -4   0    1.86    0.36
   2  -4   0    2.14    0.28
   2  -4   0    2.00    0.56
   2  -4   0    2.58    0.47
   2  -4   0    1.49    0.35
  -2   4   0    2.09    0.27
  -2   4   0    1.79    0.22
  -3  -4   0   18.77    1.02
  -3  -4   0   17.42    0.99
   3  -4   0   17.60    0.85
  -3  -4   0   18.07    0.77
  -3  -4   0   18.25    0.82
  -3  -4   0   17.59    0.92
  -3  -4   0   16.42    0.92
  -3  -4   0   17.40    0.69
   3  -4   0   17.01    0.81
  -3  -4   0   17.62    0.98
   3  -4   0   19.38    1.13
  -3   4   0   17.19    0.72
  -3   4   0   16.51    0.86
  -3   4   0   18.02    0.90
  -4  -4   0    0.72    0.27
   4  -4   0    1.14    0.22
  -4  -4   0    1.02    0.16
  -4  -4   0    1.10    0.30
  -4  -4   0    0.76    0.26
  -4  -4   0    0.69    0.28
  -4  -4   0    1.10    0.30
  -4  -4   0    1.15    0.33
  -4   4   0    0.76    0.19
  -4   4   0    0.97    0.20
   5  -4   0   25.97    1.21
  -5  -4   0   25.95    1.09
   5  -4   0   26.42    1.28
  -5  -4   0   26.92    0.90
   5  -4   0   24.21    1.43
  -5  -4   0   25.00    1.19
  -5  -4   0   27.17    1.19
  -5  -4   0   25.71    1.25
  -5   4   0   26.27    1.18
  -5   4   0   25.38    1.08
   5   4   0   27.34    1.05
  -5   4   0   25.97    1.21
   6  -4   0    0.55    0.25
   6  -4   0    0.24    0.35
  -6  -4   0    0.32    0.27
  -6  -4   0    0.02    0.28
  -6  -4   0    0.10    0.08
  -6  -4   0    0.72    0.37
  -6  -4   0    0.26    0.18
  -6   4   0    0.07    0.27
  -6   4   0    0.12    0.15
   7  -4   0    0.02    0.29
  -7  -4   0   -0.02    0.07
  -7  -4   0    0.25    0.27
   7  -4   0   -0.22    0.41
  -7  -4   0    0.89    0.41
  -7   4   0    0.04    0.16
  -7   4   0    0.05    0.32
  -8  -4   0    1.53    0.17
   8  -4   0    0.80    0.40
   8  -4   0    1.19    0.50
  -8  -4   0    1.59    0.46
  -8   4   0    1.22    0.29
  -8   4   0    1.75    0.45
   8   4   0    1.06    0.25
   9  -4   0    3.25    0.62
   9  -4   0    4.08    0.81
  -9   4   0    4.76    0.63
   9   4   0    3.18    0.51
  -9   4   0    4.16    0.54
   0  -5   0   -0.02    0.20
   0  -5   0   -0.03    0.37
   0  -5   0   -0.04    0.17
   0   5   0    0.10    0.19
   1  -5   0    1.38    0.47
  -1  -5   0    0.71    0.22
   1  -5   0    1.06    0.23
  -1  -5   0    1.07    0.24
   1  -5   0    1.44    0.30
  -1   5   0    0.84    0.25
   1   5   0    1.02    0.27
   2  -5   0    1.63    0.29
  -2  -5   0    1.47    0.22
  -2  -5   0    1.01    0.43
   2  -5   0    2.09    0.47
  -2  -5   0    2.20    0.41
  -2  -5   0    1.09    0.25
  -2   5   0    1.24    0.24
  -2   5   0    1.50    0.30
  -2   5   0    0.98    0.21
  -3  -5   0    0.17    0.28
  -3  -5   0   -0.02    0.15
  -3  -5   0   -0.10    0.28
   3  -5   0   -0.08    0.40
   3  -5   0    0.26    0.22
  -3  -5   0    0.05    0.11
  -3  -5   0    0.52    0.37
  -3   5   0    0.40    0.23
  -3   5   0    0.39    0.18
  -4  -5   0    4.07    0.70
   4  -5   0    4.34    0.54
  -4  -5   0    4.67    0.36
  -4  -5   0    4.04    0.32
   4  -5   0    4.21    0.74
  -4  -5   0    4.78    0.74
  -4  -5   0    4.43    0.67
  -4   5   0    5.44    0.49
  -4   5   0    4.27    0.56
  -5  -5   0    3.14    0.54
  -5  -5   0    2.08    0.28
  -5  -5   0    2.02    0.29
  -5  -5   0    2.55    0.48
   5  -5   0    1.96    0.38
   5  -5   0    2.39    0.53
  -5  -5   0    1.54    0.45
  -5   5   0    2.47    0.41
  -5   5   0    2.50    0.40
  -6  -5   0    1.10    0.42
  -6  -5   0    0.87    0.15
  -6  -5   0    0.59    0.40
   6  -5   0    0.92    0.35
   6  -5   0    2.14    0.57
  -6   5   0    0.99    0.37
  -6   5   0    0.68    0.27
  -7  -5   0    0.40    0.45
   7  -5   0   -0.33    0.57
   7  -5   0    0.77    0.39
  -7   5   0    0.49    0.27
  -7   5   0    0.43    0.43
   7   5   0    0.85    0.28
  -8   5   0    0.47    0.29
   0  -6   0    2.59    0.43
   0  -6   0    2.37    0.45
   0   6   0    2.43    0.45
  -1  -6   0    0.65    0.21
   1  -6   0    0.23    0.26
  -1  -6   0    0.79    0.35
   1  -6   0    0.26    0.37
   1  -6   0    0.76    0.60
  -1  -6   0   -0.32    0.51
  -1   6   0    0.76    0.31
  -2  -6   0    0.21    0.37
   2  -6   0    0.34    0.37
   2  -6   0    0.23    0.61
  -2  -6   0   -0.13    0.54
  -2  -6   0    0.21    0.28
  -2   6   0    0.48    0.28
  -3  -6   0    0.94    0.58
  -3  -6   0    1.24    0.47
  -3  -6   0    1.29    0.21
  -3  -6   0    1.15    0.26
   3  -6   0    0.76    0.36
   3  -6   0    0.21    0.60
  -3   6   0    2.03    0.46
  -3   6   0    1.14    0.32
   4  -6   0    0.65    0.37
  -4  -6   0    0.62    0.18
  -4  -6   0    0.05    0.57
  -4  -6   0   -0.05    0.45
   4  -6   0   -0.69    0.60
  -4  -6   0    0.17    0.24
  -4   6   0    0.22    0.42
  -5  -6   0   -0.23    0.59
   5  -6   0   -0.49    0.41
  -5  -6   0   -0.18    0.18
  -5   6   0    0.29    0.46
  -5   6   0    0.08    0.31
  12   0  -1    4.56    0.78
 -12   0   1    4.09    0.62
  11   0  -1    5.18    0.73
 -11   0   1    6.09    0.57
 -11   0   1    5.75    0.62
 -10   0   1    1.36    0.29
 -10   0   1    1.87    0.45
  10   0  -1    1.24    0.16
  10   0  -1    1.69    0.35
  10   0  -1    1.44    0.15
 -10   0   1    1.40    0.33
  -9   0   1   -0.23    0.32
   9   0  -1    0.02    0.06
   9   0  -1    0.05    0.09
   9   0  -1    0.13    0.24
  -9   0   1    0.01    0.18
  -9   0   1    0.05    0.18
  -8   0   1    5.27    0.51
  -8   0   1    4.50    0.34
   8   0  -1    3.97    0.22
  -8   0   1    3.43    0.40
   8   0  -1    4.89    0.48
   8   0  -1    5.05    0.23
   7   0  -1    1.15    0.21
   7   0  -1    1.30    0.29
  -7   0   1    0.83    0.19
   7   0  -1    1.54    0.13
  -7   0   1    0.90    0.26
   7   0  -1    1.25    0.13
  -7   0   1    1.06    0.19
  -7   0   1    1.44    0.27
   6   0  -1    5.79    0.23
   6   0  -1    5.11    0.26
  -6   0   1    4.88    0.46
  -6   0   1    5.72    0.41
  -6   0   1    5.38    0.40
   6   0  -1    4.79    0.41
  -6   0   1    5.58    0.30
   5   0  -1    2.31    0.13
  -5   0   1    2.48    0.25
  -5   0   1    1.69    0.28
  -5   0   1    2.07    0.17
   5   0  -1    2.00    0.24
   4   0  -1   28.56    0.82
  -4   0   1   27.40    0.87
  -4   0   1   26.67    1.12
   4   0  -1   27.41    1.05
  -4   0   1   26.27    1.07
  -4   0   1   27.46    1.00
   4   0  -1   27.54    0.95
   3   0  -1   33.59    1.20
  -3   0   1   34.71    1.20
   3   0  -1   36.20    1.00
  -3   0   1   34.53    1.31
   3   0  -1   33.32    1.14
   3   0  -1   33.72    1.32
  -3   0   1   32.75    1.16
   2   0  -1   10.68    0.32
  -2   0   1    9.89    0.38
   2   0  -1   10.40    0.45
  -2   0   1   10.95    0.45
   2   0  -1    9.44    0.38
  -2   0   1   10.25    0.33
  -2   0   1    9.72    0.42
   1   0  -1    0.56    0.06
  -1   0   1    0.61    0.06
   1   0  -1    0.63    0.05
   1   0  -1    0.60    0.04
  -1   0  -1    0.01    0.02
  -1   0  -1    0.01    0.02
   1   0   1   -0.01    0.01
  -1   0  -1    0.01    0.01
   1   0   1    0.02    0.02
  -1   0  -1   -0.01    0.02
   1   0   1    0.02    0.02
   1   0   1    0.00    0.02
  -2   0  -1  875.13   32.66
   2   0   1  869.65   32.56
  -2   0  -1 1000.00   29.58
  -2   0  -1  990.39   26.30
   2   0   1  956.67   29.42
   2   0   1  969.34   26.22
  -2   0  -1  932.38   28.71
  -3   0  -1    9.71    0.46
  -3   0  -1    8.92    0.34
   3   0   1   10.47    0.38
   3   0   1    9.70    0.44
  -3   0  -1   10.35    0.43
   3   0   1    8.63    0.31
  -4   0  -1  168.33    4.72
  -4   0  -1  161.35    5.21
  -4   0  -1  161.00    5.86
  -4   0  -1  172.14    5.32
   4   0   1  178.96    5.23
   4   0   1  168.48    4.65
   4   0   1  155.26    5.88
  -5   0  -1   70.54    2.58
   5   0   1   69.53    2.22
   5   0   1   67.32    2.34
  -5   0  -1   64.54    2.36
  -5   0  -1   67.05    2.35
  -5   0  -1   70.73    2.05
   5   0   1   71.36    1.96
  -6   0  -1   40.53    1.64
  -6   0  -1   38.03    1.57
   6   0   1   40.34    1.72
   6   0   1   42.48    1.35
   6   0   1   40.42    1.18
  -6   0  -1   39.68    1.52
  -6   0  -1   40.37    1.29
   6   0   1   40.27    1.54
  -7   0  -1   -0.02    0.12
   7   0   1    0.00    0.06
  -7   0  -1    0.01    0.22
   7   0   1    0.12    0.19
   7   0   1    0.05    0.14
   7   0   1    0.04    0.05
  -7   0  -1   -0.02    0.10
  -7   0  -1    0.05    0.24
  -8   0  -1    3.26    0.38
   8   0   1    3.15    0.19
  -8   0  -1    3.08    0.29
   8   0   1    2.47    0.39
   8   0   1    2.51    0.17
  -8   0  -1    2.50    0.43
  -9   0  -1    2.04    0.38
  -9   0  -1    2.42    0.31
  -9   0  -1    2.05    0.45
   9   0   1    1.89    0.17
   9   0   1    1.89    0.17
   9   0   1    1.68    0.33
  10   0   1    0.86    0.15
  10   0   1    0.87    0.28
 -10   0  -1    1.02    0.54
 -10   0  -1    0.77    0.26
 -10   0  -1    1.07    0.25
 -11   0  -1    0.37    0.25
 -11   0  -1   -0.08    0.28
  11   0   1    0.44    0.32
 -12   1   1    1.61    0.34
 -12   1   1    1.91    0.49
  11  -1  -1    0.70    0.39
 -11  -1   1    0.54    0.27
 -11  -1   1    0.08    0.28
  11   1  -1    0.58    0.32
 -10  -1   1    0.59    0.28
  10  -1  -1    0.57    0.16
  10  -1  -1    0.40    0.33
 -10  -1   1    0.38    0.21
  10  -1  -1    0.54    0.18
  10   1  -1    0.85    0.24
 -10   1   1    0.69    0.55
  10   1  -1    0.66    0.20
 -10   1   1    0.16    0.26
 -10   1   1    0.36    0.18
  -9  -1   1    7.70    0.44
  -9  -1   1    7.16    0.62
   9  -1  -1    7.97    0.47
   9  -1  -1    6.78    0.72
  -9  -1   1    7.20    0.43
   9  -1  -1    7.63    0.40
   9   1  -1    7.60    0.37
   9   1  -1    8.21    0.62
  -9   1   1    6.69    0.85
  -9   1   1    7.21    0.54
  -9   1   1    8.00    0.55
   9   1  -1    7.33    0.35
  -8  -1   1   10.99    0.50
   8  -1  -1   11.31    0.49
   8  -1  -1   12.49    0.78
   8  -1  -1   10.82    0.59
  -8  -1   1   11.42    0.75
  -8  -1   1   11.21    0.54
  -8   1   1   11.78    0.66
   8   1  -1   11.11    0.70
  -8   1   1   12.17    0.63
   8   1  -1   11.51    0.44
  -8   1   1   11.27    0.85
   8   1  -1   10.94    0.45
   7  -1  -1   24.03    1.14
  -7  -1   1   24.32    1.19
  -7  -1   1   25.22    0.83
   7  -1  -1   24.11    1.02
   7  -1  -1   24.61    0.85
  -7  -1   1   23.37    1.16
  -7  -1   1   23.98    0.90
  -7   1   1   23.48    1.18
  -7   1   1   25.34    0.98
  -7   1   1   24.58    1.09
   7   1  -1   23.78    0.83
  -7   1   1   24.44    1.16
   7   1  -1   24.38    1.08
   7   1  -1   25.72    0.78
   7   1  -1   24.83    1.25
   6  -1  -1    0.24    0.14
  -6  -1   1    0.18    0.13
   6  -1  -1    0.32    0.11
  -6  -1   1    0.24    0.07
   6  -1  -1    0.24    0.20
  -6  -1   1    0.39    0.12
   6  -1  -1    0.47    0.17
  -6  -1   1    0.31    0.19
  -6   1   1    0.33    0.13
  -6   1   1    0.29    0.17
   6   1  -1    0.28    0.07
   6   1  -1    0.20    0.12
   6   1  -1    0.40    0.09
  -6   1   1    0.33    0.22
  -6   1   1    0.25    0.10
   6   1  -1   -0.03    0.14
   5  -1  -1   37.65    1.44
  -5  -1   1   37.30    1.24
  -5  -1   1   36.93    1.42
  -5  -1   1   38.66    1.12
   5  -1  -1   36.51    1.20
   5  -1  -1   37.46    1.53
  -5  -1   1   37.36    1.57
   5  -1  -1   37.33    1.43
  -5   1   1   37.46    1.46
  -5   1   1   38.28    1.28
  -5   1   1   34.70    1.41
   5   1  -1   38.11    1.38
   5   1  -1   38.69    1.11
   5   1  -1   37.69    1.58
   5   1  -1   37.26    1.22
   4  -1  -1   34.37    1.35
   4  -1  -1   31.67    1.24
  -4  -1   1   32.24    1.07
  -4  -1   1   34.57    0.97
   4  -1  -1   30.84    1.27
  -4  -1   1   33.32    1.23
  -4  -1   1   34.49    1.38
   4   1  -1   36.28    1.00
   4   1  -1   32.86    1.20
   4   1  -1   35.96    1.39
  -4   1   1   32.70    1.12
   4   1  -1   30.67    1.08
  -4   1   1   32.59    1.24
  -4   1   1   31.17    1.30
  -4   1   1   34.34    1.28
  -3  -1   1  460.24   16.00
  -3  -1   1  407.79   12.75
   3  -1  -1  488.33   14.31
   3  -1  -1  470.19   13.85
  -3  -1   1  469.11   13.90
   3  -1  -1  441.94   15.81
  -3  -1   1  446.46   14.15
   3  -1  -1  455.98   12.79
  -3   1   1  457.54   16.02
   3   1  -1  456.97   12.87
  -3   1   1  461.07   12.74
  -3   1   1  480.95   14.31
  -3   1   1  467.75   13.80
   3   1  -1  472.02   14.08
   3   1  -1  391.17   14.16
   3   1  -1  453.50   15.73
  -2  -1   1   93.06    3.31
   2  -1  -1   92.03    2.91
  -2  -1   1   92.36    2.95
   2  -1  -1   93.17    2.70
  -2  -1   1   94.83    2.94
   2  -1  -1   88.37    3.09
   2  -1  -1   93.28    3.24
  -2  -1   1   89.19    2.87
   2   1  -1   93.15    2.86
  -2   1   1   89.59    2.89
  -2   1   1   93.98    3.08
   2   1  -1   95.04    2.64
  -2   1   1   93.15    3.23
  -2   1   1   97.13    2.72
   1  -1  -1   73.01    2.49
   1  -1  -1   71.45    2.11
  -1  -1   1   72.88    2.20
  -1  -1   1   72.12    2.06
   1  -1  -1   72.09    2.41
  -1  -1   1   67.47    2.54
  -1  -1   1   71.20    2.34
   1  -1  -1   74.41    2.24
  -1   1   1   65.93    2.49
  -1   1   1   71.78    2.13
  -1   1   1   73.65    2.22
   1   1  -1   74.14    2.34
   1   1  -1   71.86    2.56
   1   1  -1   73.40    2.08
   1   1  -1   74.41    2.19
   0  -1   1  100.68    2.85
   0  -1  -1  102.77    3.22
   0  -1   1   96.19    3.45
   0  -1   1  100.57    2.84
   0  -1   1  102.71    3.22
   0  -1   1  102.12    3.02
   0  -1  -1  100.55    2.85
   0  -1  -1   99.62    3.49
   0  -1  -1   98.93    3.01
   0   1  -1   96.07    3.46
   0   1   1   96.79    3.02
   0   1  -1   98.60    3.22
   0   1   1   92.23    2.84
   0   1   1  100.01    3.44
   0   1  -1   97.13    3.03
   0   1   1  103.72    3.23
  -1  -1  -1  151.30    4.61
   1  -1   1  146.11    4.30
  -1  -1  -1  155.17    4.27
   1  -1   1  159.45    4.60
  -1  -1  -1  142.66    5.25
  -1  -1  -1  161.69    4.79
   1  -1   1  131.74    5.21
   1   1   1  152.51    4.26
   1   1   1  156.05    4.58
  -1   1  -1  153.77    4.87
   1   1   1  146.11    5.24
   1   1   1  160.29    4.81
  -1   1  -1  151.87    4.31
  -1   1  -1  152.67    4.58
   2  -1   1   44.99    1.57
   2  -1   1   42.48    1.34
   2  -1   1   43.65    1.55
  -2  -1  -1   42.17    1.42
  -2  -1  -1   44.68    1.25
  -2  -1  -1   41.95    1.62
  -2  -1  -1   43.30    1.41
   2   1   1   43.10    1.45
  -2   1  -1   42.44    1.43
  -2   1  -1   45.38    1.56
  -2   1  -1   43.44    1.57
   2   1   1   44.21    1.40
   2   1   1   43.37    1.62
   2   1   1   43.24    1.27
   3  -1   1    5.72    0.34
  -3  -1  -1    6.02    0.34
   3  -1   1    5.80    0.30
  -3  -1  -1    6.16    0.23
   3  -1   1    5.90    0.36
  -3  -1  -1    5.82    0.19
  -3  -1  -1    6.07    0.37
   3   1   1    6.18    0.38
  -3   1  -1    5.70    0.34
  -3   1  -1    5.78    0.29
   3   1   1    5.41    0.30
   3   1   1    6.07    0.23
   3   1   1    5.64    0.27
  -3   1  -1    5.65    0.29
  -3   1  -1    5.57    0.40
  -4  -1  -1   15.83    0.55
  -4  -1  -1   17.00    0.77
  -4  -1  -1   16.77    0.48
  -4  -1  -1   15.31    0.70
   4  -1   1   14.84    0.70
   4  -1   1   15.10    0.70
   4  -1   1   16.68    0.74
   4  -1   1   15.38    0.59
   4   1   1   16.11    0.50
  -4   1  -1   15.47    0.71
   4   1   1   15.74    0.78
   4   1   1   15.29    0.65
  -4   1  -1   16.26    0.68
  -4   1  -1   14.94    0.78
  -4   1  -1   14.80    0.61
   5  -1   1    6.57    0.42
   5  -1   1    8.60    0.51
  -5  -1  -1    6.64    0.33
   5  -1   1    6.86    0.46
  -5  -1  -1    7.88    0.27
  -5  -1  -1    5.96    0.47
  -5  -1  -1    8.45    0.50
   5   1   1    7.94    0.27
  -5   1  -1    6.49    0.48
  -5   1  -1    7.03    0.38
   5   1   1    7.69    0.53
   5   1   1    6.85    0.30
   5   1   1    6.62    0.40
  -5   1  -1    6.30    0.53
  -6  -1  -1    0.64    0.21
   6  -1   1    0.67    0.16
  -6  -1  -1    0.45    0.14
  -6  -1  -1    0.58    0.16
   6  -1   1    0.69    0.14
  -6  -1  -1    0.56    0.09
   6  -1   1    0.50    0.17
   6  -1   1    0.84    0.20
  -6   1  -1    0.26    0.20
   6   1   1    0.65    0.10
   6   1   1    0.43    0.12
  -6   1  -1    0.50    0.14
  -6   1  -1    0.55    0.27
  -6   1  -1    0.73    0.15
   6   1   1    0.75    0.11
   6   1   1    0.34    0.19
  -7  -1  -1    2.98    0.21
   7  -1   1    3.30    0.30
   7  -1   1    2.95    0.26
   7  -1   1    2.48    0.40
  -7  -1  -1    2.22    0.34
  -7  -1  -1    2.86    0.45
  -7  -1  -1    3.20    0.34
   7  -1   1    2.91    0.46
   7   1   1    3.47    0.20
   7   1   1    2.97    0.31
   7   1   1    2.29    0.49
   7   1   1    3.09    0.19
  -7   1  -1    3.16    0.31
  -7   1  -1    2.96    0.50
  -7   1  -1    2.52    0.28
  -7   1  -1    3.38    0.54
   8  -1   1    3.53    0.28
   8  -1   1    4.04    0.33
  -8  -1  -1    3.62    0.44
   8  -1   1    3.16    0.46
  -8  -1  -1    3.73    0.27
   8   1   1    4.47    0.25
   8   1   1    3.46    0.23
  -8   1  -1    3.62    0.38
  -8   1  -1    3.73    0.68
  -9  -1  -1    3.50    0.47
  -9  -1  -1    3.55    0.32
   9  -1   1    3.30    0.51
   9  -1   1    3.50    0.29
   9  -1   1    3.96    0.33
   9   1   1    3.82    0.27
  -9   1  -1    3.92    0.68
   9   1   1    3.89    0.27
  -9   1  -1    3.69    0.44
   9   1   1    3.79    0.46
  -9   1  -1    3.39    0.38
  10  -1   1    1.37    0.35
 -10  -1  -1    1.87    0.26
  10  -1   1    1.64    0.27
  10  -1   1    1.88    0.26
 -10  -1  -1    1.14    0.29
  10   1   1    1.90    0.26
  10   1   1    1.86    0.34
 -10   1  -1    1.65    0.67
 -10   1  -1    1.68    0.31
 -10   1  -1    1.37    0.27
 -11  -1  -1    1.13    0.36
  11  -1   1    0.58    0.42
  11  -1   1    1.49    0.24
  11   1   1    0.94    0.34
 -11   1  -1    1.14    0.37
 -11  -2   1    0.38    0.34
  11  -2  -1    0.49    0.29
  11  -2  -1   -0.03    0.42
 -11   2   1    0.29    0.40
  11   2  -1    0.23    0.32
 -11   2   1    0.20    0.22
  10  -2  -1    1.74    0.40
 -10  -2   1    0.76    0.32
  10  -2  -1    1.44    0.33
 -10   2   1    1.37    0.36
 -10   2   1    0.99    0.24
  10   2  -1    0.67    0.28
  -9  -2   1    3.35    0.28
   9  -2  -1    3.36    0.47
  -9  -2   1    2.71    0.52
   9  -2  -1    4.34    0.56
  -9   2   1    3.78    0.37
   9   2  -1    3.14    0.38
   9   2  -1    3.26    0.44
  -9   2   1    3.88    0.78
  -9   2   1    3.34    0.46
   8  -2  -1    0.79    0.22
  -8  -2   1    0.98    0.29
  -8  -2   1    0.55    0.12
   8  -2  -1    0.89    0.26
   8  -2  -1    0.15    0.24
  -8   2   1    0.56    0.25
  -8   2   1    0.58    0.18
   8   2  -1    0.60    0.19
  -8   2   1   -0.03    0.48
   7  -2  -1    0.64    0.23
   7  -2  -1    0.04    0.18
  -7  -2   1    0.51    0.32
  -7  -2   1    0.09    0.18
  -7  -2   1    0.29    0.07
   7  -2  -1    0.08    0.21
   7  -2  -1    0.39    0.20
  -7   2   1    0.29    0.10
   7   2  -1    0.23    0.25
  -7   2   1    0.06    0.29
   7   2  -1    0.12    0.14
   7   2  -1    0.28    0.14
  -7   2   1   -0.11    0.38
  -7   2   1    0.35    0.18
  -6  -2   1    0.86    0.09
   6  -2  -1    0.91    0.23
   6  -2  -1    0.89    0.24
  -6  -2   1    0.80    0.11
  -6  -2   1    0.51    0.22
  -6  -2   1    0.64    0.15
  -6  -2   1    0.84    0.27
   6  -2  -1    0.64    0.18
   6   2  -1    0.66    0.16
  -6   2   1    0.80    0.20
   6   2  -1    0.79    0.26
  -6   2   1    0.78    0.16
  -6   2   1    0.77    0.36
   6   2  -1    0.95    0.16
  -6   2   1    0.76    0.25
   5  -2  -1    4.44    0.37
  -5  -2   1    4.46    0.42
  -5  -2   1    4.24    0.40
   5  -2  -1    4.72    0.40
   5  -2  -1    4.36    0.45
  -5  -2   1    4.51    0.18
   5  -2  -1    4.12    0.36
  -5  -2   1    4.41    0.31
  -5  -2   1    4.29    0.18
  -5   2   1    3.94    0.27
   5   2  -1    4.65    0.43
  -5   2   1    4.22    0.57
  -5   2   1    4.23    0.36
   5   2  -1    4.11    0.30
   5   2  -1    3.87    0.28
  -5   2   1    3.88    0.39
   4  -2  -1    6.63    0.41
  -4  -2   1    6.70    0.30
  -4  -2   1    6.94    0.26
   4  -2  -1    6.36    0.42
  -4  -2   1    6.45    0.48
  -4  -2   1    6.57    0.47
  -4  -2   1    6.39    0.42
  -4  -2   1    6.53    0.38
   4  -2  -1    6.67    0.51
   4  -2  -1    6.52    0.39
   4   2  -1    6.30    0.46
   4   2  -1    6.45    0.35
  -4   2   1    6.16    0.58
  -4   2   1    6.42    0.42
   4   2  -1    6.16    0.34
  -4   2   1    6.49    0.41
  -4   2   1    6.39    0.34
   3  -2  -1   24.52    1.13
   3  -2  -1   25.82    0.95
  -3  -2   1   26.06    0.81
   3  -2  -1   24.42    0.98
  -3  -2   1   26.75    1.12
  -3  -2   1   24.37    0.94
  -3  -2   1   25.44    0.95
   3   2  -1   25.81    0.89
   3   2  -1   25.71    0.90
  -3   2   1   24.39    1.15
  -3   2   1   25.52    0.95
  -3   2   1   27.21    0.99
   2  -2  -1    0.39    0.10
  -2  -2   1    0.61    0.13
  -2  -2   1    0.30    0.12
  -2  -2   1    0.41    0.07
  -2  -2   1    0.39    0.13
  -2  -2   1    0.66    0.12
   2  -2  -1    0.40    0.17
  -2  -2   1    0.44    0.12
   2  -2  -1    0.33    0.13
   2  -2  -1    0.52    0.09
   2   2  -1    0.41    0.07
  -2   2   1    0.72    0.21
   2   2  -1    0.47    0.13
  -2   2   1    0.34    0.10
  -2   2   1    0.39    0.09
  -2   2   1    0.45    0.09
  -1  -2   1   14.19    0.64
  -1  -2   1   14.56    0.59
   1  -2  -1   14.87    0.58
   1  -2  -1   14.02    0.61
  -1  -2   1   14.23    0.51
   1  -2  -1   14.26    0.55
  -1  -2   1   13.97    0.54
  -1  -2   1   13.70    0.66
  -1   2   1   14.42    0.52
  -1   2   1   14.15    0.59
   1   2  -1   14.83    0.70
   1   2  -1   14.11    0.65
  -1   2   1   14.40    0.60
   0  -2   1   10.35    0.50
   0  -2   1   10.69    0.50
   0  -2   1   11.14    0.40
   0  -2  -1   11.85    0.61
   0  -2   1   11.25    0.59
   0  -2  -1   10.29    0.48
   0  -2  -1   11.08    0.42
   0   2  -1   11.01    0.60
   0   2  -1   10.66    0.51
   0   2   1   10.67    0.49
   0   2  -1   11.70    0.49
   0   2  -1   10.99    0.39
   0   2   1   11.37    0.48
   0   2   1   11.18    0.42
  -1  -2  -1    3.08    0.30
  -1  -2  -1    2.84    0.18
   1  -2   1    2.59    0.28
  -1  -2  -1    2.72    0.23
  -1  -2  -1    2.88    0.28
   1  -2   1    2.14    0.18
  -1  -2  -1    2.25    0.20
  -1   2  -1    2.17    0.21
   1   2   1    2.30    0.18
   1   2   1    1.88    0.18
  -1   2  -1    2.33    0.15
  -2  -2  -1    1.37    0.14
  -2  -2  -1    1.08    0.19
  -2  -2  -1    1.09    0.17
   2  -2   1    1.17    0.20
   2  -2   1    1.00    0.15
  -2  -2  -1    1.17    0.16
  -2  -2  -1    0.96    0.17
  -2  -2  -1    0.99    0.18
   2  -2   1    1.20    0.23
  -2   2  -1    1.15    0.14
  -2   2  -1    1.09    0.24
  -2   2  -1    1.02    0.13
   2   2   1    1.42    0.19
  -2   2  -1    1.27    0.17
  -3  -2  -1   13.09    0.53
  -3  -2  -1   12.66    0.45
   3  -2   1   12.64    0.70
  -3  -2  -1   13.08    0.58
   3  -2   1   12.91    0.59
  -3  -2  -1   13.48    0.54
   3  -2   1   13.09    0.59
  -3  -2  -1   12.55    0.66
   3  -2   1   12.31    0.57
  -3   2  -1   13.22    0.78
   3   2   1   12.63    0.61
  -3   2  -1   11.76    0.56
   3   2   1   12.32    0.64
  -3   2  -1   12.66    0.58
   3   2   1   12.85    0.52
  -4  -2  -1   26.44    1.04
   4  -2   1   24.41    1.14
  -4  -2  -1   26.57    0.90
   4  -2   1   26.66    1.08
   4  -2   1   26.02    1.05
  -4  -2  -1   26.91    0.79
   4  -2   1   26.57    0.99
  -4  -2  -1   26.49    1.17
  -4   2  -1   26.04    1.04
  -4   2  -1   25.55    1.03
  -4   2  -1   25.94    1.00
   4   2   1   24.68    1.02
   4   2   1   26.81    1.17
  -4   2  -1   23.76    1.21
   4   2   1   26.01    0.96
   5  -2   1   18.42    0.90
  -5  -2  -1   20.13    0.66
  -5  -2  -1   18.61    0.88
  -5  -2  -1   17.96    0.57
   5  -2   1   20.48    0.96
   5  -2   1   19.85    0.89
   5  -2   1   19.00    0.80
  -5  -2  -1   18.11    0.95
  -5   2  -1   18.15    0.81
   5   2   1   20.06    0.80
   5   2   1   17.67    0.68
  -5   2  -1   17.16    0.80
  -5   2  -1   18.24    0.87
   5   2   1   19.19    0.78
  -5   2  -1   20.12    1.09
   6  -2   1    1.72    0.32
   6  -2   1    1.14    0.25
  -6  -2  -1    1.64    0.11
  -6  -2  -1    1.76    0.34
  -6  -2  -1    2.16    0.34
   6  -2   1    1.59    0.27
   6  -2   1    1.95    0.32
  -6  -2  -1    1.55    0.15
  -6   2  -1    1.97    0.29
  -6   2  -1    1.61    0.46
   6   2   1    1.32    0.30
   6   2   1    1.68    0.25
  -6   2  -1    1.64    0.20
   6   2   1    1.72    0.23
   6   2   1    1.41    0.23
  -6   2  -1    1.26    0.28
   7  -2   1    3.90    0.49
   7  -2   1    4.05    0.47
  -7  -2  -1    4.21    0.50
  -7  -2  -1    3.97    0.30
   7  -2   1    3.66    0.44
  -7  -2  -1    4.30    0.21
   7  -2   1    4.31    0.42
  -7   2  -1    5.13    0.74
  -7   2  -1    3.95    0.32
  -7   2  -1    4.56    0.42
   7   2   1    4.20    0.38
  -7   2  -1    3.08    0.52
   7   2   1    3.77    0.32
   7   2   1    3.90    0.32
   8  -2   1    2.36    0.39
  -8  -2  -1    1.83    0.19
  -8  -2  -1    2.13    0.34
  -8  -2  -1    1.52    0.31
   8  -2   1    3.14    0.49
   8  -2   1    2.52    0.38
   8   2   1    1.88    0.26
  -8   2  -1    1.16    0.55
  -8   2  -1    2.52    0.41
  -8   2  -1    1.97    0.27
   8   2   1    2.46    0.35
   8   2   1    1.65    0.28
   9  -2   1    5.55    0.50
  -9  -2  -1    4.85    0.31
   9  -2   1    3.47    0.65
   9  -2   1    4.00    0.46
  -9  -2  -1    4.03    0.55
  -9  -2  -1    4.24    0.47
   9   2   1    3.51    0.38
   9   2   1    5.04    0.48
  -9   2  -1    4.92    0.56
   9   2   1    4.06    0.43
  -9   2  -1    4.29    0.41
 -10  -2  -1    3.21    0.55
  10  -2   1    2.58    0.48
 -10  -2  -1    2.52    0.34
  10  -2   1    2.30    0.44
 -10   2  -1    2.08    0.37
  10   2   1    3.51    0.54
  11  -2   1    1.58    0.30
 -11  -2  -1    1.01    0.42
  11  -2   1    1.61    0.45
 -11   2  -1    1.23    0.27
  11   2   1    1.20    0.35
 -11   2  -1    1.61    0.45
 -10  -3   1   -0.15    0.37
  10  -3  -1    0.17    0.43
 -10  -3   1    0.31    0.17
  10  -3  -1    0.19    0.40
  10   3  -1    0.05    0.25
 -10   3   1   -0.01    0.19
 -10   3   1   -0.55    0.41
   9  -3  -1    1.09    0.38
  -9  -3   1    0.55    0.34
  -9  -3   1    1.45    0.20
   9  -3  -1    0.65    0.40
  -9   3   1    1.37    0.42
   9   3  -1    0.90    0.24
  -9   3   1    0.91    0.20
   8  -3  -1    2.04    0.39
  -8  -3   1    1.23    0.36
  -8  -3   1    1.54    0.17
   8  -3  -1    1.55    0.37
   8   3  -1    2.75    0.49
  -8   3   1    2.87    0.51
  -8   3   1    2.20    0.28
   8   3  -1    1.55    0.27
  -7  -3   1    5.74    0.61
  -7  -3   1    6.17    0.27
   7  -3  -1    5.65    0.66
  -7  -3   1    6.01    0.26
   7   3  -1    5.33    0.42
   7   3  -1    6.63    0.51
  -7   3   1    6.69    0.44
  -7   3   1    6.41    0.58
  -6  -3   1    7.64    0.46
  -6  -3   1    8.24    0.65
   6  -3  -1    6.73    0.56
   6  -3  -1    8.07    0.70
   6  -3  -1    8.35    0.61
  -6  -3   1    7.71    0.33
  -6  -3   1    7.84    0.30
   6  -3  -1    7.45    0.60
  -6  -3   1    7.84    0.66
  -6   3   1    7.91    0.58
   6   3  -1    7.44    0.51
  -6   3   1    7.96    0.96
  -6   3   1    7.47    0.46
  -6   3   1    7.57    0.60
   6   3  -1    7.59    0.44
  -5  -3   1    9.10    0.69
  -5  -3   1    8.82    0.35
  -5  -3   1    9.19    0.44
  -5  -3   1    8.78    0.53
   5  -3  -1    8.78    0.55
   5  -3  -1    9.08    0.73
   5  -3  -1    9.22    0.63
  -5  -3   1    8.78    0.60
  -5  -3   1    8.20    0.65
   5   3  -1    9.51    0.47
  -5   3   1   10.20    0.92
  -5   3   1    8.72    0.59
   5   3  -1    7.97    0.53
  -5   3   1    8.61    0.55
  -5   3   1    8.81    0.49
  -4  -3   1    6.09    0.46
  -4  -3   1    6.19    0.45
   4  -3  -1    5.97    0.51
  -4  -3   1    5.94    0.52
   4  -3  -1    6.27    0.39
  -4  -3   1    5.60    0.44
  -4  -3   1    5.84    0.49
   4  -3  -1    6.12    0.45
  -4  -3   1    5.67    0.29
  -4   3   1    6.97    0.73
  -4   3   1    5.64    0.37
   4   3  -1    5.97    0.34
  -4   3   1    5.96    0.40
  -3  -3   1   12.00    0.64
  -3  -3   1   12.12    0.69
  -3  -3   1   13.05    0.75
   3  -3  -1   12.89    0.82
   3  -3  -1   12.95    0.64
   3  -3  -1   13.12    0.59
  -3  -3   1   12.82    0.71
  -3  -3   1   13.13    0.59
   3  -3  -1   12.32    0.68
  -3  -3   1   13.02    0.69
  -3  -3   1   12.84    0.53
  -3   3   1   12.84    0.66
  -3   3   1   13.06    0.91
  -3   3   1   13.26    0.62
  -3   3   1   12.50    0.57
   3   3  -1   13.41    0.54
  -2  -3   1    8.01    0.35
  -2  -3   1    8.78    0.56
   2  -3  -1    8.00    0.41
  -2  -3   1    7.72    0.40
  -2  -3   1    8.71    0.52
   2  -3  -1    8.63    0.61
  -2  -3   1    7.76    0.50
   2  -3  -1    8.35    0.45
   2  -3  -1    7.98    0.70
   2  -3  -1    8.40    0.53
  -2  -3   1    8.08    0.59
  -2   3   1    8.29    0.50
  -2   3   1    8.55    0.45
  -2   3   1    8.27    0.39
   2   3  -1    8.25    0.52
  -1  -3   1    6.74    0.38
  -1  -3   1    5.23    0.29
   1  -3  -1    5.65    0.33
   1  -3  -1    7.12    0.36
  -1  -3   1    5.69    0.27
  -1  -3   1    5.56    0.45
  -1  -3   1    5.73    0.43
   1  -3  -1    5.69    0.44
   1  -3  -1    4.98    0.49
  -1  -3   1    4.45    0.52
  -1  -3   1    6.54    0.41
  -1   3   1    6.19    0.31
   1   3  -1    7.21    0.43
  -1   3   1    6.03    0.40
  -1   3   1    6.78    0.38
   0  -3  -1   12.31    0.77
   0  -3  -1   11.67    0.58
   0  -3   1   11.48    0.60
   0  -3   1   12.69    0.50
   0  -3   1   12.89    0.50
   0  -3  -1   12.04    0.53
   0  -3   1   12.08    0.57
   0  -3  -1   12.62    0.63
   0  -3  -1   12.73    0.51
   0  -3   1   12.96    0.65
   0  -3  -1   13.29    0.77
   0  -3   1   12.93    0.75
   0   3   1   12.17    0.59
   0   3  -1   13.73    0.83
   0   3  -1   12.06    0.62
   0   3   1   11.80    0.60
  -1  -3  -1   10.06    0.68
  -1  -3  -1    9.52    0.44
  -1  -3  -1    9.20    0.62
  -1  -3  -1    9.56    0.40
   1  -3   1   10.15    0.66
  -1  -3  -1    8.76    0.50
   1  -3   1    9.27    0.56
   1  -3   1    9.66    0.44
   1  -3   1    8.73    0.48
  -1  -3  -1    9.53    0.55
  -1   3  -1    9.87    0.52
  -1   3  -1    8.84    0.50
   1   3   1    9.37    0.48
  -1   3  -1    9.34    0.74
  -1   3  -1    9.77    0.39
   1   3   1    9.02    0.52
   2  -3   1    8.79    0.61
   2  -3   1    6.95    0.50
  -2  -3  -1    7.76    0.55
  -2  -3  -1    7.12    0.48
  -2  -3  -1    6.57    0.45
  -2  -3  -1    7.27    0.35
  -2  -3  -1    6.91    0.39
  -2  -3  -1    8.16    0.49
   2  -3   1    8.14    0.42
   2  -3   1    6.43    0.39
  -2  -3  -1    8.34    0.41
  -2  -3  -1    8.04    0.56
  -2   3  -1    8.14    0.70
  -2   3  -1    6.60    0.42
  -2   3  -1    7.63    0.46
  -2   3  -1    7.75    0.36
  -3  -3  -1    5.37    0.44
   3  -3   1    6.29    0.41
  -3  -3  -1    6.81    0.50
  -3  -3  -1    6.46    0.46
  -3  -3  -1    6.23    0.41
  -3  -3  -1    5.62    0.47
   3  -3   1    5.88    0.54
   3  -3   1    6.49    0.37
   3  -3   1    5.13    0.48
  -3  -3  -1    6.49    0.33
  -3  -3  -1    6.09    0.44
  -3   3  -1    6.00    0.42
  -3   3  -1    7.00    0.41
   3   3   1    6.00    0.34
  -3   3  -1    6.07    0.36
  -3   3  -1    5.53    0.67
  -4  -3  -1    7.93    0.35
   4  -3   1    8.27    0.48
   4  -3   1    8.27    0.51
  -4  -3  -1    8.03    0.47
  -4  -3  -1    8.74    0.51
  -4  -3  -1    8.40    0.59
   4  -3   1    7.61    0.65
   4  -3   1    7.70    0.57
  -4  -3  -1    8.14    0.53
  -4  -3  -1    8.11    0.59
  -4  -3  -1    7.61    0.56
  -4   3  -1    8.01    0.47
  -4   3  -1    8.00    0.53
  -4   3  -1    8.13    0.83
  -4   3  -1    7.86    0.48
   4   3   1    8.37    0.43
  -5  -3  -1   10.51    0.74
   5  -3   1   10.06    0.61
  -5  -3  -1   10.68    0.60
  -5  -3  -1   10.40    0.39
  -5  -3  -1   10.47    0.71
  -5  -3  -1   10.61    0.67
   5  -3   1   10.03    0.63
  -5  -3  -1   10.64    0.48
   5  -3   1   10.48    0.75
   5  -3   1   10.02    0.68
  -5   3  -1    9.49    0.60
  -5   3  -1   10.11    0.97
  -5   3  -1   11.02    0.64
   5   3   1   10.78    0.58
  -5   3  -1   10.35    0.56
   6  -3   1   12.23    0.77
  -6  -3  -1   14.01    0.70
  -6  -3  -1   11.24    0.82
   6  -3   1   13.26    0.86
  -6  -3  -1   12.17    0.81
   6  -3   1   13.47    0.79
  -6  -3  -1   12.40    0.90
   6  -3   1   11.50    0.76
  -6  -3  -1   14.09    0.51
  -6  -3  -1   12.63    0.43
  -6   3  -1   14.25    0.76
  -6   3  -1   11.83    0.65
  -6   3  -1   12.75    0.77
  -6   3  -1   12.10    1.11
   6   3   1   13.26    0.63
  -7  -3  -1    3.56    0.17
  -7  -3  -1    2.77    0.21
   7  -3   1    4.46    0.50
  -7  -3  -1    2.66    0.46
  -7  -3  -1    2.76    0.49
  -7   3  -1    3.47    0.34
  -7   3  -1    2.79    0.46
   8  -3   1    0.26    0.31
  -8  -3  -1    0.46    0.29
  -8  -3  -1    0.42    0.09
   8  -3   1    0.43    0.28
  -8  -3  -1    0.58    0.32
   8   3   1    0.41    0.16
  -8   3  -1    0.67    0.17
  -8   3  -1    0.29    0.27
   9  -3   1    0.20    0.32
  -9  -3  -1    0.53    0.13
  -9  -3  -1   -0.05    0.31
  -9   3  -1    0.53    0.18
  -9   3  -1    0.97    0.38
   9   3   1    0.40    0.22
 -10  -3  -1    2.18    0.48
  10  -3   1    2.28    0.58
  10  -3   1    2.28    0.45
 -10   3  -1    3.10    0.52
  10   3   1    2.09    0.36
  -9  -4   1   -0.18    0.38
  -9  -4   1    0.58    0.14
   9  -4  -1    0.38    0.50
  -9   4   1    1.10    0.48
  -9   4   1    0.61    0.25
   9   4  -1    0.57    0.26
   8  -4  -1    0.32    0.45
  -8  -4   1    0.47    0.35
   8  -4  -1    0.12    0.36
   8   4  -1    0.30    0.21
  -8   4   1    0.81    0.23
  -8   4   1    0.70    0.38
   7  -4  -1    1.72    0.44
  -7  -4   1    0.77    0.36
  -7  -4   1    1.82    0.52
  -7  -4   1    1.20    0.29
   7  -4  -1    1.17    0.33
  -7  -4   1    0.78    0.13
  -7   4   1    1.11    0.34
   7   4  -1    0.87    0.21
  -7   4   1    0.60    0.19
  -6  -4   1    1.20    0.16
  -6  -4   1    1.86    0.45
  -6  -4   1    1.26    0.39
  -6  -4   1    1.26    0.23
  -6  -4   1    1.06    0.36
  -6  -4   1    1.42    0.29
   6  -4  -1    0.76    0.41
   6   4  -1    1.36    0.26
  -6   4   1    0.96    0.23
  -6   4   1    1.80    0.36
   5  -4  -1    2.77    0.43
   5  -4  -1    2.88    0.41
  -5  -4   1    3.20    0.45
  -5  -4   1    2.75    0.50
  -5  -4   1    3.39    0.53
  -5  -4   1    3.29    0.44
  -5  -4   1    3.96    0.62
   5  -4  -1    2.78    0.53
  -5  -4   1    2.94    0.23
   5   4  -1    2.40    0.31
  -5   4   1    3.20    0.49
  -5   4   1    3.40    0.41
  -5   4   1    2.71    0.33
   4  -4  -1    6.15    0.46
  -4  -4   1    6.75    0.62
  -4  -4   1    6.53    0.54
  -4  -4   1    7.17    0.59
  -4  -4   1    6.89    0.65
  -4  -4   1    6.91    0.37
  -4  -4   1    6.28    0.59
   4  -4  -1    5.89    0.52
  -4  -4   1    7.87    0.65
   4   4  -1    6.51    0.40
  -4   4   1    7.64    0.49
  -4   4   1    6.54    0.45
  -3  -4   1    5.57    0.53
  -3  -4   1    5.00    0.54
  -3  -4   1    4.54    0.55
   3  -4  -1    4.51    0.60
   3  -4  -1    4.89    0.43
  -3  -4   1    4.19    0.61
  -3  -4   1    4.89    0.34
  -3  -4   1    4.69    0.28
  -3  -4   1    5.02    0.52
   3  -4  -1    4.88    0.36
  -3  -4   1    4.65    0.42
  -3   4   1    5.41    0.40
  -3   4   1    4.48    0.46
  -3   4   1    4.72    0.36
  -2  -4   1    1.56    0.35
  -2  -4   1    1.35    0.15
   2  -4  -1    1.33    0.53
   2  -4  -1    1.43    0.23
  -2  -4   1    1.26    0.36
  -2  -4   1    1.60    0.24
   2  -4  -1    1.71    0.35
  -2  -4   1    1.83    0.27
  -2  -4   1    1.11    0.25
   2  -4  -1    1.54    0.25
  -2  -4   1    1.79    0.45
   2  -4  -1    1.22    0.35
  -2   4   1    1.21    0.23
  -2   4   1    1.55    0.24
  -2   4   1    1.25    0.22
   2   4  -1    1.86    0.31
  -1  -4   1    1.13    0.32
   1  -4  -1    1.01    0.33
   1  -4  -1    1.49    0.35
  -1  -4   1    1.31    0.15
   1  -4  -1    1.12    0.23
   1  -4  -1    1.30    0.21
   1  -4  -1    1.58    0.49
  -1  -4   1    1.02    0.22
  -1  -4   1    1.28    0.21
  -1  -4   1    0.75    0.17
  -1  -4   1    1.41    0.32
  -1  -4   1    1.71    0.45
  -1   4   1    1.05    0.23
  -1   4   1    1.60    0.28
  -1   4   1    1.19    0.18
   0  -4   1    7.40    0.48
   0  -4   1    6.44    0.62
   0  -4  -1    7.31    0.46
   0  -4  -1    7.31    0.40
   0  -4   1    7.17    0.38
   0  -4   1    7.32    0.48
   0  -4  -1    7.81    0.62
   0  -4  -1    7.41    0.66
   0  -4  -1    6.70    0.42
   0  -4  -1    7.91    0.82
   0  -4   1    6.55    0.78
   0  -4   1    6.31    0.38
   0  -4   1    7.16    0.65
   0   4   1    7.62    0.49
   0   4   1    7.13    0.48
  -1  -4  -1   11.74    0.52
   1  -4   1   11.10    0.74
  -1  -4  -1   11.61    0.91
  -1  -4  -1   12.31    0.57
   1  -4   1    9.80    0.93
  -1  -4  -1   12.09    0.65
   1  -4   1   11.67    0.62
  -1  -4  -1   11.38    0.72
   1  -4   1   11.00    0.83
   1  -4   1   11.24    0.56
  -1  -4  -1   11.53    0.62
  -1   4  -1   11.80    0.66
   1   4   1   11.74    0.67
  -1   4  -1   11.25    0.49
  -2  -4  -1    6.62    0.63
  -2  -4  -1    6.66    0.61
  -2  -4  -1    7.31    0.38
   2  -4   1    7.30    0.69
  -2  -4  -1    7.49    0.46
   2  -4   1    7.66    0.46
  -2  -4  -1    5.99    0.67
  -2  -4  -1    7.59    0.56
  -2  -4  -1    7.93    0.54
   2  -4   1    7.46    0.46
   2  -4   1    6.87    0.64
  -2   4  -1    7.09    0.37
  -2   4  -1    8.24    0.52
  -2   4  -1    6.72    0.50
  -2   4  -1    8.62    0.92
   3  -4   1   39.39    1.59
  -3  -4  -1   41.21    1.79
  -3  -4  -1   39.15    1.49
   3  -4   1   40.15    1.87
   3  -4   1   40.08    1.54
  -3  -4  -1   39.37    1.39
  -3  -4  -1   37.83    1.68
  -3  -4  -1   41.07    1.56
  -3  -4  -1   42.10    1.78
  -3  -4  -1   40.95    1.42
  -3  -4  -1   40.38    1.66
  -3   4  -1   42.03    1.69
  -3   4  -1   40.90    1.40
  -3   4  -1   40.57    1.57
   4  -4   1    0.16    0.16
  -4  -4  -1    0.56    0.30
  -4  -4  -1    0.29    0.21
  -4  -4  -1    0.32    0.26
  -4  -4  -1    0.27    0.08
  -4  -4  -1    0.29    0.26
   4  -4   1    0.36    0.18
  -4  -4  -1    0.22    0.24
  -4  -4  -1    0.11    0.11
  -4  -4  -1    0.09    0.23
  -4   4  -1    0.19    0.16
  -4   4  -1    0.14    0.14
  -5  -4  -1   14.33    0.72
  -5  -4  -1   12.94    0.89
   5  -4   1   14.79    0.98
   5  -4   1   13.93    0.81
  -5  -4  -1   13.09    0.86
  -5  -4  -1   12.89    0.55
  -5  -4  -1   11.74    0.82
  -5  -4  -1   14.39    0.87
  -5   4  -1   13.00    0.80
  -5   4  -1   12.50    0.73
   5   4   1   14.73    0.68
  -5   4  -1   12.72    0.71
  -6  -4  -1    0.56    0.32
  -6  -4  -1    0.61    0.29
   6  -4   1    0.27    0.33
  -6  -4  -1    0.70    0.22
   6  -4   1    0.47    0.27
  -6  -4  -1    0.50    0.39
  -6   4  -1    0.71    0.19
  -6   4  -1    0.01    0.28
   7  -4   1    0.94    0.31
  -7  -4  -1    1.11    0.42
  -7  -4  -1    1.11    0.33
  -7  -4  -1    0.93    0.33
   7  -4   1    0.52    0.39
   7   4   1    0.81    0.23
  -7   4  -1    1.12    0.36
  -7   4  -1    1.63    0.34
  -8  -4  -1    1.95    0.18
   8  -4   1    2.29    0.50
   8  -4   1    1.26    0.42
  -8  -4  -1    1.08    0.41
  -8   4  -1    1.53    0.30
   8   4   1    1.49    0.29
  -8   4  -1    1.45    0.43
   9  -4   1    5.19    0.86
   9  -4   1    5.51    0.85
  -9  -4  -1    8.31    0.98
   9   4   1    7.03    0.61
  -9   4  -1    6.03    0.85
  -9   4  -1    6.63    0.60
   8  -5  -1    1.32    0.51
  -8  -5   1    0.85    0.14
  -8  -5   1    0.22    0.47
   8  -5  -1    0.68    0.63
  -8   5   1    0.55    0.29
  -8   5   1    0.79    0.52
   8   5  -1    1.03    0.32
   7  -5  -1    1.25    0.57
   7  -5  -1    0.50    0.40
  -7  -5   1    0.27    0.11
  -7  -5   1    0.32    0.42
   7   5  -1    0.10    0.25
  -7   5   1    0.13    0.23
  -7   5   1   -0.74    0.41
  -6  -5   1    3.81    0.32
  -6  -5   1    3.32    0.69
  -6  -5   1    3.13    0.27
   6  -5  -1    2.66    0.63
   6  -5  -1    3.13    0.51
  -6   5   1    2.58    0.51
  -6   5   1    2.26    0.44
  -5  -5   1    1.13    0.19
   5  -5  -1    1.00    0.32
  -5  -5   1    1.63    0.39
  -5  -5   1    1.05    0.43
  -5  -5   1    1.31    0.42
   5  -5  -1    0.22    0.49
  -5  -5   1    1.42    0.21
  -5   5   1    1.20    0.36
  -4  -5   1    4.42    0.65
  -4  -5   1    4.65    0.65
   4  -5  -1    2.55    0.44
  -4  -5   1    3.65    0.58
  -4  -5   1    3.25    0.59
  -4  -5   1    3.88    0.29
   4  -5  -1    3.52    0.62
  -4   5   1    3.35    0.53
  -3  -5   1    1.49    0.33
  -3  -5   1    1.04    0.55
   3  -5  -1    1.05    0.45
  -3  -5   1    1.26    0.37
   3  -5  -1    1.41    0.31
  -3  -5   1    1.77    0.44
  -3  -5   1    1.73    0.29
  -3  -5   1    1.48    0.20
  -3   5   1    1.80    0.33
  -3   5   1    1.38    0.35
  -3   5   1    1.35    0.27
  -2  -5   1    3.30    0.27
  -2  -5   1    3.28    0.64
   2  -5  -1    3.95    0.70
  -2  -5   1    3.83    0.53
   2  -5  -1    3.08    0.42
  -2  -5   1    3.60    0.38
   2  -5  -1    3.03    0.37
  -2  -5   1    2.90    0.43
  -2   5   1    3.54    0.46
  -2   5   1    3.66    0.39
  -2   5   1    2.44    0.35
   1  -5  -1    0.31    0.39
  -1  -5   1    0.42    0.13
   1  -5  -1    0.31    0.19
  -1  -5   1    0.44    0.20
   1  -5  -1    0.69    0.19
  -1  -5   1    0.34    0.19
   1  -5  -1    0.53    0.22
  -1   5   1    0.43    0.25
  -1   5   1    0.44    0.19
   0  -5  -1   11.20    0.70
   0  -5   1   12.27    0.62
   0  -5   1   12.23    0.73
   0  -5  -1   12.61    1.02
   0  -5  -1   12.78    0.67
   0  -5   1   11.54    0.61
   0  -5   1   12.43    0.97
   0  -5  -1   12.75    0.63
   0  -5  -1   11.14    0.71
   0   5   1   12.30    0.77
   0   5  -1   12.22    0.83
   1  -5   1    0.55    0.22
   1  -5   1    1.09    0.42
   1  -5   1    0.62    0.20
  -1  -5  -1    0.53    0.15
  -1  -5  -1    0.41    0.21
  -1  -5  -1    0.54    0.22
  -1  -5  -1    0.54    0.23
   1  -5   1    0.76    0.20
   1   5   1    0.74    0.23
   2  -5   1    7.64    0.55
  -2  -5  -1    6.73    0.56
  -2  -5  -1    7.99    0.81
  -2  -5  -1    7.97    0.56
   2  -5   1    7.03    0.85
  -2  -5  -1    7.99    0.68
   2  -5   1    8.90    0.62
  -2  -5  -1    7.53    0.44
  -2   5  -1    7.66    0.61
  -2   5  -1    6.63    0.44
  -3  -5  -1    0.25    0.27
  -3  -5  -1    0.06    0.28
  -3  -5  -1   -0.20    0.36
   3  -5   1    0.46    0.39
  -3  -5  -1   -0.03    0.10
  -3   5  -1    0.19    0.18
  -3   5  -1    0.32    0.18
  -3   5  -1   -0.22    0.25
   4  -5   1    2.38    0.44
   4  -5   1    1.21    0.47
  -4  -5  -1    1.87    0.40
  -4  -5  -1    1.58    0.45
  -4   5  -1    1.96    0.37
  -4   5  -1    2.19    0.37
  -4   5  -1    1.44    0.32
  -5  -5  -1    0.27    0.40
  -5  -5  -1   -0.22    0.40
  -5  -5  -1    0.17    0.14
   5  -5   1    0.76    0.43
  -5  -5  -1    0.55    0.34
  -5   5  -1    0.39    0.30
  -5   5  -1   -0.10    0.20
  -6  -5  -1    0.53    0.15
  -6  -5  -1    1.02    0.44
   6  -5   1    0.23    0.49
   6  -5   1    0.82    0.35
  -6  -5  -1    0.73    0.41
  -6   5  -1    0.49    0.38
  -6   5  -1    0.15    0.25
  -7  -5  -1   -0.31    0.39
   7  -5   1    0.78    0.55
  -7  -5  -1    0.60    0.12
   7  -5   1    0.93    0.41
   7   5   1    0.65    0.27
  -7   5  -1    0.07    0.28
  -7   5  -1   -0.50    0.39
   5  -6  -1    0.89    0.41
  -5  -6   1    0.80    0.50
  -5  -6   1    0.38    0.20
  -5  -6   1   -0.35    0.56
  -5  -6   1    0.00    0.18
  -5   6   1    0.37    0.44
  -4  -6   1    0.21    0.18
   4  -6  -1   -0.40    0.33
  -4  -6   1    0.79    0.46
  -4  -6   1    0.54    0.57
  -4  -6   1   -0.11    0.21
  -4   6   1   -0.02    0.28
  -4   6   1    0.76    0.39
  -3  -6   1    0.59    0.57
  -3  -6   1   -0.14    0.43
   3  -6  -1    0.90    0.36
   3  -6  -1    0.83    0.63
  -3  -6   1    0.41    0.23
  -3  -6   1    0.80    0.20
  -3   6   1    0.90    0.40
  -3   6   1    0.82    0.29
  -2  -6   1    1.17    0.29
  -2  -6   1    0.26    0.36
  -2  -6   1    0.74    0.54
  -2  -6   1    0.69    0.21
   2  -6  -1    2.25    0.60
   2  -6  -1    0.94    0.32
  -2   6   1    0.82    0.28
   1  -6  -1    0.19    0.55
   1  -6  -1    0.08    0.30
  -1  -6   1    0.13    0.21
  -1  -6   1    0.08    0.53
   1  -6  -1    0.09    0.24
  -1  -6   1    0.29    0.28
   1   6  -1    0.27    0.30
  -1   6   1    0.01    0.29
   0  -6  -1    1.22    0.58
   0  -6  -1    0.26    0.23
   0  -6   1    0.60    0.24
   0  -6   1    0.46    0.28
   0  -6  -1    0.23    0.30
   0  -6   1    0.09    0.55
   0   6  -1    0.59    0.30
   0   6   1    0.18    0.29
  -1  -6  -1    1.49    0.58
  -1  -6  -1    1.38    0.43
   1  -6   1    2.51    0.47
  -1  -6  -1    1.48    0.35
   1  -6   1    1.08    0.59
  -1  -6  -1    1.19    0.26
   1  -6   1    1.23    0.38
  -2  -6  -1    1.49    0.57
   2  -6   1   -0.33    0.51
  -2  -6  -1    0.78    0.28
  -2  -6  -1    1.32    0.43
   2  -6   1    0.58    0.34
   2  -6   1    1.32    0.32
  -2  -6  -1    0.72    0.22
  -2   6  -1    0.95    0.32
  -3  -6  -1    0.34    0.56
  -3  -6  -1    0.20    0.23
  -3  -6  -1    0.17    0.40
   3  -6   1   -0.19    0.36
   3  -6   1    0.27    0.55
  -3  -6  -1    0.06    0.18
  -3   6  -1    0.41    0.29
  -4  -6  -1    0.43    0.22
  -4  -6  -1    0.22    0.59
  -4  -6  -1    0.18    0.18
   4  -6   1    0.49    0.58
  -4  -6  -1    0.98    0.43
   4  -6   1   -0.25    0.36
  -4   6  -1    0.27    0.30
  -5  -6  -1    0.36    0.60
   5  -6   1    0.21    0.41
  -5  -6  -1    0.45    0.47
  -5  -6  -1   -0.30    0.19
  -5  -6  -1    0.10    0.21
  -5   6  -1    0.01    0.31
  12   0  -2    4.99    0.86
 -12   0   2    6.46    0.68
 -12   0   2    6.56    0.72
 -11   0   2    4.67    0.56
 -11   0   2    5.31    0.62
  11   0  -2    5.97    0.72
  10   0  -2    0.26    0.30
 -10   0   2    0.35    0.24
 -10   0   2    0.56    0.24
  10   0  -2    0.45    0.08
  10   0  -2    0.39    0.13
   9   0  -2    0.00    0.27
   9   0  -2    0.22    0.10
  -9   0   2    0.13    0.18
   9   0  -2    0.26    0.06
   9   0  -2    0.31    0.23
   8   0  -2   26.88    0.91
   8   0  -2   22.77    1.31
  -8   0   2   27.56    1.11
  -8   0   2   26.97    1.01
  -8   0   2   26.84    1.27
   8   0  -2   26.64    0.83
   8   0  -2   27.16    1.24
   7   0  -2    1.19    0.25
   7   0  -2    1.11    0.28
   7   0  -2    1.27    0.13
  -7   0   2    1.36    0.32
  -7   0   2    1.51    0.25
  -7   0   2    1.32    0.19
  -7   0   2    1.30    0.26
   7   0  -2    1.20    0.13
   6   0  -2   14.73    0.49
   6   0  -2   12.59    0.78
  -6   0   2   16.04    0.68
  -6   0   2   15.45    0.79
  -6   0   2   15.01    0.59
   6   0  -2   15.78    0.76
  -6   0   2   13.00    0.74
   5   0  -2    8.55    0.31
   5   0  -2    8.02    0.37
  -5   0   2    8.54    0.49
  -5   0   2    7.93    0.50
  -5   0   2    8.26    0.37
   5   0  -2    8.13    0.48
  -5   0   2    8.10    0.42
   4   0  -2   16.64    0.64
   4   0  -2   16.92    0.74
  -4   0   2   15.99    0.75
   4   0  -2   18.55    0.55
  -4   0   2   17.64    0.59
  -4   0   2   17.40    0.78
  -4   0   2   17.48    0.67
  -3   0   2   12.91    0.55
   3   0  -2   12.62    0.58
  -3   0   2   12.45    0.43
   3   0  -2   12.98    0.55
  -3   0   2   12.13    0.57
   3   0  -2   12.34    0.48
   3   0  -2   13.13    0.41
   3   0  -2   12.59    0.49
   2   0  -2  204.04    6.05
   2   0  -2  188.29    6.70
  -2   0   2  196.82    5.90
  -2   0   2  189.43    5.44
   2   0  -2  187.69    5.47
  -2   0   2  191.08    6.71
   2   0  -2  194.54    5.90
  -2   0   2  200.28    6.06
   1   0  -2    1.90    0.11
  -1   0   2    1.96    0.09
   1   0  -2    1.95    0.08
   1   0  -2    1.80    0.11
  -1   0   2    1.90    0.11
   1   0  -2    1.95    0.09
  -1   0   2    1.78    0.11
  -1   0   2    1.98    0.10
   0   0  -2    8.97    0.29
   0   0   2    8.66    0.29
   0   0  -2    8.49    0.25
   0   0  -2    8.62    0.28
   0   0  -2    8.66    0.29
   0   0  -2    8.29    0.32
   0   0   2    8.46    0.32
   0   0   2    8.66    0.25
  -1   0  -2   14.82    0.52
  -1   0  -2   15.46    0.45
  -1   0  -2   15.36    0.53
  -1   0  -2   15.73    0.58
   1   0   2   16.00    0.59
   1   0   2   15.84    0.51
   1   0   2   15.03    0.52
  -2   0  -2  468.20   14.84
   2   0   2  474.41   14.77
  -2   0  -2  430.88   14.15
   2   0   2  469.17   16.33
  -2   0  -2  494.13   13.10
   2   0   2  475.68   13.11
   3   0   2    0.10    0.07
   3   0   2    0.01    0.03
  -3   0  -2    0.15    0.09
   3   0   2    0.00    0.06
   3   0   2    0.09    0.03
  -3   0  -2   -0.01    0.05
  -3   0  -2   -0.02    0.05
  -3   0  -2    0.05    0.07
  -4   0  -2   33.47    1.20
  -4   0  -2   32.70    1.23
   4   0   2   33.73    1.20
   4   0   2   32.70    0.95
   4   0   2   34.76    1.10
  -4   0  -2   32.19    1.00
  -4   0  -2   30.82    1.29
   4   0   2   30.89    1.32
  -5   0  -2    0.70    0.18
   5   0   2    0.39    0.12
   5   0   2    0.26    0.06
  -5   0  -2    0.09    0.09
   5   0   2    0.10    0.12
  -6   0  -2    5.79    0.30
   6   0   2    6.60    0.28
  -6   0  -2    5.03    0.40
  -6   0  -2    6.31    0.46
   6   0   2    5.20    0.22
   6   0   2    4.53    0.49
  -6   0  -2    5.81    0.52
   6   0   2    5.94    0.43
   7   0   2    5.40    0.22
   7   0   2    5.57    0.26
   7   0   2    5.36    0.55
  -7   0  -2    5.25    0.33
  -7   0  -2    5.41    0.52
  -7   0  -2    5.95    0.44
   7   0   2    4.59    0.44
  -7   0  -2    4.97    0.58
   8   0   2    1.37    0.13
   8   0   2    1.38    0.14
  -8   0  -2    2.04    0.26
  -8   0  -2    1.65    0.40
  -9   0  -2    0.05    0.41
  -9   0  -2    0.11    0.17
  -9   0  -2   -0.05    0.17
   9   0   2   -0.03    0.08
   9   0   2    0.13    0.21
   9   0   2   -0.10    0.07
  10   0   2    0.72    0.14
 -10   0  -2    1.02    0.26
  10   0   2    0.82    0.27
 -10   0  -2    1.10    0.25
 -10   0  -2    0.47    0.54
 -11   0  -2    0.60    0.27
  11   0   2    0.90    0.34
 -12   1   2    0.37    0.31
 -12   1   2    1.90    0.46
  12   1  -2    0.78    0.40
 -11  -1   2   -0.27    0.30
 -11  -1   2    0.07    0.26
  11  -1  -2    0.09    0.38
 -11   1   2    0.37    0.25
 -11   1   2   -0.58    0.34
  11   1  -2    0.59    0.30
 -10  -1   2    0.65    0.28
 -10  -1   2    0.52    0.21
  10  -1  -2    0.66    0.18
  10  -1  -2   -0.14    0.32
  10   1  -2    0.70    0.26
 -10   1   2    0.72    0.27
  10   1  -2    0.77    0.20
   9  -1  -2   10.56    0.49
   9  -1  -2   11.93    0.84
   9  -1  -2   10.77    0.58
  -9  -1   2   10.81    0.53
  -9  -1   2    9.95    0.77
  -9   1   2   11.73    0.64
   9   1  -2   11.08    0.47
  -9   1   2   11.73    0.93
   9   1  -2   10.79    0.74
  -9   1   2   11.02    0.68
   8  -1  -2    1.61    0.22
   8  -1  -2    2.36    0.50
   8  -1  -2    1.55    0.29
  -8  -1   2    1.91    0.22
   8  -1  -2    1.70    0.32
  -8  -1   2    1.39    0.28
   8   1  -2    1.87    0.32
   8   1  -2    1.79    0.19
  -8   1   2    1.76    0.28
  -8   1   2    2.91    0.57
  -7  -1   2    2.84    0.41
   7  -1  -2    3.02    0.40
   7  -1  -2    2.89    0.40
   7  -1  -2    3.31    0.32
   7  -1  -2    2.95    0.26
  -7  -1   2    2.85    0.44
  -7  -1   2    3.00    0.22
   7   1  -2    2.77    0.19
   7   1  -2    3.18    0.49
   7   1  -2    3.44    0.36
  -7   1   2    3.14    0.51
  -7   1   2    3.31    0.32
  -7   1   2    2.89    0.46
  -6  -1   2    3.39    0.20
   6  -1  -2    3.25    0.25
   6  -1  -2    3.05    0.32
   6  -1  -2    3.32    0.39
   6  -1  -2    3.65    0.37
  -6  -1   2    4.24    0.39
  -6  -1   2    3.16    0.40
   6   1  -2    3.48    0.19
  -6   1   2    3.71    0.45
  -6   1   2    3.43    0.29
   6   1  -2    3.45    0.42
  -6   1   2    3.33    0.29
  -6   1   2    2.44    0.36
   6   1  -2    2.99    0.31
   5  -1  -2   28.42    1.11
   5  -1  -2   24.70    1.13
   5  -1  -2   27.22    1.10
  -5  -1   2   27.44    0.81
   5  -1  -2   26.54    0.89
  -5  -1   2   26.43    1.08
  -5  -1   2   24.28    1.16
  -5   1   2   25.53    1.07
  -5   1   2   24.44    1.07
   5   1  -2   27.16    1.05
  -5   1   2   27.61    1.14
  -5   1   2   25.96    0.95
   5   1  -2   24.61    1.17
   5   1  -2   25.72    0.80
   4  -1  -2   56.46    1.75
   4  -1  -2   56.03    2.16
  -4  -1   2   56.52    2.21
   4  -1  -2   58.46    2.01
  -4  -1   2   57.68    1.65
   4  -1  -2   56.39    2.05
   4   1  -2   59.96    2.22
   4   1  -2   60.64    1.68
  -4   1   2   57.52    1.81
  -4   1   2   56.89    2.06
   4   1  -2   56.95    1.93
  -4   1   2   55.82    1.96
  -4   1   2   61.46    2.12
   3  -1  -2  196.10    6.95
  -3  -1   2  209.26    6.15
   3  -1  -2  193.62    6.17
   3  -1  -2  190.96    5.67
   3  -1  -2  207.10    6.45
   3  -1  -2  197.10    6.42
  -3  -1   2  192.11    5.71
  -3  -1   2  202.97    7.03
   3   1  -2  203.59    5.61
   3   1  -2  206.41    6.12
  -3   1   2  194.91    6.95
   3   1  -2  205.66    7.01
  -3   1   2  205.16    5.72
  -3   1   2  198.65    6.15
  -2  -1   2    2.47    0.20
   2  -1  -2    2.04    0.17
   2  -1  -2    1.78    0.22
   2  -1  -2    2.39    0.15
  -2  -1   2    2.25    0.10
  -2  -1   2    2.55    0.20
   2  -1  -2    2.16    0.17
  -2  -1   2    1.95    0.13
  -2  -1   2    1.92    0.15
   2  -1  -2    2.14    0.20
   2   1  -2    1.90    0.15
  -2   1   2    2.43    0.13
   2   1  -2    1.70    0.14
   2   1  -2    2.27    0.13
  -2   1   2    2.04    0.17
  -1  -1   2  215.56    6.45
   1  -1  -2  205.19    5.78
  -1  -1   2  197.00    7.09
  -1  -1   2  209.06    6.23
   1  -1  -2  213.60    6.52
   1  -1  -2  198.06    7.12
   1   1  -2  217.81    6.47
   1   1  -2  203.07    6.24
  -1   1   2  190.36    7.13
  -1   1   2  202.77    6.24
   0  -1  -2   25.29    0.87
   0  -1   2   26.71    0.82
   0  -1   2   27.06    1.00
   0  -1   2   27.29    0.97
   0  -1  -2   26.55    0.84
   0  -1  -2   26.87    0.95
   0  -1  -2   26.62    0.97
   0   1   2   26.87    0.86
   0   1  -2   26.50    0.98
   0   1   2   27.33    0.96
   0   1  -2   27.75    0.81
   0   1  -2   26.17    0.84
   0   1   2   26.87    0.84
  -1  -1  -2  514.24   15.96
  -1  -1  -2  514.31   17.67
  -1  -1  -2  519.41   14.39
   1  -1   2  467.00   17.64
   1  -1   2  526.76   15.47
   1  -1   2  528.12   16.17
   1  -1   2  508.55   14.38
  -1  -1  -2  492.01   15.49
  -1   1  -2  522.67   16.09
  -1   1  -2  492.80   17.77
  -1   1  -2  518.57   15.47
   1   1   2  507.05   17.64
   1   1   2  482.94   15.56
   1   1   2  520.89   14.33
  -2  -1  -2   81.82    2.63
  -2  -1  -2   86.66    2.39
  -2  -1  -2   84.77    2.36
  -2  -1  -2   85.20    3.00
   2  -1   2   81.89    2.46
  -2  -1  -2   87.29    2.66
   2  -1   2   85.71    2.96
  -2   1  -2   80.00    2.94
  -2   1  -2   81.77    2.64
   2   1   2   85.60    3.01
  -2   1  -2   84.32    2.83
   2   1   2   81.51    2.61
   3  -1   2   52.46    1.64
  -3  -1  -2   53.87    1.50
   3  -1   2   52.29    1.80
  -3  -1  -2   52.36    1.71
  -3  -1  -2   57.50    2.03
   3  -1   2   49.50    1.86
   3   1   2   58.49    2.04
   3   1   2   54.66    1.54
  -3   1  -2   53.69    1.93
  -3   1  -2   54.62    1.65
   3   1   2   51.27    1.75
   3   1   2   54.28    1.76
  -3   1  -2   52.97    1.80
  -3   1  -2   52.98    1.94
  -4  -1  -2   19.65    0.56
   4  -1   2   18.64    0.80
  -4  -1  -2   18.87    0.66
   4  -1   2   18.89    0.69
  -4  -1  -2   20.12    0.88
   4  -1   2   18.60    0.79
   4  -1   2   20.22    0.86
  -4  -1  -2   17.99    0.81
   4   1   2   18.86    0.69
  -4   1  -2   17.87    0.88
   4   1   2   19.04    0.77
  -4   1  -2   19.16    0.71
   4   1   2   19.50    0.59
  -4   1  -2   19.29    0.80
  -4   1  -2   18.77    0.82
   4   1   2   19.84    0.90
   5  -1   2   22.51    0.92
  -5  -1  -2   23.09    0.99
  -5  -1  -2   23.40    0.82
   5  -1   2   22.61    0.97
  -5  -1  -2   22.36    1.02
  -5  -1  -2   22.16    0.68
   5  -1   2   21.12    1.01
   5  -1   2   21.88    0.79
   5   1   2   22.77    0.91
  -5   1  -2   22.33    0.99
  -5   1  -2   21.58    0.93
   5   1   2   21.30    1.05
  -5   1  -2   21.60    1.04
   5   1   2   21.14    0.68
  -5   1  -2   22.02    0.82
   5   1   2   23.37    0.80
   6  -1   2    4.71    0.30
   6  -1   2    5.50    0.47
   6  -1   2    4.75    0.33
  -6  -1  -2    4.74    0.41
  -6  -1  -2    4.48    0.33
   6  -1   2    4.73    0.40
  -6   1  -2    4.03    0.47
   6   1   2    4.81    0.26
  -6   1  -2    4.96    0.35
   6   1   2    4.48    0.48
  -6   1  -2    4.42    0.32
   6   1   2    4.90    0.21
   6   1   2    4.53    0.37
  -6   1  -2    4.35    0.52
   7  -1   2    3.73    0.31
   7  -1   2    3.51    0.42
   7  -1   2    3.70    0.28
  -7  -1  -2    4.69    0.57
  -7  -1  -2    3.86    0.40
  -7  -1  -2    4.39    0.42
   7  -1   2    4.32    0.51
  -7  -1  -2    3.82    0.24
   7   1   2    3.99    0.52
   7   1   2    3.70    0.37
  -7   1  -2    3.77    0.58
   7   1   2    3.82    0.24
  -7   1  -2    4.07    0.54
  -7   1  -2    3.96    0.34
   7   1   2    3.92    0.20
  -7   1  -2    4.04    0.33
  -8  -1  -2    3.32    0.46
  -8  -1  -2    3.39    0.47
   8  -1   2    3.53    0.29
   8  -1   2    3.27    0.27
  -8  -1  -2    3.30    0.26
   8   1   2    3.53    0.25
   8   1   2    2.88    0.39
  -8   1  -2    2.99    0.56
  -8   1  -2    3.36    0.35
  -8   1  -2    3.20    0.36
   8   1   2    3.23    0.22
  -9  -1  -2    8.58    0.44
   9  -1   2    7.60    0.40
  -9  -1  -2    8.00    0.64
   9  -1   2    8.61    0.68
   9  -1   2    9.06    0.46
  -9  -1  -2    8.68    0.73
   9   1   2    8.62    0.43
   9   1   2    8.51    0.64
  -9   1  -2    6.70    0.93
  -9   1  -2    8.42    0.56
  -9   1  -2    8.37    0.57
 -10  -1  -2    0.32    0.28
  10  -1   2    0.52    0.30
 -10  -1  -2    0.61    0.22
  10  -1   2    0.83    0.16
  10   1   2    0.95    0.19
 -10   1  -2    0.93    0.25
 -10   1  -2    0.66    0.68
  10   1   2    0.69    0.27
  11  -1   2    1.60    0.41
  11  -1   2    2.16    0.27
 -11  -1  -2    1.96    0.41
 -11   1  -2    2.73    0.48
  11   1   2    2.04    0.40
  11  -2  -2   -0.36    0.49
 -11  -2   2    0.06    0.38
  11   2  -2    0.96    0.37
 -11   2   2    0.18    0.40
  10  -2  -2    5.38    0.57
 -10  -2   2    5.66    0.41
  10  -2  -2    6.86    0.73
 -10  -2   2    4.73    0.64
  10   2  -2    5.39    0.57
 -10   2   2    5.02    0.47
 -10   2   2    5.94    0.68
   9  -2  -2    0.27    0.31
  -9  -2   2    1.07    0.32
   9  -2  -2    0.49    0.28
   9  -2  -2    1.07    0.61
   9   2  -2    0.76    0.23
   9   2  -2    1.04    0.25
  -9   2   2    0.61    0.18
   8  -2  -2    4.78    0.55
   8  -2  -2    3.26    0.39
  -8  -2   2    4.22    0.51
  -8  -2   2    3.70    0.24
   8  -2  -2    3.20    0.47
  -8   2   2    3.37    0.34
   8   2  -2    3.91    0.36
   8   2  -2    2.98    0.39
   7  -2  -2    1.30    0.29
   7  -2  -2    0.92    0.29
   7  -2  -2    1.61    0.30
  -7  -2   2    1.26    0.33
  -7  -2   2    1.23    0.13
   7  -2  -2    0.96    0.22
  -7  -2   2    1.07    0.28
   7   2  -2    1.47    0.26
  -7   2   2    2.24    0.50
  -7   2   2    1.02    0.19
   7   2  -2    1.08    0.21
  -7   2   2    1.48    0.26
  -7   2   2    1.04    0.32
  -6  -2   2   15.23    0.84
  -6  -2   2   15.58    0.51
   6  -2  -2   14.63    0.68
  -6  -2   2   15.00    0.89
   6  -2  -2   15.70    0.88
   6  -2  -2   16.10    0.84
   6  -2  -2   15.75    0.83
  -6   2   2   16.20    0.72
  -6   2   2   16.80    1.01
  -6   2   2   15.54    0.76
   6   2  -2   15.27    0.62
   6   2  -2   15.91    0.73
  -6   2   2   14.97    0.82
  -5  -2   2    8.97    0.33
  -5  -2   2    9.34    0.42
  -5  -2   2    9.86    0.34
  -5  -2   2   10.06    0.65
   5  -2  -2    9.82    0.57
  -5  -2   2    9.75    0.59
   5  -2  -2    9.86    0.66
   5  -2  -2    9.45    0.59
   5  -2  -2    9.73    0.52
  -5   2   2   10.48    0.48
  -5   2   2    9.84    0.58
   5   2  -2   10.03    0.64
  -5   2   2   10.67    0.75
  -5   2   2   10.87    0.57
   5   2  -2    9.97    0.50
   5   2  -2   10.48    0.45
   4  -2  -2   12.84    0.65
  -4  -2   2   12.78    0.71
  -4  -2   2   12.74    0.71
  -4  -2   2   13.65    0.44
   4  -2  -2   12.77    0.75
  -4  -2   2   12.56    0.62
   4  -2  -2   12.94    0.62
  -4  -2   2   12.69    0.55
  -4  -2   2   12.62    0.50
  -4   2   2   12.87    0.62
  -4   2   2   13.11    0.56
   4   2  -2   12.70    0.53
   4   2  -2   12.36    0.54
  -4   2   2   13.26    0.62
  -4   2   2   13.33    0.80
  -3  -2   2   59.65    1.99
  -3  -2   2   59.67    2.30
   3  -2  -2   57.73    2.24
  -3  -2   2   61.02    1.78
  -3  -2   2   61.32    2.05
  -3  -2   2   62.08    2.34
   3  -2  -2   58.47    2.26
   3  -2  -2   60.11    2.05
   3  -2  -2   63.64    2.20
   3  -2  -2   60.48    1.92
  -3   2   2   61.44    1.96
   3   2  -2   62.56    1.94
  -3   2   2   58.62    1.99
   3   2  -2   60.95    1.86
  -3   2   2   61.81    2.18
  -2  -2   2   34.79    1.29
  -2  -2   2   34.58    1.16
   2  -2  -2   32.98    1.18
  -2  -2   2   35.48    1.38
   2  -2  -2   33.45    1.40
   2  -2  -2   34.81    1.23
  -2  -2   2   35.27    1.09
   2  -2  -2   36.43    1.27
   2  -2  -2   33.66    1.42
  -2   2   2   35.90    1.29
   2   2  -2   35.75    1.13
   2   2  -2   34.81    1.30
   2   2  -2   32.96    1.39
  -1  -2   2   59.17    1.78
  -1  -2   2   59.39    1.81
   1  -2  -2   55.98    2.14
   1  -2  -2   59.19    2.15
  -1  -2   2   57.92    2.05
   1  -2  -2   58.75    2.07
   1  -2  -2   59.26    1.88
  -1  -2   2   59.11    1.79
  -1   2   2   58.22    1.84
   1   2  -2   55.01    2.06
   1   2  -2   56.73    2.17
  -1   2   2   59.58    1.85
  -1   2   2   59.40    2.09
   0  -2  -2    1.66    0.28
   0  -2  -2    1.49    0.20
   0  -2   2    1.53    0.11
   0  -2   2    1.29    0.21
   0  -2   2    1.77    0.17
   0  -2   2    1.89    0.18
   0  -2  -2    1.49    0.12
   0   2   2    1.28    0.21
   0   2  -2    1.43    0.28
   0   2   2    1.35    0.13
   0   2  -2    1.91    0.17
   0   2   2    1.86    0.15
   0   2   2    1.62    0.17
   0   2  -2    1.31    0.09
   1  -2   2   39.86    1.41
  -1  -2  -2   41.35    1.37
  -1  -2  -2   44.31    1.59
  -1  -2  -2   44.16    1.41
   1  -2   2   42.48    1.38
   1  -2   2   39.54    1.60
  -1  -2  -2   42.55    1.36
  -1  -2  -2   43.29    1.60
  -1  -2  -2   43.09    1.56
  -1   2  -2   44.33    1.40
  -1   2  -2   40.90    1.67
   1   2   2   43.44    1.36
  -1   2  -2   42.94    1.61
   1   2   2   43.01    1.60
  -1   2  -2   43.18    1.35
  -2  -2  -2   55.86    1.79
   2  -2   2   51.11    1.75
  -2  -2  -2   55.82    1.88
   2  -2   2   54.25    1.99
  -2  -2  -2   54.98    2.06
   2  -2   2   55.64    1.80
  -2  -2  -2   55.73    2.05
  -2  -2  -2   55.80    1.69
   2  -2   2   54.42    2.02
  -2  -2  -2   55.28    1.65
   2   2   2   55.07    1.77
  -2   2  -2   53.42    2.06
  -2   2  -2   54.51    1.76
   2   2   2   50.78    1.94
  -2   2  -2   55.39    2.02
  -2   2  -2   54.86    1.75
  -3  -2  -2    4.65    0.21
  -3  -2  -2    4.37    0.27
  -3  -2  -2    4.37    0.34
   3  -2   2    4.46    0.34
  -3  -2  -2    4.23    0.27
   3  -2   2    3.72    0.36
  -3  -2  -2    4.34    0.32
   3  -2   2    4.16    0.30
   3  -2   2    4.70    0.29
  -3   2  -2    4.56    0.28
  -3   2  -2    4.15    0.47
   3   2   2    4.19    0.33
   3   2   2    3.81    0.25
  -3   2  -2    4.03    0.30
   3   2   2    3.91    0.31
  -3   2  -2    3.66    0.30
  -4  -2  -2    4.52    0.38
  -4  -2  -2    4.95    0.25
   4  -2   2    4.75    0.36
   4  -2   2    4.29    0.37
  -4  -2  -2    4.59    0.19
  -4  -2  -2    4.88    0.30
   4  -2   2    4.44    0.34
  -4  -2  -2    3.90    0.37
   4  -2   2    5.22    0.42
  -4   2  -2    5.22    0.56
  -4   2  -2    4.69    0.30
  -4   2  -2    4.64    0.37
   4   2   2    5.19    0.35
   4   2   2    4.87    0.42
   4   2   2    4.89    0.30
  -4   2  -2    4.75    0.35
  -5  -2  -2    4.26    0.40
   5  -2   2    4.82    0.42
  -5  -2  -2    4.45    0.43
   5  -2   2    4.52    0.40
  -5  -2  -2    4.94    0.18
  -5  -2  -2    5.18    0.24
  -5  -2  -2    4.53    0.30
   5  -2   2    4.92    0.40
  -5   2  -2    4.47    0.41
   5   2   2    4.81    0.35
  -5   2  -2    5.00    0.32
   5   2   2    4.62    0.32
  -5   2  -2    5.11    0.60
  -5   2  -2    4.63    0.37
   5   2   2    4.88    0.47
   6  -2   2   23.28    1.12
   6  -2   2   22.37    1.08
   6  -2   2   22.90    1.06
   6  -2   2   22.74    0.93
  -6  -2  -2   23.77    0.69
  -6  -2  -2   21.28    1.07
  -6  -2  -2   24.43    1.16
  -6   2  -2   23.15    0.95
  -6   2  -2   20.25    1.21
   6   2   2   22.37    0.93
   6   2   2   22.73    0.94
  -6   2  -2   23.22    0.98
  -6   2  -2   21.52    1.06
   6   2   2   22.74    1.17
   7  -2   2    2.78    0.37
  -7  -2  -2    2.87    0.17
   7  -2   2    3.36    0.38
  -7  -2  -2    2.81    0.42
  -7  -2  -2    3.35    0.30
   7  -2   2    3.72    0.45
   7   2   2    2.92    0.28
   7   2   2    2.81    0.33
  -7   2  -2    3.03    0.53
  -7   2  -2    2.70    0.55
  -7   2  -2    2.96    0.37
  -7   2  -2    3.08    0.29
   7   2   2    2.87    0.31
   8  -2   2    2.10    0.42
   8  -2   2    2.24    0.31
  -8  -2  -2    1.93    0.30
   8  -2   2    2.06    0.37
  -8  -2  -2    1.43    0.30
  -8  -2  -2    1.73    0.19
  -8   2  -2    2.30    0.64
  -8   2  -2    2.05    0.33
   8   2   2    1.79    0.30
   8   2   2    2.29    0.30
  -8   2  -2    2.28    0.28
   8   2   2    2.05    0.28
   9  -2   2    1.27    0.36
  -9  -2  -2    1.62    0.35
   9  -2   2    1.12    0.28
  -9  -2  -2    1.41    0.35
  -9  -2  -2    1.14    0.17
   9   2   2    1.38    0.24
  -9   2  -2    0.81    0.30
  -9   2  -2    1.53    0.28
   9   2   2    1.38    0.30
 -10  -2  -2    4.57    0.65
  10  -2   2    5.33    0.71
  10  -2   2    3.65    0.46
 -10   2  -2    4.99    0.45
 -10   2  -2    5.21    0.62
  10   2   2    3.34    0.55
 -11  -2  -2    0.85    0.42
  11  -2   2    1.60    0.44
  11  -2   2    0.87    0.28
  11   2   2    0.45    0.35
 -11   2  -2    1.38    0.30
 -11   2  -2    1.42    0.45
 -10  -3   2    0.41    0.18
 -10  -3   2    0.67    0.47
  10  -3  -2   -0.43    0.41
  10  -3  -2   -0.06    0.39
  10   3  -2    0.73    0.27
 -10   3   2    0.18    0.42
 -10   3   2    0.23    0.20
   9  -3  -2    2.06    0.48
  -9  -3   2    3.43    0.61
  -9  -3   2    2.20    0.24
  -9   3   2    2.48    0.35
   9   3  -2    2.56    0.46
   9   3  -2    2.29    0.38
  -9   3   2    2.30    0.46
  -8  -3   2    3.40    0.22
   8  -3  -2    3.36    0.56
   8  -3  -2    3.42    0.62
  -8  -3   2    3.04    0.52
   8   3  -2    4.54    0.57
  -8   3   2    3.97    0.35
   8   3  -2    3.52    0.38
  -8   3   2    4.08    0.55
   7  -3  -2    0.19    0.22
   7  -3  -2    0.22    0.26
   7  -3  -2   -0.06    0.31
  -7  -3   2    0.68    0.33
   7   3  -2   -0.10    0.13
  -7   3   2    0.02    0.11
   7   3  -2    0.09    0.25
  -6  -3   2    3.48    0.47
  -6  -3   2    3.95    0.20
   6  -3  -2    3.42    0.64
   6  -3  -2    3.23    0.45
   6  -3  -2    3.50    0.57
   6  -3  -2    4.54    0.51
  -6  -3   2    3.63    0.49
   6  -3  -2    3.82    0.44
  -6  -3   2    3.72    0.19
  -6   3   2    3.69    0.46
   6   3  -2    4.23    0.44
  -6   3   2    4.07    0.44
  -6   3   2    3.42    0.31
   5  -3  -2   31.21    1.33
   5  -3  -2   30.69    1.50
  -5  -3   2   31.56    1.47
  -5  -3   2   30.81    1.11
   5  -3  -2   29.70    1.22
  -5  -3   2   31.56    1.27
   5  -3  -2   31.76    1.32
   5  -3  -2   28.60    1.54
  -5  -3   2   31.04    1.20
  -5  -3   2   30.26    1.43
  -5  -3   2   32.25    0.98
  -5   3   2   30.00    1.21
  -5   3   2   30.13    1.24
   5   3  -2   31.27    1.14
  -5   3   2   31.49    1.27
   5   3  -2   30.20    1.15
   4  -3  -2   11.85    0.67
  -4  -3   2   12.83    0.64
  -4  -3   2   12.56    0.48
   4  -3  -2   12.55    0.68
   4  -3  -2   12.47    0.62
   4  -3  -2   11.66    0.92
  -4  -3   2   12.47    0.64
  -4  -3   2   12.58    0.65
  -4  -3   2   12.30    0.73
   4   3  -2   13.29    0.55
  -4   3   2   12.37    0.60
  -4   3   2   12.30    0.61
   4   3  -2   11.54    0.62
  -3  -3   2    4.76    0.41
  -3  -3   2    4.81    0.35
   3  -3  -2    5.89    0.33
  -3  -3   2    5.92    0.46
  -3  -3   2    5.32    0.47
   3  -3  -2    4.97    0.38
   3  -3  -2    5.60    0.53
  -3  -3   2    5.64    0.45
   3  -3  -2    4.60    0.61
   3  -3  -2    5.03    0.46
  -3  -3   2    5.65    0.30
  -3  -3   2    4.77    0.42
  -3   3   2    5.17    0.34
  -3   3   2    4.84    0.41
  -3   3   2    6.12    0.34
   3   3  -2    5.31    0.29
   2  -3  -2   39.36    1.69
  -2  -3   2   37.34    1.53
  -2  -3   2   39.22    1.53
  -2  -3   2   36.76    1.35
   2  -3  -2   36.88    1.37
   2  -3  -2   36.99    1.41
  -2  -3   2   37.76    1.26
   2  -3  -2   38.11    1.67
  -2  -3   2   37.50    1.22
  -2  -3   2   39.11    1.29
   2  -3  -2   38.47    1.38
  -2  -3   2   36.46    1.53
  -2   3   2   39.45    1.30
  -2   3   2   37.32    1.46
   2   3  -2   37.53    1.59
  -1  -3   2   63.57    1.93
  -1  -3   2   62.85    2.33
   1  -3  -2   61.45    2.24
   1  -3  -2   59.02    2.39
  -1  -3   2   63.32    1.95
   1  -3  -2   62.00    2.38
   1  -3  -2   59.79    2.02
  -1  -3   2   63.25    2.04
  -1  -3   2   60.34    2.29
   1  -3  -2   62.24    2.04
  -1   3   2   61.38    2.28
  -1   3   2   60.31    2.03
  -1   3   2   61.36    1.98
   1   3  -2   61.34    2.33
   1   3  -2   62.55    2.37
   0  -3   2   77.07    2.84
   0  -3   2   76.48    2.50
   0  -3  -2   82.89    2.51
   0  -3  -2   79.56    2.92
   0  -3   2   76.43    2.44
   0  -3   2   76.08    2.86
   0  -3   2   80.09    2.46
   0  -3   2   79.22    2.44
   0  -3  -2   76.11    2.83
   0  -3  -2   79.93    2.52
   0  -3  -2   76.32    2.84
   0  -3  -2   79.68    2.49
   0   3  -2   80.05    2.90
   0   3   2   78.00    2.87
   0   3   2   79.38    2.48
   0   3  -2   77.73    2.92
  -1  -3  -2   17.72    0.79
   1  -3   2   17.40    0.75
   1  -3   2   16.52    0.65
  -1  -3  -2   16.65    0.87
  -1  -3  -2   17.26    0.75
  -1  -3  -2   16.48    0.68
  -1  -3  -2   16.76    0.91
  -1  -3  -2   16.86    0.75
  -1  -3  -2   16.50    0.64
   1  -3   2   17.06    0.80
   1  -3   2   16.31    0.90
   1   3   2   16.02    0.70
  -1   3  -2   15.54    0.96
  -1   3  -2   15.98    0.59
  -1   3  -2   15.50    0.72
  -1   3  -2   17.17    0.79
  -2  -3  -2   41.03    1.43
  -2  -3  -2   42.00    1.71
   2  -3   2   38.25    1.48
   2  -3   2   39.48    1.71
  -2  -3  -2   42.81    1.68
  -2  -3  -2   41.77    1.44
  -2  -3  -2   42.71    1.64
  -2  -3  -2   42.57    1.37
   2  -3   2   40.91    1.58
  -2  -3  -2   41.97    1.38
  -2  -3  -2   40.39    1.59
   2  -3   2   41.31    1.45
  -2   3  -2   39.78    1.45
  -2   3  -2   40.12    1.80
  -2   3  -2   42.94    1.65
  -2   3  -2   41.28    1.36
  -3  -3  -2    8.59    0.54
  -3  -3  -2    8.31    0.40
   3  -3   2    8.54    0.62
  -3  -3  -2    9.41    0.57
   3  -3   2    8.40    0.47
  -3  -3  -2    8.72    0.53
  -3  -3  -2    8.06    0.49
   3  -3   2    8.68    0.48
  -3  -3  -2    9.23    0.52
   3  -3   2    8.76    0.58
   3   3   2    8.58    0.59
  -3   3  -2    8.17    0.77
  -3   3  -2    8.66    0.43
  -3   3  -2    8.60    0.52
  -3   3  -2    8.17    0.48
   3   3   2    8.69    0.44
   4  -3   2   10.42    0.58
  -4  -3  -2   11.10    0.69
  -4  -3  -2   10.59    0.43
  -4  -3  -2   11.24    0.70
  -4  -3  -2   10.21    0.53
  -4  -3  -2   10.22    0.62
   4  -3   2   10.70    0.67
  -4  -3  -2   10.61    0.58
   4  -3   2   10.58    0.60
   4  -3   2   10.41    0.73
  -4   3  -2   10.94    0.57
  -4   3  -2   10.65    0.89
  -4   3  -2   10.39    0.62
   4   3   2   11.25    0.52
   4   3   2   10.20    0.65
  -5  -3  -2    7.55    0.39
   5  -3   2    6.99    0.52
   5  -3   2    7.00    0.52
  -5  -3  -2    7.18    0.59
   5  -3   2    7.36    0.61
  -5  -3  -2    7.45    0.30
  -5  -3  -2    7.24    0.63
  -5  -3  -2    7.65    0.61
   5  -3   2    6.37    0.59
  -5  -3  -2    7.64    0.49
  -5   3  -2    7.43    0.52
  -5   3  -2    7.11    0.85
  -5   3  -2    7.17    0.53
   5   3   2    7.15    0.43
   5   3   2    7.63    0.55
  -5   3  -2    7.10    0.46
   6  -3   2   15.14    0.80
  -6  -3  -2   14.14    0.55
  -6  -3  -2   13.38    0.45
   6  -3   2   15.16    0.89
   6  -3   2   12.32    0.81
  -6  -3  -2   13.39    0.86
  -6  -3  -2   13.82    0.68
   6   3   2   13.71    0.76
  -6   3  -2   13.39    0.81
  -6   3  -2   13.00    0.70
  -6   3  -2   13.82    0.77
   6   3   2   12.34    0.89
   6   3   2   13.71    0.67
   7  -3   2    2.49    0.47
  -7  -3  -2    3.10    0.49
   7  -3   2    1.89    0.34
  -7  -3  -2    2.34    0.14
  -7  -3  -2    1.96    0.20
  -7  -3  -2    3.31    0.44
   7   3   2    2.14    0.30
  -7   3  -2    2.57    0.45
   7   3   2    2.55    0.41
  -7   3  -2    1.62    0.30
  -8  -3  -2    0.67    0.21
   8  -3   2    0.82    0.34
  -8  -3  -2    1.72    0.40
  -8  -3  -2    1.08    0.15
   8   3   2    0.86    0.19
  -8   3  -2    1.48    0.30
   8   3   2    0.97    0.27
  -8   3  -2    1.20    0.33
  -9  -3  -2    0.71    0.31
   9  -3   2    0.02    0.40
   9  -3   2    0.67    0.36
  -9   3  -2    0.91    0.37
   9   3   2    0.68    0.21
  -9   3  -2    1.03    0.24
  10  -3   2    1.10    0.38
 -10  -3  -2    0.11    0.39
  10  -3   2    0.94    0.43
  10   3   2    1.02    0.29
 -10   3  -2    0.63    0.26
   9  -4  -2    4.90    0.93
  -9  -4   2    4.63    0.78
   9  -4  -2    6.47    0.87
  -9  -4   2    4.93    0.32
  -9   4   2    5.85    0.82
  -9   4   2    5.36    0.52
   9   4  -2    4.98    0.53
   8  -4  -2    2.49    0.49
  -8  -4   2    1.81    0.48
   8  -4  -2    2.49    0.59
  -8   4   2    2.92    0.50
   8   4  -2    2.09    0.32
  -8   4   2    1.84    0.31
  -7  -4   2   10.22    0.90
  -7  -4   2    9.09    0.56
   7  -4  -2    9.33    0.92
   7  -4  -2   10.22    0.80
  -7  -4   2   10.28    0.40
  -7   4   2   10.50    0.80
  -7   4   2   10.31    0.64
  -6  -4   2    3.46    0.23
  -6  -4   2    3.42    0.36
  -6  -4   2    3.13    0.44
  -6  -4   2    4.72    0.67
   6  -4  -2    3.37    0.59
   6  -4  -2    3.22    0.52
  -6  -4   2    3.94    0.59
  -6  -4   2    3.48    0.52
  -6   4   2    3.73    0.55
  -6   4   2    3.54    0.37
   6   4  -2    2.63    0.33
   5  -4  -2    3.22    0.44
  -5  -4   2    2.38    0.41
  -5  -4   2    2.53    0.49
  -5  -4   2    2.34    0.22
  -5  -4   2    2.98    0.47
  -5  -4   2    2.90    0.41
  -5  -4   2    1.78    0.38
   5  -4  -2    3.27    0.62
   5  -4  -2    2.45    0.39
  -5   4   2    2.34    0.38
  -5   4   2    2.67    0.30
   4  -4  -2    2.14    0.40
   4  -4  -2    1.87    0.30
  -4  -4   2    2.66    0.41
  -4  -4   2    2.53    0.23
  -4  -4   2    2.05    0.35
  -4  -4   2    2.08    0.45
  -4  -4   2    2.54    0.43
  -4  -4   2    2.27    0.40
  -4   4   2    2.31    0.33
   4   4  -2    1.92    0.24
  -3  -4   2   30.06    1.09
  -3  -4   2   29.07    1.29
  -3  -4   2   30.52    1.39
  -3  -4   2   29.20    1.37
   3  -4  -2   29.37    1.27
  -3  -4   2   30.37    1.42
  -3  -4   2   30.13    1.05
   3  -4  -2   30.85    1.22
  -3  -4   2   30.96    1.45
   3  -4  -2   31.84    1.59
  -3  -4   2   30.03    1.17
  -3   4   2   30.95    1.30
  -3   4   2   30.38    1.28
  -3   4   2   30.83    1.13
  -2  -4   2    4.17    0.33
  -2  -4   2    3.70    0.62
  -2  -4   2    3.60    0.32
   2  -4  -2    3.86    0.35
   2  -4  -2    4.07    0.30
   2  -4  -2    3.65    0.65
   2  -4  -2    3.47    0.54
   2  -4  -2    3.83    0.53
  -2  -4   2    3.20    0.51
  -2  -4   2    3.70    0.44
  -2  -4   2    4.00    0.24
  -2  -4   2    4.05    0.49
  -2   4   2    3.64    0.31
   2   4  -2    3.96    0.40
  -2   4   2    4.22    0.34
  -2   4   2    3.12    0.41
  -1  -4   2    1.37    0.37
   1  -4  -2    1.94    0.24
  -1  -4   2    1.50    0.17
   1  -4  -2    1.43    0.23
  -1  -4   2    1.90    0.28
  -1  -4   2    1.64    0.21
  -1  -4   2    1.92    0.48
  -1  -4   2    1.81    0.33
   1  -4  -2    1.77    0.37
   1  -4  -2    2.36    0.53
   1  -4  -2    1.17    0.32
  -1  -4   2    1.93    0.37
   1   4  -2    1.51    0.28
  -1   4   2    1.24    0.23
  -1   4   2    1.15    0.23
  -1   4   2    1.35    0.26
   0  -4  -2    3.31    0.27
   0  -4   2    2.82    0.31
   0  -4   2    2.86    0.24
   0  -4   2    3.36    0.26
   0  -4  -2    2.79    0.30
   0  -4   2    4.11    0.56
   0  -4  -2    4.37    0.71
   0  -4  -2    3.22    0.45
   0  -4  -2    2.84    0.31
   0  -4   2    2.89    0.34
   0  -4  -2    3.37    0.50
   0  -4   2    3.08    0.49
   0   4   2    2.78    0.31
   0   4  -2    3.06    0.35
   0   4  -2    3.82    0.68
   0   4   2    3.04    0.33
  -1  -4  -2    3.62    0.35
  -1  -4  -2    2.44    0.49
   1  -4   2    3.11    0.27
   1  -4   2    3.32    0.36
  -1  -4  -2    3.67    0.37
  -1  -4  -2    3.21    0.33
   1  -4   2    2.47    0.47
  -1  -4  -2    2.90    0.24
   1  -4   2    2.76    0.44
  -1  -4  -2    3.77    0.49
   1  -4   2    3.70    0.34
  -1  -4  -2    2.91    0.59
  -1   4  -2    3.58    0.34
  -1   4  -2    2.64    0.55
  -1   4  -2    2.67    0.22
   2  -4   2    3.77    0.34
  -2  -4  -2    4.00    0.42
  -2  -4  -2    3.62    0.44
  -2  -4  -2    3.71    0.49
  -2  -4  -2    4.16    0.37
   2  -4   2    3.52    0.55
  -2  -4  -2    4.81    0.61
  -2  -4  -2    3.72    0.34
   2  -4   2    4.15    0.34
   2  -4   2    4.22    0.53
  -2  -4  -2    4.24    0.28
  -2   4  -2    4.08    0.38
  -2   4  -2    3.74    0.27
  -2   4  -2    3.16    0.61
  -2   4  -2    4.00    0.42
  -3  -4  -2   13.83    0.74
   3  -4   2   13.93    0.70
   3  -4   2   13.50    0.93
   3  -4   2   12.49    0.67
  -3  -4  -2   15.20    0.94
  -3  -4  -2   12.87    0.83
  -3  -4  -2   13.58    0.63
  -3  -4  -2   14.82    0.81
  -3  -4  -2   13.00    0.77
  -3  -4  -2   14.10    0.60
  -3   4  -2   13.94    0.60
  -3   4  -2   13.50    0.75
  -3   4  -2   14.06    0.76
  -4  -4  -2    4.46    0.55
  -4  -4  -2    2.70    0.48
  -4  -4  -2    3.71    0.27
   4  -4   2    4.22    0.57
  -4  -4  -2    3.04    0.48
   4  -4   2    3.20    0.39
  -4  -4  -2    3.91    0.27
  -4  -4  -2    3.77    0.52
  -4  -4  -2    3.69    0.50
  -4  -4  -2    3.20    0.54
  -4   4  -2    3.40    0.37
  -4   4  -2    3.47    0.36
  -5  -4  -2    7.52    0.53
  -5  -4  -2    8.68    0.70
  -5  -4  -2    7.89    0.68
  -5  -4  -2    7.68    0.38
   5  -4   2    7.47    0.74
  -5  -4  -2    8.85    0.68
   5  -4   2    7.94    0.61
  -5   4  -2    6.75    0.61
   5   4   2    7.58    0.49
  -5   4  -2    7.38    0.53
  -5   4  -2    7.69    0.54
  -6  -4  -2    0.28    0.27
  -6  -4  -2    0.71    0.22
  -6  -4  -2    0.99    0.38
   6  -4   2    0.67    0.25
  -6  -4  -2    0.97    0.34
   6  -4   2    0.62    0.37
  -6  -4  -2    0.54    0.10
  -6   4  -2    0.54    0.17
   6   4   2    1.03    0.23
  -6   4  -2    0.59    0.29
   7  -4   2    3.61    0.65
  -7  -4  -2    4.15    0.58
   7  -4   2    3.13    0.58
  -7  -4  -2    3.78    0.68
  -7  -4  -2    3.36    0.19
  -7  -4  -2    2.63    0.47
   7   4   2    4.43    0.41
  -7   4  -2    2.57    0.43
  -7   4  -2    3.78    0.46
   8  -4   2    2.64    0.54
  -8  -4  -2    4.18    0.69
   8  -4   2    2.07    0.44
  -8  -4  -2    2.97    0.19
  -8   4  -2    2.88    0.46
   8   4   2    1.84    0.32
  -8   4  -2    2.81    0.48
   9  -4   2    4.09    0.64
   9   4   2    2.85    0.51
  -9   4  -2    3.24    0.54
  -9   4  -2    3.69    0.53
   8  -5  -2    0.71    0.71
  -8  -5   2   -0.06    0.48
   8  -5  -2    0.79    0.51
  -8  -5   2    1.20    0.21
  -8   5   2    1.31    0.54
  -8   5   2    0.84    0.29
   8   5  -2    0.95    0.33
  -7  -5   2    0.70    0.46
   7  -5  -2    0.57    0.39
  -7  -5   2    0.49    0.12
   7  -5  -2    0.26    0.60
  -7   5   2    0.27    0.24
   7   5  -2    0.26    0.25
  -7   5   2    0.37    0.43
   6  -5  -2    0.03    0.50
  -6  -5   2    1.26    0.21
  -6  -5   2    1.23    0.39
   6  -5  -2    1.59    0.40
  -6  -5   2    1.05    0.44
  -6   5   2    1.31    0.27
  -6   5   2    1.12    0.39
  -5  -5   2    1.98    0.27
  -5  -5   2    1.78    0.45
   5  -5  -2    2.10    0.41
  -5  -5   2    1.82    0.25
  -5  -5   2    1.64    0.49
  -5  -5   2    1.90    0.46
   5  -5  -2    1.80    0.54
  -5  -5   2    1.43    0.46
  -5   5   2    1.75    0.30
  -5   5   2    2.62    0.46
   4  -5  -2    7.47    0.95
  -4  -5   2    8.42    0.43
  -4  -5   2    8.07    0.93
  -4  -5   2    8.46    0.81
  -4  -5   2    8.73    0.71
  -4  -5   2    7.98    0.47
  -4  -5   2    7.32    0.77
   4  -5  -2    8.40    0.67
  -4   5   2    7.79    0.58
  -4   5   2    6.39    0.68
  -3  -5   2    2.49    0.23
  -3  -5   2    1.75    0.26
   3  -5  -2    2.38    0.33
  -3  -5   2    2.34    0.36
  -3  -5   2    2.23    0.61
  -3  -5   2    2.24    0.46
   3  -5  -2    2.20    0.43
  -3  -5   2    2.03    0.40
   3  -5  -2    2.05    0.49
  -3   5   2    1.90    0.34
  -3   5   2    2.80    0.34
  -2  -5   2    0.71    0.38
   2  -5  -2    0.69    0.20
   2  -5  -2    0.88    0.21
  -2  -5   2    0.78    0.20
  -2  -5   2    1.04    0.26
   2  -5  -2    0.98    0.43
  -2  -5   2    1.02    0.19
   2   5  -2    1.01    0.27
  -2   5   2    0.49    0.26
  -2   5   2    0.39    0.20
  -2   5   2    0.95    0.22
   1  -5  -2    1.60    0.42
  -1  -5   2    0.92    0.21
   1  -5  -2    0.97    0.21
   1  -5  -2    0.78    0.22
  -1  -5   2    0.69    0.24
   1  -5  -2    0.80    0.24
  -1  -5   2    0.78    0.15
  -1  -5   2    0.98    0.41
   1   5  -2    0.72    0.26
  -1   5   2    0.93    0.21
  -1   5   2    0.89    0.26
   0  -5  -2   25.48    1.20
   0  -5  -2   28.25    1.12
   0  -5  -2   27.22    1.54
   0  -5  -2   27.03    1.13
   0  -5   2   27.61    1.04
   0  -5   2   27.78    1.07
   0  -5   2   26.74    1.48
   0  -5   2   28.02    1.18
   0   5  -2   27.36    1.33
   0   5   2   27.87    1.22
   0   5   2   27.07    1.30
  -1  -5  -2    0.70    0.27
  -1  -5  -2    0.25    0.36
   1  -5   2    0.48    0.18
  -1  -5  -2    0.50    0.22
  -1  -5  -2    0.51    0.16
  -1  -5  -2    0.38    0.22
   1  -5   2    0.47    0.34
  -1  -5  -2    0.59    0.23
   1  -5   2    0.53    0.22
  -1   5  -2    0.67    0.23
   2  -5   2    5.47    0.46
  -2  -5  -2    4.64    0.54
   2  -5   2    4.47    0.51
   2  -5   2    4.16    0.70
  -2  -5  -2    4.03    0.58
  -2  -5  -2    4.99    0.36
  -2   5  -2    5.93    0.50
  -2   5  -2    4.02    0.35
  -3  -5  -2    3.50    0.57
   3  -5   2    4.07    0.51
   3  -5   2    3.44    0.60
   3  -5   2    3.15    0.46
  -3  -5  -2    3.35    0.32
  -3   5  -2    3.63    0.35
  -3   5  -2    3.80    0.45
  -3   5  -2    3.81    0.51
   4  -5   2    5.17    0.55
  -4  -5  -2    4.22    0.67
  -4  -5  -2    5.55    0.40
  -4  -5  -2    6.00    0.78
   4  -5   2    6.00    0.78
  -4  -5  -2    4.46    0.36
  -4   5  -2    5.78    0.50
  -4   5  -2    5.41    0.60
  -4   5  -2    5.39    0.45
   5  -5   2    1.10    0.32
   5  -5   2    0.18    0.42
  -5  -5  -2    0.81    0.44
  -5  -5  -2    0.76    0.37
  -5  -5  -2    0.64    0.18
  -5  -5  -2    0.81    0.18
  -5   5  -2    1.60    0.36
  -5   5  -2    0.71    0.24
  -6  -5  -2    0.54    0.42
   6  -5   2    0.57    0.36
  -6  -5  -2    0.86    0.16
   6  -5   2    0.64    0.53
  -6  -5  -2    0.75    0.46
  -6   5  -2    1.09    0.40
  -6   5  -2    0.53    0.30
  -7  -5  -2   -0.20    0.41
  -7  -5  -2    0.26    0.11
   7  -5   2    0.55    0.51
   7   5   2    0.09    0.28
  -7   5  -2   -0.17    0.27
  -7   5  -2    0.68    0.39
  -5  -6   2   -0.29    0.51
  -5  -6   2   -0.15    0.48
   5  -6  -2    0.05    0.42
  -5  -6   2    0.18    0.19
  -5   6   2   -0.04    0.29
  -4  -6   2    0.52    0.23
   4  -6  -2    0.45    0.70
   4  -6  -2    0.02    0.36
  -4  -6   2   -0.61    0.50
  -4  -6   2    0.38    0.18
  -4  -6   2    0.86    0.45
  -4   6   2    1.05    0.44
  -4   6   2    0.99    0.29
   3  -6  -2    1.12    0.64
  -3  -6   2    1.16    0.25
  -3  -6   2    1.10    0.50
   3  -6  -2    0.88    0.35
  -3  -6   2    0.74    0.20
  -3  -6   2    0.79    0.45
  -3   6   2    0.68    0.30
  -3   6   2    0.92    0.41
   2  -6  -2    1.19    0.62
  -2  -6   2    0.73    0.26
  -2  -6   2    0.46    0.19
   2  -6  -2    0.92    0.31
  -2  -6   2    0.44    0.51
  -2  -6   2    0.79    0.41
  -2   6   2    0.93    0.39
  -2   6   2    1.10    0.29
   1  -6  -2    0.30    0.27
  -1  -6   2    0.25    0.27
  -1  -6   2   -0.04    0.48
   1  -6  -2    0.63    0.61
   1  -6  -2    0.95    0.35
  -1  -6   2    0.29    0.20
  -1   6   2    0.09    0.30
   1   6  -2    0.14    0.31
   0  -6   2    0.11    0.30
   0  -6   2   -0.02    0.23
   0  -6  -2   -0.28    0.54
   0  -6  -2   -0.14    0.23
   0  -6  -2   -0.07    0.30
   0  -6   2   -0.71    0.47
   0   6  -2   -0.42    0.31
   0   6   2    0.35    0.30
   1  -6   2    4.62    0.62
  -1  -6  -2    2.90    0.44
   1  -6   2    3.28    0.69
  -1  -6  -2    3.93    0.68
  -1  -6  -2    3.05    0.66
   1  -6   2    3.89    0.52
  -1  -6  -2    3.93    0.44
  -1   6  -2    3.72    0.56
  -2  -6  -2   -0.05    0.19
   2  -6   2   -0.16    0.51
  -2  -6  -2    1.23    0.57
  -2  -6  -2    0.10    0.36
  -2  -6  -2    0.01    0.27
   2  -6   2   -0.36    0.32
  -2   6  -2    0.18    0.31
   3  -6   2    1.52    0.59
   3  -6   2    0.72    0.32
  -3  -6  -2   -0.34    0.40
  -3  -6  -2    0.48    0.19
  -3  -6  -2    1.43    0.58
   3  -6   2   -0.48    0.36
  -3  -6  -2    0.15    0.24
  -3   6  -2   -0.03    0.30
   4  -6   2   -0.43    0.59
  -4  -6  -2   -0.21    0.22
   4  -6   2   -0.25    0.41
  -4  -6  -2    1.14    0.58
  -4  -6  -2    0.11    0.18
  -4   6  -2    0.11    0.30
 -12   0   3    4.83    0.70
  12   0  -3    4.71    0.86
 -12   0   3    5.23    0.69
 -11   0   3    0.05    0.28
  11   0  -3    0.02    0.37
 -11   0   3    0.11    0.27
  10   0  -3    0.29    0.13
 -10   0   3    0.20    0.23
  10   0  -3    0.25    0.29
 -10   0   3    0.47    0.21
  10   0  -3    0.28    0.07
   9   0  -3    1.20    0.26
   9   0  -3    0.86    0.14
   9   0  -3    1.05    0.30
  -9   0   3    0.76    0.24
  -9   0   3    0.69    0.21
   9   0  -3    0.81    0.10
   8   0  -3   21.81    1.10
   8   0  -3   20.64    0.88
   8   0  -3   20.99    0.70
  -8   0   3   21.56    1.08
   8   0  -3   22.20    0.75
   8   0  -3   19.27    1.17
  -8   0   3   22.17    0.87
  -7   0   3    4.73    0.53
   7   0  -3    5.97    0.47
   7   0  -3    5.35    0.25
  -7   0   3    5.29    0.34
   7   0  -3    4.91    0.37
   7   0  -3    5.14    0.54
   6   0  -3   92.57    3.18
   6   0  -3   99.73    2.68
  -6   0   3   98.74    3.51
  -6   0   3   88.42    3.16
  -6   0   3   96.10    2.80
   6   0  -3   86.96    3.05
   6   0  -3   95.98    3.54
   6   0  -3   91.72    3.02
   5   0  -3    0.10    0.05
   5   0  -3    0.25    0.10
   5   0  -3    0.19    0.10
  -5   0   3    0.13    0.13
  -5   0   3   -0.01    0.06
   5   0  -3    0.08    0.12
  -5   0   3    0.09    0.09
   4   0  -3   72.99    2.11
   4   0  -3   77.34    2.39
   4   0  -3   68.58    2.71
  -4   0   3   73.23    2.16
   4   0  -3   77.87    2.41
   4   0  -3   76.34    2.46
  -4   0   3   68.87    2.70
   3   0  -3    8.55    0.41
   3   0  -3    8.20    0.28
   3   0  -3    7.93    0.32
  -3   0   3    7.59    0.39
  -3   0   3    7.84    0.30
   3   0  -3    7.50    0.41
  -3   0   3    8.04    0.41
   3   0  -3    8.43    0.37
   2   0  -3   74.94    2.30
  -2   0   3   72.15    2.07
   2   0  -3   71.11    2.05
  -2   0   3   69.91    2.58
  -2   0   3   75.17    2.29
  -2   0   3   76.39    2.34
   2   0  -3   70.20    2.58
   1   0  -3    6.49    0.21
  -1   0   3    6.16    0.24
  -1   0   3    6.17    0.25
   1   0  -3    6.44    0.28
   1   0  -3    6.20    0.25
  -1   0   3    6.23    0.21
   1   0  -3    6.28    0.23
  -1   0   3    6.26    0.27
   0   0  -3    1.41    0.08
   0   0   3    1.42    0.08
   0   0   3    1.27    0.08
   0   0  -3    1.22    0.06
   0   0  -3    1.42    0.08
   0   0   3    1.14    0.06
   0   0  -3    1.36    0.07
   1   0   3   41.15    1.12
   1   0   3   42.03    1.44
  -1   0  -3   38.27    1.30
  -1   0  -3   42.15    1.14
  -1   0  -3   41.99    1.42
  -1   0  -3   37.26    1.27
   1   0   3   38.46    1.26
   2   0   3  160.50    6.05
   2   0   3  175.48    4.87
  -2   0  -3  154.04    6.03
   2   0   3  187.39    5.61
  -2   0  -3  179.74    5.35
  -2   0  -3  185.33    5.50
   2   0   3  181.13    5.32
  -3   0  -3   28.54    1.09
  -3   0  -3   30.52    1.08
   3   0   3   31.15    1.00
   3   0   3   30.72    1.20
  -3   0  -3   29.94    1.16
   3   0   3   29.22    1.06
   3   0   3   29.92    0.88
  -3   0  -3   30.83    0.89
   4   0   3   25.47    0.98
   4   0   3   26.93    0.88
   4   0   3   25.76    0.76
  -4   0  -3   26.12    0.80
   4   0   3   26.71    1.11
  -4   0  -3   24.79    1.05
  -4   0  -3   25.88    0.99
  -4   0  -3   24.47    1.01
   5   0   3    0.29    0.05
  -5   0  -3    0.59    0.19
   5   0   3    0.16    0.16
   5   0   3    0.41    0.12
  -5   0  -3    0.57    0.18
  -5   0  -3    0.43    0.10
  -5   0  -3    0.16    0.10
   6   0   3    6.73    0.44
   6   0   3    5.34    0.50
  -6   0  -3    6.03    0.48
  -6   0  -3    6.37    0.42
  -6   0  -3    5.43    0.53
   6   0   3    5.12    0.26
  -7   0  -3    1.67    0.20
  -7   0  -3    1.73    0.26
   7   0   3    1.19    0.13
  -7   0  -3    0.73    0.27
   7   0   3    1.53    0.11
  -7   0  -3    1.45    0.32
   8   0   3    0.07    0.06
  -8   0  -3    0.08    0.32
  -8   0  -3   -0.02    0.14
  -8   0  -3   -0.05    0.14
  -9   0  -3    0.15    0.46
   9   0   3    0.11    0.09
  -9   0  -3   -0.02    0.17
   9   0   3   -0.07    0.08
  -9   0  -3    0.06    0.17
   9   0   3   -0.02    0.20
 -10   0  -3   -0.21    0.21
 -10   0  -3    0.29    0.58
 -10   0  -3    0.04    0.20
  10   0   3   -0.11    0.11
  10   0   3    0.29    0.25
  11   0   3    0.62    0.32
 -11   0  -3    0.84    0.28
 -12   1   3   -0.81    0.43
 -12   1   3   -0.28    0.29
  11  -1  -3   -0.30    0.39
 -11  -1   3    0.58    0.33
 -11   1   3    0.40    0.33
 -11   1   3    0.48    0.26
  11   1  -3    0.48    0.31
 -10  -1   3    4.25    0.40
  10  -1  -3    4.44    0.61
  10  -1  -3    4.19    0.36
 -10  -1   3    4.08    0.56
 -10   1   3    3.90    0.45
  10   1  -3    3.51    0.35
  10   1  -3    3.50    0.51
   9  -1  -3    3.62    0.69
   9  -1  -3    5.23    0.41
   9  -1  -3    4.98    0.57
  -9  -1   3    4.70    0.37
   9  -1  -3    4.48    0.32
  -9  -1   3    4.00    0.53
  -9   1   3    5.22    0.45
   9   1  -3    4.79    0.31
  -9   1   3    5.28    0.49
   9   1  -3    4.51    0.53
   8  -1  -3    6.15    0.65
   8  -1  -3    6.24    0.36
   8  -1  -3    5.91    0.60
  -8  -1   3    6.27    0.70
  -8  -1   3    6.52    0.37
   8  -1  -3    6.91    0.46
   8  -1  -3    6.40    0.64
  -8  -1   3    6.61    0.57
   8   1  -3    7.32    0.55
  -8   1   3    6.36    0.46
   8   1  -3    6.50    0.32
  -8   1   3    6.40    0.48
   7  -1  -3    3.26    0.26
   7  -1  -3    2.97    0.48
  -7  -1   3    3.32    0.49
  -7  -1   3    4.12    0.43
  -7  -1   3    3.52    0.24
   7  -1  -3    3.05    0.34
   7  -1  -3    4.24    0.47
   7  -1  -3    3.13    0.42
   7   1  -3    3.60    0.22
  -7   1   3    3.14    0.45
   7   1  -3    3.67    0.50
  -7   1   3    3.62    0.33
   7   1  -3    3.45    0.37
   6  -1  -3    2.50    0.21
   6  -1  -3    2.48    0.34
   6  -1  -3    2.25    0.31
  -6  -1   3    2.55    0.39
  -6  -1   3    2.56    0.17
   6  -1  -3    2.50    0.32
  -6  -1   3    2.28    0.31
   6  -1  -3    2.15    0.39
   6   1  -3    2.57    0.17
   6   1  -3    2.69    0.30
   6   1  -3    2.03    0.37
  -6   1   3    2.32    0.40
  -6   1   3    2.47    0.26
  -6   1   3    2.37    0.27
   5  -1  -3   37.86    1.48
   5  -1  -3   37.98    1.22
  -5  -1   3   40.23    1.16
   5  -1  -3   38.23    1.48
   5  -1  -3   36.04    1.47
  -5  -1   3   38.28    1.45
  -5  -1   3   39.74    1.63
   5  -1  -3   37.85    1.56
   5   1  -3   38.83    1.42
   5   1  -3   40.00    1.16
  -5   1   3   35.94    1.43
  -5   1   3   39.47    1.32
  -5   1   3   40.39    1.51
   4  -1  -3   19.49    0.85
   4  -1  -3   19.41    0.84
  -4  -1   3   18.94    0.89
   4  -1  -3   19.21    0.85
   4  -1  -3   20.60    0.84
  -4  -1   3   19.65    0.82
  -4  -1   3   18.80    0.59
   4  -1  -3   19.08    0.68
   4   1  -3   18.40    0.61
  -4   1   3   19.63    0.73
  -4   1   3   18.63    0.79
  -4   1   3   18.95    0.80
   4   1  -3   19.07    0.78
   4   1  -3   18.50    0.88
  -3  -1   3   39.02    1.33
   3  -1  -3   37.86    1.36
  -3  -1   3   40.60    1.21
   3  -1  -3   37.97    1.43
   3  -1  -3   36.67    1.22
  -3  -1   3   38.31    1.12
   3  -1  -3   39.26    1.46
   3  -1  -3   38.71    1.45
  -3  -1   3   38.56    1.53
  -3  -1   3   38.76    1.52
   3   1  -3   38.82    1.32
   3   1  -3   38.31    1.25
  -3   1   3   39.12    1.26
   3   1  -3   39.78    1.52
  -3   1   3   40.32    1.43
   3   1  -3   39.12    1.16
   2  -1  -3  136.54    4.55
  -2  -1   3  132.66    4.02
  -2  -1   3  129.12    4.11
   2  -1  -3  130.81    4.07
  -2  -1   3  133.75    3.70
   2  -1  -3  131.21    4.26
  -2  -1   3  126.09    4.63
   2  -1  -3  130.14    3.76
  -2  -1   3  129.30    4.62
  -2   1   3  132.39    4.04
   2   1  -3  130.66    4.01
   2   1  -3  137.58    3.72
  -2   1   3  129.54    3.79
  -2   1   3  132.57    4.61
   2   1  -3  130.78    4.16
  -2   1   3  129.59    4.29
   1  -1  -3    1.06    0.16
   1  -1  -3    1.07    0.06
  -1  -1   3    1.11    0.11
  -1  -1   3    1.04    0.12
   1  -1  -3    1.03    0.12
  -1  -1   3    1.08    0.08
   1  -1  -3    1.11    0.10
  -1  -1   3    1.20    0.08
   1   1  -3    0.98    0.11
  -1   1   3    1.06    0.10
  -1   1   3    1.40    0.12
   1   1  -3    1.10    0.14
  -1   1   3    0.92    0.14
   1   1  -3    0.98    0.10
   0  -1  -3   18.23    0.58
   0  -1   3   17.34    0.57
   0  -1  -3   19.05    0.69
   0  -1   3   16.81    0.69
   0  -1  -3   18.05    0.64
   0  -1  -3   17.65    0.60
   0  -1  -3   17.44    0.63
   0   1  -3   16.72    0.70
   0   1  -3   17.95    0.70
   0   1   3   17.37    0.59
   0   1   3   17.92    0.60
   0   1  -3   16.74    0.59
   1  -1   3   11.11    0.49
   1  -1   3   11.00    0.43
  -1  -1  -3   12.92    0.47
  -1  -1  -3   12.13    0.40
   1  -1   3   12.20    0.43
   1  -1   3   12.27    0.52
   1  -1   3   12.20    0.46
  -1  -1  -3   12.50    0.46
  -1  -1  -3   11.26    0.49
  -1   1  -3   11.81    0.55
  -1   1  -3   12.24    0.44
   1   1   3   12.92    0.51
   1   1   3   10.91    0.49
   1   1   3   11.81    0.41
  -1   1  -3   10.58    0.49
   1   1   3   12.30    0.45
   2  -1   3    3.39    0.21
  -2  -1  -3    3.40    0.23
  -2  -1  -3    3.41    0.18
   2  -1   3    3.53    0.22
   2  -1   3    3.47    0.24
  -2  -1  -3    3.51    0.23
  -2  -1  -3    3.28    0.15
   2   1   3    3.56    0.20
  -2   1  -3    3.48    0.30
   2   1   3    3.52    0.21
  -2   1  -3    3.45    0.20
  -2   1  -3    3.44    0.23
   2   1   3    3.47    0.24
  -2   1  -3    3.76    0.21
  -3  -1  -3  116.98    3.36
   3  -1   3  126.20    3.82
  -3  -1  -3  121.49    3.39
   3  -1   3  120.82    3.96
  -3  -1  -3  121.15    3.82
  -3  -1  -3  124.94    3.82
   3  -1   3  120.87    3.52
   3  -1   3  120.08    4.29
  -3  -1  -3  120.69    4.32
   3   1   3  123.10    3.78
   3   1   3  125.41    3.87
  -3   1  -3  123.09    3.52
   3   1   3  119.54    4.33
  -3   1  -3  120.50    3.82
  -3   1  -3  115.70    4.05
  -3   1  -3  120.20    4.25
   4  -1   3    9.84    0.51
  -4  -1  -3    9.16    0.39
   4  -1   3   10.40    0.55
   4  -1   3    9.83    0.44
  -4  -1  -3    9.89    0.54
  -4  -1  -3    9.88    0.54
  -4   1  -3    9.82    0.54
  -4   1  -3   10.13    0.44
  -4   1  -3    9.63    0.60
   4   1   3    9.80    0.48
  -4   1  -3   10.67    0.49
   4   1   3   10.77    0.59
   4   1   3   10.24    0.42
  -5  -1  -3    3.10    0.37
   5  -1   3    3.75    0.28
  -5  -1  -3    3.12    0.15
   5  -1   3    2.67    0.33
  -5  -1  -3    2.91    0.29
   5  -1   3    3.57    0.31
   5  -1   3    3.07    0.26
  -5   1  -3    3.49    0.43
  -5   1  -3    2.58    0.24
   5   1   3    2.76    0.36
  -5   1  -3    3.14    0.38
  -5   1  -3    3.03    0.25
   5   1   3    3.42    0.21
   5   1   3    3.42    0.27
   5   1   3    2.69    0.15
   6  -1   3    1.84    0.21
  -6  -1  -3    1.22    0.28
   6  -1   3    1.58    0.22
  -6  -1  -3    1.53    0.26
   6  -1   3    1.67    0.33
   6  -1   3    2.04    0.29
  -6  -1  -3    1.51    0.16
  -6  -1  -3    1.99    0.28
   6   1   3    1.82    0.13
  -6   1  -3    2.01    0.23
   6   1   3    1.57    0.32
  -6   1  -3    2.00    0.40
  -6   1  -3    1.87    0.24
  -6   1  -3    1.57    0.34
   6   1   3    1.60    0.16
   6   1   3    1.61    0.26
   7  -1   3    4.16    0.43
  -7  -1  -3    4.16    0.43
  -7  -1  -3    4.42    0.60
   7  -1   3    4.85    0.53
   7  -1   3    4.23    0.31
  -7  -1  -3    4.15    0.26
   7  -1   3    4.20    0.29
  -7  -1  -3    4.46    0.42
   7   1   3    4.11    0.39
   7   1   3    4.00    0.27
  -7   1  -3    4.21    0.66
  -7   1  -3    4.00    0.57
   7   1   3    4.38    0.21
  -7   1  -3    4.11    0.35
  -7   1  -3    3.99    0.33
   7   1   3    4.52    0.60
   8  -1   3    4.16    0.29
  -8  -1  -3    4.30    0.45
   8  -1   3    4.30    0.33
  -8  -1  -3    3.27    0.50
  -8   1  -3    4.11    0.76
  -8   1  -3    4.09    0.38
  -8   1  -3    3.96    0.37
   8   1   3    4.56    0.24
   8   1   3    4.33    0.43
   8   1   3    4.33    0.29
  -9  -1  -3    3.86    0.64
   9  -1   3    3.05    0.28
  -9  -1  -3    3.11    0.27
   9  -1   3    2.80    0.50
   9  -1   3    2.63    0.26
  -9  -1  -3    2.79    0.45
  -9   1  -3    3.26    0.69
   9   1   3    3.76    0.30
   9   1   3    2.91    0.44
  -9   1  -3    2.98    0.36
   9   1   3    2.94    0.25
  -9   1  -3    2.68    0.40
 -10  -1  -3    1.53    0.35
  10  -1   3    1.55    0.24
  10  -1   3    1.33    0.38
 -10   1  -3    1.82    0.33
  10   1   3    1.17    0.31
  10   1   3    1.38    0.23
 -11  -1  -3    0.83    0.36
  11  -1   3    1.31    0.36
  11  -1   3    1.25    0.19
  11   1   3    0.86    0.31
 -11   1  -3    0.77    0.30
  11  -2  -3    0.54    0.34
 -11  -2   3    0.18    0.25
 -11  -2   3    0.31    0.36
  11   2  -3    0.51    0.33
 -11   2   3    0.65    0.24
 -11   2   3    0.51    0.41
  10  -2  -3    2.88    0.53
  10  -2  -3    1.60    0.43
 -10  -2   3    2.55    0.33
 -10  -2   3    2.32    0.50
 -10   2   3    2.19    0.39
  10   2  -3    1.99    0.36
  -9  -2   3    3.67    0.56
   9  -2  -3    3.92    0.62
   9  -2  -3    2.27    0.66
  -9  -2   3    2.80    0.27
   9  -2  -3    3.26    0.48
   9   2  -3    2.31    0.40
  -9   2   3    2.77    0.36
  -9   2   3    2.44    0.40
   9   2  -3    3.07    0.44
   8  -2  -3    3.34    0.62
   8  -2  -3    4.05    0.52
  -8  -2   3    3.10    0.47
   8  -2  -3    2.89    0.60
   8   2  -3    4.04    0.41
  -8   2   3    4.28    0.36
   8   2  -3    3.70    0.37
  -8   2   3    3.39    0.47
  -7  -2   3    3.69    0.21
  -7  -2   3    3.39    0.52
   7  -2  -3    3.72    0.46
   7  -2  -3    3.14    0.50
   7  -2  -3    2.76    0.46
   7  -2  -3    3.21    0.36
   7  -2  -3    3.07    0.54
  -7  -2   3    3.22    0.44
  -7   2   3    3.70    0.39
  -7   2   3    3.28    0.30
   7   2  -3    3.15    0.31
   7   2  -3    3.70    0.34
  -7   2   3    4.13    0.57
   6  -2  -3    3.90    0.60
   6  -2  -3    5.62    0.50
   6  -2  -3    5.16    0.39
  -6  -2   3    4.40    0.47
   6  -2  -3    4.91    0.44
  -6  -2   3    4.68    0.22
   6  -2  -3    5.22    0.44
  -6  -2   3    4.97    0.48
   6   2  -3    4.44    0.32
  -6   2   3    4.36    0.47
  -6   2   3    4.69    0.31
   6   2  -3    4.63    0.35
   6   2  -3    4.37    0.49
  -5  -2   3    2.49    0.35
  -5  -2   3    3.30    0.16
  -5  -2   3    3.10    0.41
   5  -2  -3    3.49    0.32
   5  -2  -3    3.61    0.36
   5  -2  -3    3.43    0.42
  -5  -2   3    3.42    0.39
   5  -2  -3    3.38    0.33
   5  -2  -3    3.01    0.48
  -5   2   3    3.40    0.24
   5   2  -3    3.74    0.28
  -5   2   3    3.24    0.35
  -5   2   3    3.76    0.33
   5   2  -3    3.38    0.27
  -4  -2   3    4.55    0.41
   4  -2  -3    4.81    0.32
  -4  -2   3    4.80    0.20
   4  -2  -3    4.71    0.34
   4  -2  -3    4.11    0.42
  -4  -2   3    4.82    0.35
  -4  -2   3    4.77    0.41
   4  -2  -3    3.29    0.46
   4  -2  -3    4.16    0.35
  -4  -2   3    4.02    0.25
  -4  -2   3    4.16    0.25
  -4   2   3    4.24    0.34
   4   2  -3    4.38    0.28
  -4   2   3    4.68    0.34
  -4   2   3    4.82    0.26
   4   2  -3    4.82    0.30
   3  -2  -3   20.68    0.81
  -3  -2   3   20.64    0.66
  -3  -2   3   20.23    0.94
  -3  -2   3   19.85    0.91
   3  -2  -3   20.63    0.98
  -3  -2   3   20.49    0.77
  -3  -2   3   19.94    0.80
   3  -2  -3   20.40    0.84
   3  -2  -3   19.26    0.97
  -3   2   3   19.16    0.78
  -3   2   3   19.33    0.81
   3   2  -3   19.31    0.73
  -3   2   3   19.59    0.78
   3   2  -3   20.97    0.73
   2  -2  -3    7.17    0.52
   2  -2  -3    5.95    0.30
  -2  -2   3    7.18    0.38
   2  -2  -3    6.54    0.39
  -2  -2   3    6.16    0.29
  -2  -2   3    6.15    0.40
   2  -2  -3    7.25    0.50
  -2  -2   3    6.99    0.32
   2   2  -3    7.17    0.28
   2   2  -3    5.86    0.35
  -2   2   3    7.09    0.39
   2   2  -3    6.20    0.41
   2   2  -3    7.23    0.44
  -2   2   3    5.91    0.30
  -2   2   3    6.77    0.33
  -1  -2   3   76.45    2.64
  -1  -2   3   78.33    2.31
  -1  -2   3   80.50    2.38
   1  -2  -3   76.29    2.71
   1  -2  -3   80.81    2.71
  -1  -2   3   76.42    2.82
  -1  -2   3   78.53    2.35
   1  -2  -3   77.48    2.47
  -1   2   3   77.25    2.73
  -1   2   3   76.60    2.75
   1   2  -3   78.20    2.69
  -1   2   3   77.96    2.45
  -1   2   3   76.34    2.38
   1   2  -3   74.32    2.34
   1   2  -3   80.13    2.86
   0  -2   3    5.64    0.23
   0  -2   3    5.88    0.21
   0  -2  -3    4.55    0.26
   0  -2  -3    5.56    0.32
   0  -2  -3    6.32    0.42
   0  -2   3    5.03    0.29
   0  -2   3    5.95    0.38
   0  -2  -3    5.65    0.27
   0   2   3    6.27    0.42
   0   2  -3    5.03    0.32
   0   2   3    4.79    0.29
   0   2  -3    5.87    0.45
   0   2   3    5.59    0.31
  -1  -2  -3   32.78    1.11
   1  -2   3   34.38    1.28
  -1  -2  -3   35.31    1.29
  -1  -2  -3   31.97    1.14
   1  -2   3   34.46    1.11
   1  -2   3   33.09    1.12
  -1  -2  -3   31.16    1.26
   1  -2   3   32.22    1.15
   1  -2   3   31.43    1.30
  -1  -2  -3   34.62    1.27
  -1  -2  -3   33.15    1.10
  -1   2  -3   32.06    1.36
  -1   2  -3   34.46    1.06
   1   2   3   32.72    1.32
   1   2   3   34.44    1.10
  -1   2  -3   34.39    1.31
  -2  -2  -3   45.97    1.51
  -2  -2  -3   43.62    1.57
   2  -2   3   43.04    1.48
  -2  -2  -3   44.37    1.69
  -2  -2  -3   44.26    1.39
   2  -2   3   43.34    1.65
   2  -2   3   44.17    1.69
   2  -2   3   45.43    1.49
  -2  -2  -3   43.80    1.70
  -2   2  -3   45.99    1.47
  -2   2  -3   43.35    1.68
  -2   2  -3   44.71    1.46
  -2   2  -3   43.98    1.76
   2   2   3   44.97    1.38
   2   2   3   44.88    1.65
   2   2   3   44.59    1.48
  -3  -2  -3    9.87    0.43
  -3  -2  -3   10.21    0.56
   3  -2   3   10.23    0.50
   3  -2   3   10.01    0.53
   3  -2   3   10.25    0.59
  -3  -2  -3   10.32    0.52
   3  -2   3   10.27    0.50
  -3  -2  -3   10.26    0.38
  -3  -2  -3   10.01    0.45
  -3   2  -3   10.44    0.50
   3   2   3   10.63    0.57
  -3   2  -3   10.01    0.49
  -3   2  -3   10.72    0.51
   3   2   3   10.07    0.54
   3   2   3   10.08    0.46
  -3   2  -3   10.07    0.69
   4  -2   3    1.56    0.22
  -4  -2  -3    1.82    0.20
   4  -2   3    1.70    0.29
  -4  -2  -3    1.57    0.29
  -4  -2  -3    1.17    0.22
  -4  -2  -3    1.74    0.16
   4  -2   3    1.42    0.23
   4  -2   3    1.55    0.28
  -4   2  -3    1.57    0.27
   4   2   3    1.43    0.23
   4   2   3    1.96    0.19
  -4   2  -3    1.83    0.19
  -4   2  -3    1.34    0.22
   4   2   3    1.73    0.30
  -4   2  -3    1.46    0.34
   5  -2   3    3.29    0.32
   5  -2   3    3.45    0.36
   5  -2   3    3.15    0.38
  -5  -2  -3    3.29    0.20
  -5  -2  -3    3.09    0.24
  -5  -2  -3    3.16    0.36
   5  -2   3    3.01    0.34
  -5  -2  -3    3.48    0.42
   5   2   3    2.94    0.29
   5   2   3    2.79    0.25
  -5   2  -3    3.64    0.40
  -5   2  -3    2.77    0.29
   5   2   3    2.63    0.41
  -5   2  -3    2.93    0.50
   6  -2   3   11.27    0.69
  -6  -2  -3   11.99    0.47
   6  -2   3    9.90    0.68
   6  -2   3   10.19    0.60
  -6  -2  -3   10.57    0.46
  -6  -2  -3   10.88    0.69
   6  -2   3   11.49    0.67
   6   2   3   11.20    0.58
   6   2   3   11.07    0.58
  -6   2  -3   10.20    0.88
  -6   2  -3   10.80    0.72
  -6   2  -3   10.92    0.57
  -6   2  -3   11.61    0.60
   6   2   3   10.30    0.77
   7  -2   3    0.56    0.23
  -7  -2  -3    0.78    0.17
   7  -2   3    0.17    0.21
   7  -2   3    0.54    0.20
  -7  -2  -3    0.52    0.17
  -7  -2  -3    0.50    0.20
  -7   2  -3    0.68    0.30
   7   2   3    0.31    0.14
  -7   2  -3    0.34    0.41
  -7   2  -3    0.63    0.20
   7   2   3    0.52    0.18
  -8  -2  -3   -0.03    0.22
   8  -2   3    0.02    0.22
  -8  -2  -3    0.01    0.21
  -8  -2  -3    0.32    0.18
   8  -2   3    0.14    0.20
   8  -2   3    0.23    0.24
   8   2   3    0.09    0.15
  -8   2  -3    0.14    0.14
   8   2   3    0.07    0.17
   9  -2   3    4.64    0.60
   9  -2   3    4.60    0.48
   9  -2   3    4.24    0.45
  -9  -2  -3    4.84    0.57
  -9  -2  -3    5.01    0.65
  -9   2  -3    4.47    0.53
   9   2   3    4.16    0.43
  -9   2  -3    4.40    0.42
   9   2   3    4.67    0.46
 -10  -2  -3    2.81    0.59
  10  -2   3    4.35    0.64
  10  -2   3    3.78    0.42
 -10   2  -3    2.87    0.43
  10   2   3    3.49    0.48
 -10   2  -3    3.31    0.43
  11  -2   3   -0.10    0.43
 -11  -2  -3    0.66    0.36
  11  -2   3    0.92    0.26
  11   2   3    0.56    0.33
 -11   2  -3    0.31    0.26
  10  -3  -3    1.06    0.44
 -10  -3   3    0.18    0.39
 -10  -3   3    0.23    0.18
  10  -3  -3    0.28    0.43
 -10   3   3    0.39    0.21
 -10   3   3    0.28    0.41
  10   3  -3   -0.16    0.28
   9  -3  -3    2.31    0.47
  -9  -3   3    1.23    0.18
  -9  -3   3    1.39    0.38
   9  -3  -3    1.70    0.41
   9   3  -3    1.45    0.30
  -9   3   3    2.00    0.40
  -9   3   3    1.32    0.25
   8  -3  -3    0.38    0.30
  -8  -3   3    0.65    0.32
   8   3  -3    0.56    0.22
  -8   3   3    0.92    0.29
   8   3  -3    0.61    0.33
   7  -3  -3    3.10    0.55
  -7  -3   3    3.19    0.20
  -7  -3   3    4.23    0.55
   7  -3  -3    3.47    0.51
   7   3  -3    3.21    0.49
   7   3  -3    3.65    0.34
  -7   3   3    2.92    0.46
  -7   3   3    3.44    0.31
   6  -3  -3    0.64    0.32
  -6  -3   3    0.89    0.29
  -6  -3   3    1.24    0.30
  -6  -3   3    0.93    0.17
   6  -3  -3    0.62    0.45
  -6  -3   3    0.68    0.12
   6  -3  -3    0.79    0.22
   6  -3  -3    0.80    0.24
  -6   3   3    0.94    0.17
  -6   3   3    0.65    0.23
   6   3  -3    0.69    0.25
   6   3  -3    0.67    0.14
   5  -3  -3    5.03    0.55
   5  -3  -3    3.83    0.45
   5  -3  -3    4.30    0.43
  -5  -3   3    3.51    0.45
   5  -3  -3    3.89    0.37
  -5  -3   3    4.35    0.31
  -5  -3   3    3.73    0.31
  -5  -3   3    4.39    0.22
  -5  -3   3    4.09    0.47
   5  -3  -3    4.34    0.67
  -5   3   3    4.56    0.43
  -5   3   3    4.06    0.30
  -5   3   3    4.17    0.40
   5   3  -3    4.25    0.29
   5   3  -3    4.46    0.44
  -4  -3   3    4.79    0.26
  -4  -3   3    5.29    0.50
   4  -3  -3    5.19    0.36
  -4  -3   3    5.62    0.40
  -4  -3   3    4.77    0.38
  -4  -3   3    5.45    0.44
   4  -3  -3    4.78    0.47
   4  -3  -3    4.53    0.68
  -4  -3   3    5.05    0.47
   4  -3  -3    5.06    0.42
  -4   3   3    5.10    0.38
  -4   3   3    4.98    0.42
  -4   3   3    5.43    0.33
   4   3  -3    5.16    0.43
   4   3  -3    5.00    0.30
  -3  -3   3   20.22    0.93
   3  -3  -3   21.12    0.92
  -3  -3   3   19.08    0.98
  -3  -3   3   22.91    1.03
   3  -3  -3   22.53    0.87
  -3  -3   3   21.77    0.76
   3  -3  -3   20.94    0.92
  -3  -3   3   23.28    1.07
  -3  -3   3   20.52    0.83
   3  -3  -3   20.77    1.13
   3  -3  -3   18.86    1.11
   3   3  -3   20.69    0.76
   3   3  -3   20.50    0.87
  -3   3   3   20.45    0.83
  -3   3   3   21.02    0.93
  -3   3   3   23.32    0.89
  -2  -3   3    7.12    0.29
  -2  -3   3    6.60    0.47
  -2  -3   3    7.10    0.49
   2  -3  -3    7.72    0.69
  -2  -3   3    7.56    0.37
   2  -3  -3    7.48    0.59
  -2  -3   3    7.24    0.37
  -2  -3   3    6.49    0.49
   2  -3  -3    7.27    0.43
   2  -3  -3    6.67    0.49
  -2   3   3    6.87    0.38
  -2   3   3    7.56    0.38
   2   3  -3    8.03    0.60
   2   3  -3    6.70    0.49
  -1  -3   3    2.59    0.29
  -1  -3   3    2.67    0.23
   1  -3  -3    2.51    0.23
  -1  -3   3    2.34    0.17
   1  -3  -3    2.96    0.48
   1  -3  -3    2.73    0.20
   1  -3  -3    2.66    0.34
  -1  -3   3    2.79    0.37
   1  -3  -3    2.74    0.37
  -1  -3   3    2.67    0.15
  -1  -3   3    2.77    0.34
   1   3  -3    1.88    0.35
  -1   3   3    2.60    0.21
  -1   3   3    2.49    0.22
   1   3  -3    2.62    0.28
  -1   3   3    2.26    0.29
   0  -3  -3   92.71    2.89
   0  -3  -3   92.69    2.81
   0  -3   3   89.92    2.77
   0  -3   3   90.01    2.77
   0  -3  -3   94.00    3.32
   0  -3  -3   87.70    3.19
   0  -3  -3   86.57    3.21
   0  -3   3   86.84    2.83
   0  -3   3   88.84    3.28
   0  -3   3   91.85    3.21
   0  -3  -3   92.22    2.87
   0   3  -3   90.50    3.34
   0   3   3   87.56    3.25
   0   3   3   88.84    2.80
   0   3  -3   92.31    3.28
   1  -3   3   10.94    0.54
  -1  -3  -3   10.18    0.46
   1  -3   3   11.82    0.57
  -1  -3  -3   10.11    0.66
  -1  -3  -3   11.34    0.58
   1  -3   3    9.78    0.60
  -1  -3  -3   11.15    0.54
   1  -3   3   10.56    0.46
   1  -3   3   10.39    0.66
  -1  -3  -3   10.38    0.56
  -1  -3  -3   10.75    0.51
  -1   3  -3   10.76    0.80
  -1   3  -3   10.46    0.40
   1   3   3   10.18    0.53
   1   3   3   10.10    0.68
  -1   3  -3   11.44    0.59
  -2  -3  -3    8.98    0.44
   2  -3   3    9.74    0.64
  -2  -3  -3    9.33    0.58
  -2  -3  -3    8.93    0.51
  -2  -3  -3    9.31    0.48
  -2  -3  -3    8.82    0.54
   2  -3   3    8.58    0.48
   2  -3   3    9.09    0.45
  -2  -3  -3    8.87    0.41
  -2  -3  -3    9.26    0.51
   2  -3   3    8.66    0.59
  -2   3  -3    9.06    0.39
  -2   3  -3    8.41    0.51
   2   3   3    8.98    0.61
  -2   3  -3    9.32    0.52
  -2   3  -3    8.66    0.76
   3  -3   3   10.19    0.51
  -3  -3  -3    9.59    0.44
  -3  -3  -3    9.60    0.52
  -3  -3  -3    9.40    0.59
  -3  -3  -3    9.64    0.55
   3  -3   3    8.86    0.51
   3  -3   3    8.75    0.59
  -3  -3  -3    9.57    0.58
  -3  -3  -3    9.30    0.55
   3   3   3   10.84    0.66
  -3   3  -3   10.07    0.55
  -3   3  -3    9.48    0.47
   3   3   3    9.44    0.48
  -3   3  -3    8.68    0.52
  -3   3  -3   10.47    0.84
  -4  -3  -3   20.64    0.94
  -4  -3  -3   21.47    1.04
  -4  -3  -3   19.52    0.83
   4  -3   3   19.82    0.93
   4  -3   3   20.49    0.90
  -4  -3  -3   20.79    0.71
  -4  -3  -3   20.65    0.83
  -4  -3  -3   21.36    1.04
   4  -3   3   18.83    0.93
   4  -3   3   20.72    1.07
  -4   3  -3   19.92    1.23
   4   3   3   19.35    0.99
  -4   3  -3   22.47    0.97
  -4   3  -3   19.86    0.85
  -5  -3  -3    9.97    0.68
   5  -3   3    9.01    0.67
  -5  -3  -3   10.19    0.47
  -5  -3  -3   11.18    0.57
  -5  -3  -3    9.75    0.69
   5  -3   3   11.07    0.64
   5  -3   3   11.31    0.73
  -5  -3  -3   10.04    0.37
   5  -3   3    9.03    0.62
  -5  -3  -3    9.89    0.72
  -5   3  -3   10.41    0.59
  -5   3  -3   10.44    0.62
   5   3   3    9.40    0.53
  -5   3  -3   10.01    0.62
  -5   3  -3    9.53    0.94
   5   3   3    9.49    0.63
   6  -3   3    2.51    0.41
   6  -3   3    2.66    0.43
   6  -3   3    2.21    0.39
  -6  -3  -3    2.88    0.14
  -6  -3  -3    3.44    0.46
  -6  -3  -3    3.21    0.38
  -6  -3  -3    2.57    0.24
   6   3   3    2.41    0.40
  -6   3  -3    2.77    0.49
   6   3   3    2.57    0.53
  -6   3  -3    2.53    0.40
   6   3   3    2.34    0.30
  -7  -3  -3    0.72    0.31
  -7  -3  -3    0.67    0.14
   7  -3   3    1.18    0.29
   7   3   3    0.73    0.19
  -7   3  -3    0.77    0.20
   7   3   3    0.36    0.26
  -7   3  -3    0.51    0.25
  -8  -3  -3    0.30    0.10
   8  -3   3    0.78    0.32
   8  -3   3   -0.37    0.31
  -8  -3  -3    0.33    0.21
  -8  -3  -3   -0.02    0.26
   8   3   3    0.33    0.28
   8   3   3    0.18    0.18
  -8   3  -3    0.13    0.17
  -9  -3  -3    1.46    0.40
   9  -3   3    1.89    0.37
   9  -3   3    2.06    0.44
  -9   3  -3    1.83    0.40
   9   3   3    2.46    0.43
 -10  -3  -3    0.14    0.36
  10  -3   3    0.43    0.42
  10  -3   3    0.26    0.34
  10   3   3    0.01    0.27
 -10   3  -3    0.35    0.25
 -10   3  -3   -0.39    0.42
  -9  -4   3    5.81    0.34
   9  -4  -3    5.28    0.85
  -9  -4   3    4.35    0.80
   9  -4  -3    5.51    0.79
  -9   4   3    5.26    0.52
   9   4  -3    6.13    0.54
  -9   4   3    5.24    0.87
   8  -4  -3    3.82    0.66
   8  -4  -3    4.60    0.71
  -8  -4   3    3.95    0.26
  -8  -4   3    4.42    0.70
  -8   4   3    3.96    0.44
   8   4  -3    4.21    0.45
  -8   4   3    5.03    0.75
  -7  -4   3    4.60    0.32
   7  -4  -3    3.53    0.61
  -7  -4   3    4.55    0.69
   7  -4  -3    3.61    0.66
  -7   4   3    3.83    0.63
   7   4  -3    4.06    0.41
  -6  -4   3    0.76    0.21
  -6  -4   3    0.08    0.33
  -6  -4   3    0.60    0.11
   6  -4  -3    1.40    0.40
   6  -4  -3    0.77    0.28
  -6  -4   3   -0.02    0.30
  -6  -4   3    0.59    0.21
   6  -4  -3    0.46    0.25
   6   4  -3    0.26    0.16
  -6   4   3    0.79    0.19
  -6   4   3    0.43    0.28
  -5  -4   3   12.75    0.73
  -5  -4   3   12.47    0.51
  -5  -4   3   12.75    0.91
   5  -4  -3   11.45    0.70
   5  -4  -3   11.80    0.80
  -5  -4   3   13.83    0.79
   5  -4  -3   13.14    1.01
  -5  -4   3   12.59    0.72
  -5   4   3   11.68    0.65
  -5   4   3   11.33    0.79
   5   4  -3   13.82    0.61
  -4  -4   3    2.57    0.45
  -4  -4   3    2.60    0.50
   4  -4  -3    3.26    0.42
  -4  -4   3    3.24    0.41
  -4  -4   3    2.70    0.43
  -4  -4   3    2.84    0.56
   4  -4  -3    2.85    0.32
  -4  -4   3    2.57    0.24
  -4   4   3    2.55    0.28
  -4   4   3    3.55    0.38
   4   4  -3    3.16    0.27
  -3  -4   3   39.32    1.33
  -3  -4   3   39.39    1.71
  -3  -4   3   36.98    1.53
   3  -4  -3   38.00    1.49
  -3  -4   3   40.09    1.42
   3  -4  -3   39.85    1.88
  -3  -4   3   39.88    1.76
   3  -4  -3   40.54    1.55
  -3  -4   3   36.40    1.67
  -3  -4   3   39.08    1.29
  -3  -4   3   38.79    1.64
  -3   4   3   38.82    1.54
  -3   4   3   37.45    1.55
  -3   4   3   38.08    1.39
   2  -4  -3    5.77    0.35
   2  -4  -3    5.72    0.61
  -2  -4   3    6.16    0.38
  -2  -4   3    5.51    0.37
  -2  -4   3    4.47    0.53
  -2  -4   3    6.56    0.64
  -2  -4   3    5.42    0.72
   2  -4  -3    5.81    0.84
   2  -4  -3    5.66    0.43
  -2  -4   3    5.61    0.28
  -2  -4   3    6.53    0.52
   2  -4  -3    4.41    0.64
  -2   4   3    6.09    0.51
  -2   4   3    5.99    0.38
  -2   4   3    5.49    0.39
   2   4  -3    5.73    0.49
  -1  -4   3   26.48    1.18
   1  -4  -3   25.56    1.05
   1  -4  -3   26.37    1.42
  -1  -4   3   24.62    1.26
  -1  -4   3   26.20    1.02
   1  -4  -3   25.77    1.38
  -1  -4   3   25.88    0.93
  -1  -4   3   26.69    0.91
   1  -4  -3   24.56    1.14
   1   4  -3   26.29    1.41
  -1   4   3   25.82    1.11
  -1   4   3   25.96    1.11
  -1   4   3   23.98    0.96
   1   4  -3   26.93    1.23
   0  -4   3    0.09    0.09
   0  -4  -3    0.32    0.37
   0  -4  -3    0.29    0.27
   0  -4   3    0.03    0.26
   0  -4  -3    0.16    0.13
   0  -4  -3    0.00    0.26
   0  -4   3    0.21    0.16
   0  -4   3    0.32    0.16
   0  -4  -3    0.12    0.14
   0  -4   3    0.03    0.09
   0  -4  -3   -0.01    0.09
   0   4  -3    0.17    0.14
   0   4   3    0.08    0.16
   0   4  -3    0.22    0.41
   0   4   3    0.16    0.13
   1  -4   3    1.52    0.22
  -1  -4  -3    1.43    0.40
  -1  -4  -3    1.60    0.28
  -1  -4  -3    1.84    0.38
   1  -4   3    1.34    0.24
  -1  -4  -3    1.11    0.23
  -1  -4  -3    0.83    0.31
   1  -4   3    1.73    0.38
  -1  -4  -3    1.56    0.29
   1  -4   3    1.50    0.37
   1  -4   3    1.25    0.23
  -1   4  -3    1.34    0.27
  -1   4  -3    1.54    0.55
   2  -4   3    3.36    0.34
   2  -4   3    3.48    0.47
  -2  -4  -3    3.15    0.36
  -2  -4  -3    3.39    0.52
  -2  -4  -3    3.09    0.32
  -2  -4  -3    3.50    0.50
  -2  -4  -3    3.46    0.27
   2  -4   3    3.17    0.31
  -2  -4  -3    2.95    0.54
   2  -4   3    2.99    0.38
  -2  -4  -3    3.65    0.41
  -2  -4  -3    3.66    0.38
   2  -4   3    3.04    0.53
  -2   4  -3    3.73    0.37
  -2   4  -3    2.63    0.58
  -2   4  -3    3.25    0.24
  -3  -4  -3    2.25    0.43
  -3  -4  -3    2.02    0.34
  -3  -4  -3    2.10    0.23
  -3  -4  -3    3.07    0.30
  -3  -4  -3    2.47    0.40
  -3  -4  -3    2.46    0.40
  -3  -4  -3    2.72    0.40
   3  -4   3    2.24    0.45
   3  -4   3    2.21    0.31
   3  -4   3    1.91    0.29
  -3  -4  -3    2.77    0.41
  -3   4  -3    2.23    0.37
  -3   4  -3    2.32    0.31
  -3   4  -3    2.18    0.25
  -4  -4  -3    1.43    0.33
   4  -4   3    1.34    0.31
   4  -4   3    1.27    0.24
  -4  -4  -3    1.56    0.33
  -4  -4  -3    1.59    0.21
  -4  -4  -3    0.58    0.34
  -4  -4  -3    1.32    0.34
  -4  -4  -3    1.25    0.29
  -4   4  -3    1.57    0.29
  -5  -4  -3    0.85    0.30
  -5  -4  -3    1.08    0.17
  -5  -4  -3    0.91    0.32
   5  -4   3    1.12    0.38
  -5  -4  -3    0.88    0.26
   5   4   3    1.20    0.23
  -5   4  -3    0.72    0.24
  -5   4  -3    1.20    0.24
  -5   4  -3    1.02    0.28
  -6  -4  -3    0.32    0.08
   6  -4   3    0.48    0.27
   6  -4   3    1.05    0.35
  -6  -4  -3    0.03    0.26
  -6  -4  -3    0.52    0.35
  -6  -4  -3    0.45    0.20
  -6   4  -3    0.57    0.28
   6   4   3    0.31    0.19
  -6   4  -3    0.62    0.30
  -6   4  -3    0.51    0.18
  -7  -4  -3    2.88    0.17
  -7  -4  -3    4.30    0.65
   7  -4   3    2.75    0.51
   7  -4   3    2.53    0.43
  -7   4  -3    3.87    0.55
  -7   4  -3    2.87    0.43
  -8  -4  -3    1.84    0.48
  -8  -4  -3    2.61    0.54
   8  -4   3    1.94    0.49
   8   4   3    2.26    0.41
  -8   4  -3    2.56    0.44
  -8   4  -3    2.04    0.44
   9  -4   3    0.30    0.46
   9  -4   3    2.07    0.53
  -9  -4  -3    0.84    0.43
  -9   4  -3    1.39    0.32
   8  -5  -3    1.39    0.52
  -8  -5   3    1.34    0.22
  -8  -5   3    1.31    0.54
   8  -5  -3    1.37    0.68
  -8   5   3    0.96    0.32
  -8   5   3    0.62    0.53
  -7  -5   3    0.55    0.46
   7  -5  -3    0.43    0.62
  -7   5   3    0.47    0.49
   6  -5  -3    0.03    0.54
   6  -5  -3   -0.20    0.34
  -6  -5   3    0.13    0.38
  -6  -5   3    0.12    0.12
  -6  -5   3    0.01    0.29
  -6   5   3   -0.20    0.19
  -6   5   3    0.46    0.41
  -5  -5   3    1.85    0.48
   5  -5  -3    1.70    0.57
  -5  -5   3    1.47    0.22
  -5  -5   3    1.70    0.45
  -5  -5   3    1.71    0.23
  -5   5   3    2.51    0.48
   4  -5  -3    0.95    0.26
   4  -5  -3    1.37    0.35
  -4  -5   3    0.84    0.39
   4  -5  -3    1.39    0.51
  -4  -5   3    1.34    0.36
  -4  -5   3    1.52    0.56
  -4  -5   3    1.51    0.20
  -4  -5   3    1.08    0.36
  -4  -5   3    1.51    0.25
  -4   5   3    1.17    0.36
  -4   5   3    0.93    0.20
  -3  -5   3    1.21    0.64
   3  -5  -3    0.62    0.25
  -3  -5   3    0.89    0.30
  -3  -5   3    0.52    0.12
  -3  -5   3   -0.02    0.32
   3  -5  -3    0.82    0.21
   3  -5  -3    0.46    0.47
  -3  -5   3    0.14    0.26
  -3   5   3    0.43    0.20
  -3   5   3   -0.10    0.28
  -2  -5   3    8.27    0.51
   2  -5  -3    8.16    0.52
  -2  -5   3    6.79    0.75
   2  -5  -3    8.31    0.60
  -2  -5   3    8.52    0.42
   2  -5  -3    9.71    0.94
  -2  -5   3    8.33    0.54
  -2   5   3    7.79    0.64
  -2   5   3    8.27    0.58
   2   5  -3    8.42    0.68
  -1  -5   3    2.16    0.33
   1  -5  -3    1.65    0.51
  -1  -5   3    1.70    0.25
  -1  -5   3    2.12    0.33
   1  -5  -3    2.30    0.32
   1  -5  -3    1.88    0.29
   1   5  -3    1.60    0.32
  -1   5   3    2.14    0.36
  -1   5   3    1.58    0.29
   0  -5   3    5.26    0.37
   0  -5  -3    6.15    0.43
   0  -5   3    5.97    0.41
   0  -5  -3    4.69    0.80
   0  -5   3    6.16    0.53
   0  -5  -3    4.73    0.46
   0  -5   3    4.83    0.66
   0   5  -3    6.15    0.55
   0   5   3    5.46    0.49
   0   5   3    5.57    0.52
  -1  -5  -3    0.49    0.41
   1  -5   3    0.88    0.38
  -1  -5  -3    0.43    0.24
  -1  -5  -3    0.24    0.21
  -1  -5  -3    0.48    0.22
   1  -5   3    0.29    0.17
  -1  -5  -3    0.58    0.14
   1  -5   3    0.30    0.25
  -1   5  -3    0.35    0.23
   2  -5   3    3.53    0.50
   2  -5   3    4.69    0.66
   2  -5   3    3.48    0.41
  -2  -5  -3    3.98    0.72
  -2  -5  -3    4.23    0.52
  -2  -5  -3    4.47    0.57
  -2   5  -3    4.69    0.47
  -3  -5  -3    0.38    0.27
   3  -5   3    0.17    0.25
  -3  -5  -3   -0.30    0.39
  -3  -5  -3   -0.12    0.12
  -3  -5  -3    0.10    0.20
   3  -5   3    0.19    0.20
   3  -5   3   -0.07    0.33
  -3   5  -3    0.31    0.16
  -3   5  -3    0.06    0.20
   4  -5   3    4.38    0.73
  -4  -5  -3    5.78    0.67
   4  -5   3    6.59    0.64
  -4  -5  -3    4.94    0.38
  -4  -5  -3    5.13    0.39
   4  -5   3    5.79    0.55
  -4   5  -3    5.15    0.45
  -4   5  -3    6.11    0.53
  -5  -5  -3    1.62    0.28
  -5  -5  -3    1.86    0.32
   5  -5   3    1.76    0.35
   5  -5   3    2.25    0.54
  -5   5  -3    1.71    0.38
  -5   5  -3    1.63    0.31
  -6  -5  -3    0.96    0.17
   6  -5   3    1.56    0.51
  -6  -5  -3    1.14    0.23
  -6   5  -3    1.56    0.42
  -6   5  -3    0.38    0.29
  -7  -5  -3   -0.25    0.40
   7  -5   3   -0.15    0.50
   7  -5   3    0.03    0.39
  -7   5  -3    0.60    0.44
  -5  -6   3   -0.14    0.18
   5  -6  -3   -0.56    0.43
  -5  -6   3   -0.07    0.49
  -5   6   3    0.32    0.28
   4  -6  -3   -0.50    0.65
  -4  -6   3   -0.02    0.43
  -4  -6   3    0.15    0.19
   4  -6  -3    0.17    0.36
  -4   6   3   -0.62    0.39
  -4   6   3   -0.01    0.27
  -3  -6   3    0.32    0.24
  -3  -6   3    0.95    0.43
   3  -6  -3    0.76    0.37
   3  -6  -3    1.45    0.66
  -3  -6   3    1.50    0.47
  -3   6   3    0.63    0.39
  -3   6   3    0.61    0.28
  -2  -6   3    1.30    0.28
   2  -6  -3    0.28    0.31
   2  -6  -3    0.55    0.62
  -2  -6   3    0.65    0.46
  -2  -6   3    1.28    0.41
  -2   6   3    1.08    0.37
  -2   6   3    0.88    0.30
  -1  -6   3    0.69    0.47
   1  -6  -3    0.69    0.65
  -1  -6   3    0.96    0.30
  -1  -6   3    0.58    0.22
   1  -6  -3    0.56    0.28
  -1   6   3    0.28    0.29
  -1   6   3   -0.07    0.34
   1   6  -3    0.37    0.33
   0  -6  -3    1.16    0.27
   0  -6   3    1.47    0.33
   0  -6   3    1.67    0.30
   0  -6   3    2.24    0.52
   0  -6  -3    1.40    0.40
   0  -6  -3    1.33    0.35
   0   6  -3    1.39    0.36
  -1  -6  -3   -0.17    0.36
  -1  -6  -3    0.22    0.31
  -1  -6  -3    0.35    0.58
   1  -6   3    0.65    0.48
   1  -6   3    1.30    0.40
   1  -6   3   -0.37    0.27
  -1  -6  -3    0.27    0.21
  -1   6  -3    0.21    0.30
  -2  -6  -3    1.46    0.59
   2  -6   3    0.82    0.36
  -2  -6  -3    1.61    0.35
   2  -6   3    0.72    0.54
  -2  -6  -3    0.78    0.24
  -2  -6  -3    1.07    0.44
  -2   6  -3    0.84    0.32
  -3  -6  -3    0.79    0.39
   3  -6   3    0.72    0.52
   3  -6   3    0.42    0.41
  -3  -6  -3   -0.07    0.60
  -3  -6  -3    0.33    0.20
  -3  -6  -3    0.37    0.26
  -3   6  -3    0.26    0.33
   4  -6   3    0.42    0.55
   4  -6   3    0.36    0.44
  -4  -6  -3    0.86    0.46
  -4  -6  -3    0.60    0.25
  -4  -6  -3    0.42    0.20
  -4  -6  -3   -1.03    0.63
  -4   6  -3    0.00    0.32
 -12   0   4    1.11    0.37
  12   0  -4    1.06    0.47
 -12   0   4    1.62    0.40
  11   0  -4    0.35    0.35
 -11   0   4    0.21    0.28
 -11   0   4    0.54    0.30
 -10   0   4    1.90    0.32
  10   0  -4    1.73    0.36
 -10   0   4    1.49    0.31
  -9   0   4    0.83    0.21
  -9   0   4    1.21    0.26
   9   0  -4    1.14    0.16
   9   0  -4    1.54    0.29
   9   0  -4    0.76    0.35
  -8   0   4    8.05    0.48
   8   0  -4    8.01    0.74
   8   0  -4    9.89    0.67
   8   0  -4    7.77    0.44
   8   0  -4    8.22    0.35
  -8   0   4    8.23    0.59
   7   0  -4    2.48    0.27
  -7   0   4    3.47    0.47
  -7   0   4    2.93    0.26
   7   0  -4    3.56    0.47
   7   0  -4    2.92    0.37
   7   0  -4    2.82    0.19
   6   0  -4    2.21    0.21
   6   0  -4    2.53    0.36
  -6   0   4    2.42    0.37
   6   0  -4    2.00    0.15
   6   0  -4    2.36    0.23
   6   0  -4    2.44    0.30
  -6   0   4    2.07    0.20
  -5   0   4    8.38    0.50
  -5   0   4    8.45    0.51
  -5   0   4    8.35    0.38
   5   0  -4    7.90    0.49
   5   0  -4    8.41    0.31
   5   0  -4    8.46    0.42
   5   0  -4    8.06    0.52
   5   0  -4    8.36    0.37
   4   0  -4  119.80    3.37
  -4   0   4  121.59    3.43
   4   0  -4  121.98    3.83
   4   0  -4  122.41    4.29
  -4   0   4  122.85    4.28
  -4   0   4  114.03    3.78
   4   0  -4  115.99    3.83
   4   0  -4  116.16    3.77
  -3   0   4    1.78    0.19
   3   0  -4    1.57    0.18
  -3   0   4    1.98    0.18
   3   0  -4    1.80    0.12
   3   0  -4    1.66    0.10
  -3   0   4    1.61    0.12
   3   0  -4    1.68    0.17
  -3   0   4    1.32    0.16
  -2   0   4    5.93    0.24
   2   0  -4    6.39    0.22
  -2   0   4    6.47    0.29
  -2   0   4    7.00    0.30
  -2   0   4    5.91    0.32
   2   0  -4    6.45    0.32
  -2   0   4    5.94    0.31
   2   0  -4    6.78    0.25
   1   0  -4    2.02    0.13
   1   0  -4    2.19    0.09
   1   0  -4    1.90    0.10
  -1   0   4    2.01    0.12
   1   0  -4    1.91    0.13
  -1   0   4    2.03    0.12
  -1   0   4    1.88    0.11
   0   0  -4  949.99   28.03
   0   0  -4  871.58   31.99
   0   0  -4  921.23   25.89
   0   0  -4  951.50   28.08
   0   0   4  930.58   31.98
   0   0  -4  964.07   29.08
   1   0   4   67.43    2.25
  -1   0  -4   63.23    1.99
  -1   0  -4   66.35    1.81
   1   0   4   62.90    1.78
  -1   0  -4   59.49    2.04
  -1   0  -4   66.77    2.24
   1   0   4   61.46    2.03
   2   0   4   31.40    0.98
   2   0   4   29.49    0.87
   2   0   4   28.42    1.12
  -2   0  -4   28.01    1.09
   2   0   4   28.04    0.83
  -2   0  -4   29.00    1.02
   2   0   4   30.02    0.99
  -2   0  -4   29.98    1.02
   3   0   4    5.19    0.30
   3   0   4    6.17    0.19
   3   0   4    5.15    0.24
   3   0   4    5.66    0.21
  -3   0  -4    5.07    0.31
  -4   0  -4   12.30    0.56
  -4   0  -4   10.51    0.55
   4   0   4   12.04    0.37
   4   0   4   12.61    0.63
   4   0   4   10.89    0.53
   4   0   4   11.31    0.44
  -4   0  -4   11.34    0.59
  -5   0  -4    0.60    0.13
  -5   0  -4    0.55    0.21
  -5   0  -4    0.64    0.10
  -5   0  -4    0.15    0.19
   5   0   4    0.58    0.07
   5   0   4    0.66    0.10
   5   0   4    0.76    0.21
   5   0   4    0.56    0.15
   6   0   4   13.51    0.84
   6   0   4   14.19    0.44
  -6   0  -4   14.48    0.53
   6   0   4   15.47    0.56
  -6   0  -4   14.04    0.78
  -6   0  -4   15.58    0.85
  -7   0  -4   -0.11    0.27
  -7   0  -4    0.41    0.13
   7   0   4   -0.01    0.27
   7   0   4    0.51    0.08
   7   0   4    0.65    0.11
   7   0   4    0.53    0.15
  -7   0  -4    0.82    0.30
  -8   0  -4    0.91    0.15
   8   0   4    0.77    0.20
   8   0   4    0.46    0.11
   8   0   4    0.54    0.07
  -8   0  -4    0.58    0.17
  -8   0  -4    0.63    0.36
  -9   0  -4    0.01    0.15
   9   0   4    0.20    0.21
   9   0   4    0.22    0.10
  -9   0  -4    1.06    0.51
  -9   0  -4    0.10    0.18
   9   0   4    0.14    0.07
  10   0   4    1.65    0.23
  10   0   4    1.22    0.36
 -10   0  -4    1.60    0.33
  11   0   4    0.80    0.38
 -11   0  -4    0.72    0.28
 -12  -1   4    0.32    0.39
 -12  -1   4    0.22    0.33
 -12   1   4    0.33    0.29
 -12   1   4    0.57    0.42
  12   1  -4    0.26    0.39
 -11  -1   4    0.45    0.32
 -11  -1   4    0.63    0.27
 -11   1   4    1.02    0.34
  11   1  -4    0.16    0.38
 -11   1   4    0.03    0.24
 -10  -1   4    3.01    0.55
  10  -1  -4    4.35    0.39
 -10  -1   4    4.62    0.41
 -10   1   4    4.44    0.48
 -10   1   4    4.47    0.52
  10   1  -4    3.81    0.57
   9  -1  -4    4.02    0.55
   9  -1  -4    4.11    0.40
  -9  -1   4    4.69    0.36
  -9  -1   4    4.12    0.52
   9  -1  -4    4.98    0.67
   9   1  -4    5.08    0.54
   9   1  -4    4.09    0.31
  -9   1   4    4.00    0.46
  -9   1   4    5.04    0.46
   8  -1  -4    7.30    0.38
  -8  -1   4    6.19    0.70
   8  -1  -4    6.97    0.64
   8  -1  -4    6.69    0.49
   8  -1  -4    7.14    0.69
  -8  -1   4    7.68    0.65
   8   1  -4    7.81    0.57
  -8   1   4    7.85    0.53
   8   1  -4    7.24    0.35
  -8   1   4    7.60    0.52
   7  -1  -4   11.03    0.71
  -7  -1   4   10.49    0.72
  -7  -1   4   10.76    0.46
   7  -1  -4   11.05    0.69
  -7  -1   4   10.43    0.71
   7  -1  -4   11.15    0.62
   7  -1  -4   10.09    0.46
   7  -1  -4    9.61    0.70
  -7   1   4   10.46    0.60
   7   1  -4   11.44    0.68
  -7   1   4   10.54    0.73
   7   1  -4   10.11    0.41
   7   1  -4    9.81    0.75
   6  -1  -4    2.43    0.39
   6  -1  -4    1.94    0.30
  -6  -1   4    2.98    0.19
  -6  -1   4    2.89    0.34
   6  -1  -4    2.84    0.23
   6  -1  -4    3.34    0.37
  -6  -1   4    2.41    0.38
   6  -1  -4    2.30    0.33
   6   1  -4    2.18    0.30
   6   1  -4    3.28    0.41
  -6   1   4    2.08    0.38
   6   1  -4    2.82    0.19
  -6   1   4    2.70    0.28
  -6   1   4    2.94    0.28
  -5  -1   4    0.56    0.18
   5  -1  -4    0.23    0.13
   5  -1  -4    0.60    0.16
  -5  -1   4    0.49    0.16
   5  -1  -4    0.38    0.13
   5  -1  -4    0.44    0.11
  -5  -1   4    0.47    0.08
   5  -1  -4    0.24    0.19
  -5   1   4    0.39    0.12
   5   1  -4    0.38    0.08
   5   1  -4    0.15    0.13
  -5   1   4    0.33    0.17
  -5   1   4    0.54    0.12
   5   1  -4    0.21    0.13
   4  -1  -4   19.59    0.84
  -4  -1   4   19.27    0.79
   4  -1  -4   18.59    0.83
   4  -1  -4   19.72    0.84
  -4  -1   4   18.90    0.90
  -4  -1   4   18.71    0.59
   4  -1  -4   19.40    0.86
   4  -1  -4   18.46    0.66
   4   1  -4   18.81    0.62
  -4   1   4   19.15    0.79
   4   1  -4   19.13    0.77
   4   1  -4   18.25    0.87
  -4   1   4   18.59    0.73
  -4   1   4   19.31    0.80
   3  -1  -4  111.78    4.01
  -3  -1   4  110.29    3.21
  -3  -1   4  115.14    3.56
  -3  -1   4  118.22    3.57
   3  -1  -4  119.07    3.76
   3  -1  -4  117.60    3.63
  -3  -1   4  111.33    4.09
   3  -1  -4  110.33    3.28
   3   1  -4  114.81    3.60
  -3   1   4  111.57    3.58
  -3   1   4  112.34    3.34
  -3   1   4  115.07    3.79
   3   1  -4  114.34    3.56
  -2  -1   4   29.84    0.85
  -2  -1   4   27.71    0.93
   2  -1  -4   30.92    1.06
  -2  -1   4   30.28    1.14
   2  -1  -4   27.93    0.91
  -2  -1   4   28.66    0.96
   2  -1  -4   26.77    1.01
   2  -1  -4   26.29    1.07
  -2   1   4   28.27    0.98
  -2   1   4   29.12    0.95
   2   1  -4   27.97    0.96
   2   1  -4   31.28    1.16
   2   1  -4   30.05    0.89
  -2   1   4   30.41    1.03
  -2   1   4   26.23    1.10
   2   1  -4   26.60    0.99
   1  -1  -4   63.68    1.90
  -1  -1   4   65.34    1.96
  -1  -1   4   64.11    1.86
   1  -1  -4   67.10    2.05
  -1  -1   4   63.75    2.33
   1  -1  -4   63.02    2.16
  -1   1   4   66.10    2.03
   1   1  -4   65.00    2.35
  -1   1   4   62.74    2.20
   1   1  -4   63.50    2.14
  -1   1   4   65.15    1.93
   1   1  -4   68.12    1.90
   0  -1  -4   69.36    2.34
   0  -1   4   69.35    2.42
   0  -1  -4   66.95    2.23
   0  -1  -4   67.85    1.97
   0  -1   4   66.65    2.22
   0  -1   4   68.08    1.97
   0  -1  -4   67.99    2.12
   0   1  -4   70.46    2.00
   0   1   4   69.83    2.28
   0   1  -4   68.24    2.28
   0   1  -4   66.60    2.44
   0   1   4   70.54    2.35
   0   1   4   62.14    2.10
   1  -1   4  196.94    6.07
   1  -1   4  194.11    5.63
  -1  -1  -4  204.61    6.89
  -1  -1  -4  208.45    6.29
  -1  -1  -4  199.51    6.08
  -1  -1  -4  204.63    5.59
   1  -1   4  197.85    6.94
  -1   1  -4  196.71    5.66
   1   1   4  203.10    5.62
   1   1   4  208.07    6.35
  -1   1  -4  192.48    6.38
  -1   1  -4  196.93    6.98
   1   1   4  192.77    6.07
   1   1   4  203.23    6.91
  -1   1  -4  203.11    6.04
  -2  -1  -4    1.32    0.08
   2  -1   4    1.27    0.14
   2  -1   4    1.44    0.17
  -2  -1  -4    1.40    0.11
  -2  -1  -4    1.36    0.14
   2  -1   4    1.20    0.13
   2  -1   4    1.17    0.12
   2   1   4    1.13    0.12
  -2   1  -4    1.15    0.12
   2   1   4    1.10    0.09
  -2   1  -4    1.09    0.16
   2   1   4    1.21    0.17
   2   1   4    1.28    0.13
  -3  -1  -4   23.99    0.78
   3  -1   4   22.20    0.78
  -3  -1  -4   23.73    0.88
  -3  -1  -4   19.38    0.91
   3  -1   4   21.39    0.92
   3  -1   4   23.74    0.88
   3  -1   4   23.52    0.85
  -3   1  -4   22.73    0.88
   3   1   4   19.86    0.94
  -3   1  -4   19.15    0.87
  -3   1  -4   23.15    0.98
   3   1   4   23.26    0.82
   3   1   4   22.38    0.82
   4  -1   4    1.25    0.19
  -4  -1  -4    1.54    0.20
   4  -1   4    1.49    0.18
   4  -1   4    1.48    0.23
  -4  -1  -4    1.75    0.27
   4  -1   4    1.52    0.20
  -4  -1  -4    1.44    0.14
  -4   1  -4    1.67    0.16
   4   1   4    1.45    0.15
   4   1   4    1.82    0.27
  -4   1  -4    1.63    0.27
  -4   1  -4    1.62    0.16
  -4   1  -4    1.65    0.32
   4   1   4    1.78    0.18
   5  -1   4   14.11    0.75
   5  -1   4   13.42    0.63
   5  -1   4   13.56    0.56
  -5  -1  -4   14.37    0.73
   5  -1   4   13.85    0.67
  -5  -1  -4   13.77    0.58
   5   1   4   12.98    0.56
  -5   1  -4   13.82    0.80
  -5   1  -4   13.55    0.73
   5   1   4   14.47    0.65
  -5   1  -4   14.76    0.66
  -5   1  -4   13.49    0.56
   5   1   4   15.60    0.81
   6  -1   4    0.78    0.19
   6  -1   4    0.86    0.22
  -6  -1  -4    0.87    0.24
   6  -1   4    1.07    0.18
  -6  -1  -4    0.94    0.20
   6   1   4    1.02    0.16
  -6   1  -4    0.81    0.16
   6   1   4    1.19    0.23
  -6   1  -4    0.80    0.31
  -6   1  -4    0.81    0.27
  -6   1  -4    1.30    0.20
  -7  -1  -4   14.50    0.78
   7  -1   4   13.92    0.56
  -7  -1  -4   13.92    0.75
   7  -1   4   14.91    0.78
  -7   1  -4   11.98    0.87
   7   1   4   12.52    0.92
  -7   1  -4   14.27    0.72
   7   1   4   14.28    0.71
  -7   1  -4   13.44    0.60
  -7   1  -4   13.68    0.96
   7   1   4   13.16    0.59
   8  -1   4    2.48    0.41
  -8  -1  -4    2.49    0.39
   8  -1   4    2.13    0.25
   8  -1   4    2.77    0.26
  -8  -1  -4    2.76    0.55
  -8   1  -4    2.20    0.32
   8   1   4    3.16    0.36
   8   1   4    2.42    0.25
  -8   1  -4    2.27    0.56
  -8   1  -4    2.13    0.32
   9  -1   4    1.49    0.23
  -9  -1  -4    2.12    0.40
   9  -1   4    1.24    0.17
   9  -1   4    1.41    0.30
  -9  -1  -4    1.32    0.44
   9   1   4    2.09    0.39
  -9   1  -4    1.24    0.25
  -9   1  -4    0.99    0.22
 -10  -1  -4    0.66    0.29
  10  -1   4    1.14    0.32
  10  -1   4    0.73    0.16
 -10   1  -4    0.00    0.26
  10   1   4    0.94    0.27
 -10   1  -4    0.68    0.24
  11  -1   4    0.85    0.38
 -11  -1  -4    0.38    0.30
  11  -1   4    0.20    0.16
  11   1   4    0.38    0.33
 -11   1  -4    0.43    0.25
 -11  -2   4   -0.13    0.24
  11  -2  -4   -0.04    0.43
  11  -2  -4   -0.03    0.38
  11   2  -4    0.72    0.35
 -11   2   4   -0.21    0.23
 -10  -2   4    1.02    0.35
  10  -2  -4    1.32    0.35
 -10   2   4    0.96    0.38
  10   2  -4    1.67    0.31
   9  -2  -4    1.07    0.34
  -9  -2   4    2.11    0.24
  -9  -2   4    1.67    0.35
   9  -2  -4    1.94    0.62
   9  -2  -4    1.53    0.37
   9   2  -4    2.14    0.41
   9   2  -4    2.09    0.32
  -9   2   4    1.90    0.34
  -8  -2   4    1.27    0.18
  -8  -2   4    0.92    0.27
   8  -2  -4    1.17    0.31
   8  -2  -4    1.34    0.30
   8  -2  -4    1.17    0.48
  -8   2   4    1.74    0.26
   8   2  -4    1.06    0.24
  -8   2   4    0.98    0.28
   8   2  -4    1.40    0.26
  -7  -2   4    4.61    0.59
   7  -2  -4    4.81    0.55
   7  -2  -4    4.08    0.54
   7  -2  -4    5.11    0.41
  -7  -2   4    4.85    0.52
   7  -2  -4    5.27    0.51
   7  -2  -4    4.78    0.66
   7   2  -4    5.84    0.42
   7   2  -4    5.70    0.39
  -7   2   4    5.36    0.47
  -6  -2   4   10.41    0.74
  -6  -2   4   10.65    0.68
   6  -2  -4    9.07    0.77
  -6  -2   4   10.84    0.39
   6  -2  -4   11.23    0.74
   6  -2  -4    9.72    0.66
  -6  -2   4   11.04    0.74
   6  -2  -4   10.94    0.56
   6  -2  -4   10.99    0.68
  -6   2   4   10.73    0.53
   6   2  -4   10.88    0.51
  -6   2   4   11.24    0.62
   6   2  -4   11.23    0.57
  -6   2   4   10.67    0.66
  -5  -2   4   17.92    0.84
  -5  -2   4   19.00    0.60
   5  -2  -4   19.39    0.87
   5  -2  -4   17.66    0.89
  -5  -2   4   19.52    0.98
   5  -2  -4   17.43    0.99
  -5  -2   4   18.83    0.98
   5  -2  -4   17.02    0.95
   5  -2  -4   18.67    0.76
   5   2  -4   18.46    0.77
  -5   2   4   18.83    0.77
   5   2  -4   18.79    0.71
  -5   2   4   18.24    0.84
  -5   2   4   18.59    0.82
  -4  -2   4   33.34    1.43
  -4  -2   4   34.80    1.02
   4  -2  -4   33.72    1.44
   4  -2  -4   33.11    1.17
  -4  -2   4   33.26    1.17
  -4  -2   4   32.73    1.25
   4  -2  -4   33.77    1.33
  -4  -2   4   33.35    1.12
   4  -2  -4   33.83    1.46
   4  -2  -4   34.00    1.32
  -4  -2   4   32.67    1.45
   4   2  -4   34.50    1.18
   4   2  -4   34.61    1.13
  -4   2   4   34.46    1.24
  -4   2   4   32.62    1.24
  -4   2   4   32.93    1.25
  -3  -2   4   26.12    0.81
   3  -2  -4   25.25    1.17
   3  -2  -4   24.61    1.14
   3  -2  -4   25.63    1.02
  -3  -2   4   25.72    1.14
   3  -2  -4   25.01    0.93
   3  -2  -4   26.10    0.99
  -3  -2   4   26.85    1.12
  -3  -2   4   25.57    0.94
  -3   2   4   26.65    0.96
   3   2  -4   26.24    0.91
   3   2  -4   25.68    0.88
  -3   2   4   24.38    0.95
  -3   2   4   25.65    0.98
   3   2  -4   24.02    0.99
  -2  -2   4   79.41    2.97
   2  -2  -4   84.18    2.65
  -2  -2   4   78.52    2.37
   2  -2  -4   80.01    2.84
   2  -2  -4   81.41    2.47
   2  -2  -4   82.29    2.84
  -2  -2   4   85.37    2.53
  -2  -2   4   83.78    2.70
  -2   2   4   77.78    2.84
   2   2  -4   83.51    2.48
  -2   2   4   80.88    2.57
   2   2  -4   81.14    2.77
  -2   2   4   80.26    2.89
  -2   2   4   78.21    2.50
   2   2  -4   81.68    3.01
   2   2  -4   80.24    2.45
  -1  -2   4   43.38    1.62
  -1  -2   4   43.36    1.52
   1  -2  -4   43.25    1.48
   1  -2  -4   44.87    1.42
  -1  -2   4   41.52    1.31
   1  -2  -4   43.82    1.60
   1  -2  -4   41.38    1.36
  -1   2   4   39.64    1.50
  -1   2   4   42.20    1.38
   1   2  -4   39.21    1.63
   1   2  -4   40.90    1.37
  -1   2   4   40.04    1.63
   1   2  -4   41.45    1.58
  -1   2   4   40.95    1.39
   0  -2   4   18.79    0.73
   0  -2   4   17.97    0.77
   0  -2  -4   17.15    0.69
   0  -2  -4   17.88    0.67
   0  -2  -4   18.17    0.69
   0  -2  -4   18.74    0.72
   0  -2   4   17.26    0.66
   0  -2  -4   18.50    0.81
   0  -2  -4   18.95    0.71
   0  -2   4   18.86    0.80
   0   2  -4   18.38    0.80
   0   2   4   17.30    0.69
   0   2  -4   17.29    0.88
   0   2   4   18.77    0.87
  -1  -2  -4  102.27    3.44
  -1  -2  -4  104.65    3.28
  -1  -2  -4  101.53    3.23
   1  -2   4   99.24    3.69
  -1  -2  -4  106.68    3.72
   1  -2   4  106.27    3.53
   1  -2   4  108.25    3.20
   1  -2   4  104.59    3.14
  -1  -2  -4  104.23    3.67
   1  -2   4  105.09    3.09
  -1  -2  -4  105.81    3.06
   1   2   4  102.80    3.54
  -1   2  -4  103.59    3.75
  -1   2  -4  104.07    3.60
  -1   2  -4  105.65    3.17
   1   2   4  105.10    3.07
   2  -2   4   44.95    1.52
   2  -2   4   46.43    1.70
  -2  -2  -4   44.98    1.41
  -2  -2  -4   46.88    1.74
   2  -2   4   44.75    1.47
  -2  -2  -4   46.82    1.59
   2  -2   4   48.02    1.52
   2  -2   4   45.40    1.71
  -2   2  -4   45.62    1.73
  -2   2  -4   44.26    1.49
   2   2   4   44.04    1.69
   2   2   4   43.07    1.52
   2   2   4   45.28    1.41
   2   2   4   44.97    1.72
   3  -2   4   31.13    1.15
  -3  -2  -4   33.19    1.14
   3  -2   4   31.61    1.16
   3  -2   4   31.69    1.31
  -3  -2  -4   32.06    1.03
  -3  -2  -4   31.42    1.19
  -3  -2  -4   33.56    1.34
   3  -2   4   33.87    1.28
   3   2   4   32.11    1.15
  -3   2  -4   32.98    1.29
   3   2   4   33.10    1.34
   3   2   4   31.41    1.26
  -3   2  -4   32.27    1.17
  -3   2  -4   30.36    1.42
  -3   2  -4   32.16    1.14
  -4  -2  -4    4.20    0.17
   4  -2   4    4.17    0.34
  -4  -2  -4    4.17    0.38
  -4  -2  -4    4.75    0.38
   4  -2   4    4.18    0.37
  -4  -2  -4    4.10    0.24
   4  -2   4    3.90    0.37
  -4  -2  -4    3.95    0.25
   4  -2   4    4.34    0.34
   4   2   4    3.73    0.28
   4   2   4    3.95    0.41
  -4   2  -4    3.92    0.56
  -4   2  -4    3.78    0.29
   4   2   4    3.68    0.33
  -4   2  -4    4.38    0.32
  -4   2  -4    3.96    0.36
   5  -2   4   13.74    0.66
  -5  -2  -4   14.04    0.53
  -5  -2  -4   13.91    0.40
   5  -2   4   13.87    0.69
   5  -2   4   13.57    0.74
  -5  -2  -4   13.49    0.76
  -5  -2  -4   14.60    0.77
  -5  -2  -4   13.25    0.49
   5   2   4   12.72    0.62
  -5   2  -4   12.94    0.74
   5   2   4   13.68    0.81
   5   2   4   13.51    0.67
  -5   2  -4   11.38    0.90
  -5   2  -4   14.30    0.67
  -5   2  -4   13.28    0.63
  -6  -2  -4    5.27    0.47
  -6  -2  -4    5.45    0.57
   6  -2   4    5.80    0.45
  -6  -2  -4    5.44    0.26
   6  -2   4    5.26    0.51
  -6  -2  -4    5.11    0.31
   6  -2   4    5.66    0.49
   6  -2   4    5.51    0.47
  -6   2  -4    5.41    0.38
  -6   2  -4    5.72    0.76
   6   2   4    5.65    0.38
  -6   2  -4    5.39    0.58
   6   2   4    5.52    0.40
  -6   2  -4    5.42    0.40
   6   2   4    6.38    0.63
   7  -2   4    3.35    0.43
  -7  -2  -4    2.58    0.32
   7  -2   4    3.59    0.37
  -7  -2  -4    3.02    0.40
   7  -2   4    3.57    0.43
  -7   2  -4    2.43    0.44
  -7   2  -4    2.09    0.58
  -7   2  -4    3.11    0.31
  -7   2  -4    3.01    0.36
   7   2   4    3.58    0.36
   7   2   4    2.54    0.32
   8  -2   4    0.02    0.25
  -8  -2  -4   -0.15    0.25
  -8  -2  -4    0.32    0.23
   8  -2   4   -0.14    0.23
  -8   2  -4   -0.14    0.21
   8   2   4    0.03    0.15
   8   2   4    0.34    0.20
  -8   2  -4   -0.02    0.13
   9  -2   4    2.85    0.47
  -9  -2  -4    2.51    0.50
   9  -2   4    2.84    0.39
   9  -2   4    3.11    0.56
   9   2   4    2.56    0.41
  -9   2  -4    2.51    0.34
   9   2   4    3.00    0.41
  -9   2  -4    2.44    0.36
  10  -2   4    0.94    0.24
  10  -2   4    0.24    0.35
 -10  -2  -4    1.22    0.34
 -10   2  -4    0.51    0.21
 -10   2  -4    0.07    0.33
  10   2   4    0.60    0.26
 -10  -3   4    1.50    0.23
 -10  -3   4    1.93    0.50
  10  -3  -4    1.36    0.50
 -10   3   4    0.52    0.41
 -10   3   4    1.30    0.26
  10   3  -4    1.14    0.36
  -9  -3   4    0.56    0.15
  -9  -3   4    0.58    0.31
   9  -3  -4    1.06    0.46
   9  -3  -4    0.70    0.35
  -9   3   4    0.54    0.18
   9   3  -4    0.55    0.25
  -9   3   4    0.18    0.37
  -8  -3   4   -0.18    0.27
  -8  -3   4    0.18    0.09
   8  -3  -4    0.60    0.29
  -8   3   4    0.36    0.31
  -8   3   4    0.20    0.14
  -7  -3   4    1.38    0.38
  -7  -3   4    1.19    0.14
   7  -3  -4    1.29    0.30
   7  -3  -4    1.31    0.34
   7  -3  -4    1.85    0.40
  -7  -3   4    1.55    0.39
  -7   3   4    1.17    0.32
  -7   3   4    1.26    0.21
   7   3  -4    1.20    0.23
   7   3  -4    1.08    0.28
   6  -3  -4    6.47    0.89
  -6  -3   4    6.54    0.62
   6  -3  -4    6.75    0.69
  -6  -3   4    7.18    0.27
   6  -3  -4    6.82    0.56
  -6  -3   4    6.88    0.29
  -6  -3   4    7.06    0.30
   6  -3  -4    7.18    0.60
  -6   3   4    7.14    0.58
   6   3  -4    7.54    0.42
   6   3  -4    5.34    0.54
  -6   3   4    6.64    0.41
  -5  -3   4    8.66    0.36
  -5  -3   4    8.23    0.41
  -5  -3   4    7.80    0.45
  -5  -3   4    8.82    0.67
   5  -3  -4    8.01    0.56
  -5  -3   4    8.87    0.58
   5  -3  -4    8.42    0.60
  -5  -3   4    7.89    0.62
   5  -3  -4    7.66    0.89
   5  -3  -4    8.67    0.71
   5  -3  -4    8.16    0.53
   5   3  -4    7.95    0.42
  -5   3   4    8.12    0.53
   5   3  -4    7.84    0.56
  -5   3   4    8.72    0.45
  -5   3   4    8.36    0.58
  -4  -3   4    3.33    0.35
  -4  -3   4    3.33    0.40
   4  -3  -4    3.41    0.30
   4  -3  -4    2.88    0.50
   4  -3  -4    3.69    0.42
  -4  -3   4    3.20    0.40
  -4  -3   4    3.27    0.43
   4  -3  -4    4.34    0.68
  -4  -3   4    3.04    0.28
  -4  -3   4    3.50    0.21
  -4   3   4    3.59    0.37
   4   3  -4    3.47    0.23
  -4   3   4    3.54    0.25
  -4   3   4    3.68    0.34
   4   3  -4    3.96    0.40
   3  -3  -4   21.80    0.94
  -3  -3   4   21.95    0.77
  -3  -3   4   20.99    0.93
   3  -3  -4   20.01    0.91
  -3  -3   4   21.60    0.84
  -3  -3   4   21.66    1.02
  -3  -3   4   22.09    1.08
   3  -3  -4   22.69    1.19
   3  -3  -4   20.63    1.15
   3   3  -4   20.42    0.75
  -3   3   4   22.56    0.89
   3   3  -4   21.20    0.89
  -3   3   4   21.77    0.97
  -3   3   4   20.70    0.84
   3   3  -4   22.02    1.03
  -2  -3   4    1.32    0.24
  -2  -3   4    1.43    0.16
   2  -3  -4    1.32    0.21
  -2  -3   4    1.39    0.18
   2  -3  -4    1.38    0.34
  -2  -3   4    1.01    0.23
   2  -3  -4    0.88    0.21
   2  -3  -4    1.78    0.34
   2  -3  -4    1.01    0.13
  -2  -3   4    1.15    0.25
   2   3  -4    1.09    0.28
  -2   3   4    1.03    0.20
  -2   3   4    0.97    0.14
  -2   3   4    1.18    0.19
   2   3  -4    0.76    0.18
  -1  -3   4   27.06    1.19
   1  -3  -4   27.60    1.04
  -1  -3   4   27.35    1.10
  -1  -3   4   28.17    0.91
   1  -3  -4   27.03    1.07
   1  -3  -4   25.87    1.26
  -1  -3   4   28.23    0.92
   1  -3  -4   28.02    1.35
  -1  -3   4   27.89    1.00
   1  -3  -4   28.01    1.05
  -1  -3   4   28.53    1.19
   1   3  -4   29.43    1.25
   1   3  -4   28.03    1.30
  -1   3   4   28.30    1.10
  -1   3   4   28.31    1.00
  -1   3   4   27.81    1.09
   0  -3   4    1.37    0.22
   0  -3  -4    0.91    0.18
   0  -3   4    0.44    0.17
   0  -3  -4    0.61    0.20
   0  -3  -4    1.03    0.29
   0  -3   4    0.73    0.11
   0  -3   4    1.02    0.18
   0  -3   4    0.98    0.11
   0  -3   4    0.92    0.22
   0  -3  -4    0.92    0.15
   0   3  -4    1.34    0.21
   0   3  -4    0.63    0.30
   0   3   4    0.84    0.18
   0   3   4    0.68    0.20
   1  -3   4   11.89    0.60
   1  -3   4   11.24    0.56
  -1  -3  -4   12.44    0.61
   1  -3   4   11.86    0.69
  -1  -3  -4   11.56    0.56
   1  -3   4   10.78    0.64
  -1  -3  -4   11.80    0.59
  -1  -3  -4   11.64    0.51
  -1  -3  -4   12.74    0.71
  -1   3  -4   11.52    0.42
  -1   3  -4   11.60    0.63
   1   3   4   11.16    0.73
   1   3   4   11.93    0.57
  -1   3  -4   11.89    0.83
   2  -3   4   32.44    1.17
   2  -3   4   30.39    1.23
  -2  -3  -4   31.23    1.18
   2  -3   4   30.90    1.38
  -2  -3  -4   31.38    1.32
  -2  -3  -4   31.79    1.11
  -2  -3  -4   31.67    1.29
  -2  -3  -4   31.54    1.27
   2  -3   4   31.56    1.12
  -2  -3  -4   31.29    1.13
   2  -3   4   31.41    1.27
  -2   3  -4   31.87    1.06
  -2   3  -4   31.85    1.33
   2   3   4   32.02    1.11
  -2   3  -4   30.50    1.50
   2   3   4   29.47    1.37
   3  -3   4    3.40    0.31
  -3  -3  -4    3.51    0.38
  -3  -3  -4    4.04    0.37
  -3  -3  -4    3.89    0.39
   3  -3   4    3.50    0.30
  -3  -3  -4    3.23    0.25
   3  -3   4    4.06    0.34
  -3  -3  -4    2.84    0.33
  -3  -3  -4    3.47    0.35
   3  -3   4    3.52    0.40
   3  -3   4    3.76    0.44
   3   3   4    3.07    0.40
   3   3   4    3.44    0.30
  -3   3  -4    3.40    0.29
  -3   3  -4    2.72    0.53
  -3   3  -4    3.33    0.31
  -4  -3  -4    0.34    0.19
  -4  -3  -4    0.23    0.17
  -4  -3  -4    0.25    0.22
  -4  -3  -4    0.28    0.08
   4  -3   4    0.53    0.20
  -4  -3  -4    0.33    0.21
   4  -3   4    0.25    0.14
   4  -3   4    0.06    0.14
   4  -3   4    0.26    0.25
  -4  -3  -4    0.44    0.16
  -4   3  -4    0.25    0.16
  -4   3  -4    0.47    0.14
   4   3   4    0.38    0.20
  -4   3  -4    0.04    0.34
   4   3   4    0.44    0.13
   5  -3   4   13.15    0.70
  -5  -3  -4   11.68    0.77
  -5  -3  -4   13.80    0.62
  -5  -3  -4   12.21    0.44
  -5  -3  -4   12.58    0.79
  -5  -3  -4   13.30    0.56
   5  -3   4   12.51    0.81
   5  -3   4   11.72    0.76
  -5   3  -4   13.70    0.71
   5   3   4   11.88    0.76
  -5   3  -4   13.07    0.72
   5   3   4   12.01    0.81
   5   3   4   13.01    0.63
  -5   3  -4   12.76    0.69
  -6  -3  -4   17.55    0.97
  -6  -3  -4   15.02    0.63
   6  -3   4   14.57    0.89
   6  -3   4   13.27    0.89
  -6  -3  -4   15.73    0.67
  -6  -3  -4   15.47    0.48
   6  -3   4   16.22    0.85
   6   3   4   13.69    0.85
   6   3   4   15.52    0.75
  -6   3  -4   16.57    0.81
   6   3   4   15.84    0.98
  -6   3  -4   16.87    0.81
  -6   3  -4   14.20    0.88
  -7  -3  -4    1.12    0.19
   7  -3   4    1.02    0.29
  -7  -3  -4    1.88    0.26
  -7  -3  -4    1.39    0.11
   7  -3   4    1.47    0.33
  -7  -3  -4    1.49    0.37
   7   3   4    1.20    0.24
  -7   3  -4    1.21    0.23
  -7   3  -4    1.57    0.31
   7   3   4    0.81    0.32
   8  -3   4   -0.06    0.28
   8  -3   4    0.29    0.28
  -8  -3  -4    0.35    0.24
  -8  -3  -4    0.08    0.25
  -8   3  -4   -0.02    0.19
   8   3   4   -0.45    0.27
   8   3   4    0.05    0.19
   9  -3   4    3.53    0.65
   9  -3   4    3.34    0.54
   9   3   4    3.02    0.47
  -9   3  -4    3.02    0.43
  -9   3  -4    2.72    0.44
 -10  -3  -4    1.23    0.42
  10  -3   4    1.66    0.44
  10  -3   4    0.98    0.36
 -10   3  -4    1.60    0.44
  10   3   4    1.59    0.33
 -10   3  -4    1.30    0.33
   9  -4  -4    7.27    1.00
  -9  -4   4    4.54    0.32
   9  -4  -4    4.64    0.86
  -9  -4   4    4.05    0.69
  -9   4   4    4.92    0.51
  -9   4   4    5.83    0.83
   9   4  -4    5.13    0.53
   8  -4  -4    1.66    0.45
   8  -4  -4    0.67    0.55
  -8  -4   4    1.37    0.19
  -8  -4   4    1.47    0.46
  -8   4   4    1.53    0.46
  -8   4   4    1.68    0.36
   8   4  -4    2.18    0.37
   7  -4  -4    0.27    0.32
  -7  -4   4    0.52    0.10
   7  -4  -4    0.63    0.48
  -7  -4   4    0.74    0.36
  -7  -4   4    0.01    0.44
  -7   4   4    0.58    0.33
  -7   4   4    0.54    0.18
   7   4  -4    0.28    0.17
  -6  -4   4    0.98    0.35
   6  -4  -4    0.60    0.40
   6  -4  -4    0.30    0.27
  -6  -4   4    0.40    0.10
   6  -4  -4    0.07    0.27
  -6  -4   4    0.75    0.31
  -6  -4   4    0.23    0.16
  -6   4   4    0.45    0.15
  -6   4   4    0.42    0.28
  -5  -4   4   23.19    1.09
  -5  -4   4   23.19    1.08
  -5  -4   4   22.70    1.02
  -5  -4   4   24.45    0.84
   5  -4  -4   23.40    1.10
   5  -4  -4   24.88    1.44
  -5  -4   4   24.35    1.33
   5  -4  -4   23.85    1.20
   5   4  -4   24.16    0.92
  -5   4   4   23.66    1.18
  -5   4   4   24.13    1.05
  -4  -4   4    5.90    0.49
   4  -4  -4    6.49    0.45
   4  -4  -4    6.20    0.55
  -4  -4   4    7.02    0.70
  -4  -4   4    6.28    0.65
  -4  -4   4    6.88    0.52
  -4  -4   4    6.89    0.36
   4  -4  -4    6.04    0.72
  -4   4   4    6.31    0.42
  -4   4   4    6.41    0.58
  -3  -4   4   40.51    1.69
   3  -4  -4   44.58    1.69
  -3  -4   4   45.86    1.57
  -3  -4   4   44.72    1.96
  -3  -4   4   46.16    1.45
   3  -4  -4   43.94    2.08
  -3  -4   4   45.14    1.90
  -3  -4   4   44.29    1.48
  -3  -4   4   46.41    1.80
   3  -4  -4   46.70    1.73
  -3   4   4   42.87    1.73
  -3   4   4   44.98    1.72
  -3   4   4   43.18    1.57
  -2  -4   4    2.35    0.35
  -2  -4   4    1.65    0.37
  -2  -4   4    1.36    0.13
  -2  -4   4    1.35    0.22
  -2  -4   4    1.63    0.36
   2  -4  -4    1.68    0.41
   2  -4  -4    1.65    0.36
  -2  -4   4    1.55    0.25
   2  -4  -4    1.05    0.21
   2  -4  -4    1.59    0.20
   2   4  -4    2.19    0.50
  -2   4   4    1.71    0.30
  -2   4   4    1.41    0.22
   2   4  -4    1.59    0.32
  -2   4   4    1.53    0.26
  -1  -4   4    4.52    0.35
  -1  -4   4    4.15    0.42
   1  -4  -4    4.63    0.35
   1  -4  -4    3.88    0.68
   1  -4  -4    4.45    0.31
   1  -4  -4    4.29    0.57
  -1  -4   4    4.99    0.57
  -1  -4   4    4.15    0.28
   1  -4  -4    3.62    0.56
  -1  -4   4    4.36    0.24
  -1   4   4    3.34    0.31
   1   4  -4    4.47    0.43
  -1   4   4    4.47    0.44
   1   4  -4    3.87    0.74
  -1   4   4    4.15    0.34
   0  -4  -4    5.40    0.60
   0  -4   4    4.53    0.28
   0  -4  -4    4.97    0.34
   0  -4  -4    4.73    0.34
   0  -4  -4    4.93    0.54
   0  -4   4    4.70    0.59
   0  -4   4    4.44    0.50
   0  -4  -4    4.49    0.40
   0  -4   4    4.31    0.26
   0  -4   4    4.85    0.38
   0  -4   4    4.56    0.43
   0  -4  -4    4.73    0.67
   0   4  -4    4.88    0.44
   0   4   4    4.41    0.41
   0   4  -4    4.21    0.76
   1  -4   4   12.01    0.48
   1  -4   4   10.60    0.77
   1  -4   4   11.22    0.64
  -1  -4  -4   11.07    0.61
   1  -4   4   12.64    0.65
  -1  -4  -4   12.28    0.86
  -1  -4  -4   11.51    0.63
  -1  -4  -4   12.01    0.55
  -1  -4  -4   12.00    0.88
   1  -4   4   11.74    0.53
  -1  -4  -4   10.70    0.71
   1  -4   4   11.37    0.79
  -1  -4  -4   11.73    0.69
  -1   4  -4    9.57    1.02
  -1   4  -4   11.59    0.70
   2  -4   4    0.51    0.24
   2  -4   4    0.64    0.16
  -2  -4  -4    1.01    0.30
  -2  -4  -4    0.58    0.31
  -2  -4  -4    0.61    0.19
  -2  -4  -4    0.45    0.20
  -2  -4  -4    0.48    0.11
  -2  -4  -4    0.56    0.21
   2  -4   4    0.62    0.18
  -2  -4  -4    0.34    0.31
  -2  -4  -4    0.63    0.20
   2  -4   4    1.04    0.25
  -2   4  -4    0.77    0.13
  -2   4  -4    0.78    0.18
  -3  -4  -4    0.60    0.31
   3  -4   4    0.67    0.21
  -3  -4  -4    0.13    0.29
  -3  -4  -4    0.60    0.23
   3  -4   4    0.63    0.17
  -3  -4  -4    0.87    0.18
  -3  -4  -4    0.76    0.25
  -3  -4  -4    0.55    0.11
  -3  -4  -4    0.45    0.21
  -3   4  -4    0.48    0.14
   3   4   4    0.71    0.35
  -3   4  -4    0.31    0.15
  -4  -4  -4    7.38    0.41
   4  -4   4    7.35    0.67
   4  -4   4    7.50    0.53
  -4  -4  -4    8.19    0.65
   4  -4   4    8.90    0.63
  -4  -4  -4    7.97    0.60
  -4  -4  -4    7.84    0.65
  -4  -4  -4    8.32    0.52
  -4  -4  -4    6.62    0.60
  -4   4  -4    7.65    0.57
  -4   4  -4    7.75    0.48
   4   4   4    7.91    0.72
   5  -4   4    3.92    0.50
  -5  -4  -4    5.25    0.57
  -5  -4  -4    4.74    0.45
   5  -4   4    5.27    0.63
  -5  -4  -4    4.99    0.29
  -5  -4  -4    4.29    0.54
  -5   4  -4    4.78    0.46
  -5   4  -4    4.69    0.45
   5   4   4    5.68    0.64
  -5   4  -4    4.93    0.52
   5   4   4    5.39    0.44
  -6  -4  -4    0.87    0.24
  -6  -4  -4    0.86    0.13
  -6  -4  -4    1.05    0.34
   6  -4   4    1.23    0.29
  -6  -4  -4    0.64    0.33
   6  -4   4    0.51    0.35
  -6   4  -4    1.08    0.33
   6   4   4    0.95    0.25
  -6   4  -4    1.19    0.31
  -6   4  -4    1.32    0.26
   6   4   4    1.28    0.38
  -7  -4  -4    2.74    0.16
   7  -4   4    3.08    0.46
   7  -4   4    1.94    0.45
  -7  -4  -4    3.50    0.66
   7   4   4    2.63    0.48
  -7   4  -4    2.75    0.44
  -7   4  -4    3.21    0.56
   8  -4   4    1.97    0.46
  -8  -4  -4    1.29    0.44
  -8   4  -4    2.30    0.46
  -8   4  -4    2.49    0.47
  -9  -4  -4   -0.19    0.39
   9  -4   4    1.07    0.45
   9  -4   4    0.61    0.43
  -9   4  -4    0.58    0.43
  -9   4  -4    0.10    0.29
   9   4   4    0.50    0.27
   7  -5  -4    1.59    0.47
  -7  -5   4    1.75    0.22
  -7  -5   4    2.60    0.61
   7  -5  -4    0.99    0.66
  -7   5   4    2.20    0.52
  -7   5   4    1.35    0.32
   7   5  -4    1.62    0.31
  -6  -5   4    1.20    0.18
   6  -5  -4    0.82    0.40
  -6  -5   4    1.88    0.48
   6  -5  -4    1.47    0.62
  -6  -5   4    0.98    0.31
  -6   5   4    1.03    0.43
  -6   5   4    0.91    0.23
  -5  -5   4    1.81    0.45
   5  -5  -4    1.49    0.35
   5  -5  -4    1.23    0.33
   5  -5  -4    0.81    0.53
  -5  -5   4    1.02    0.18
  -5   5   4    1.07    0.37
  -5   5   4    1.85    0.34
  -4  -5   4    8.70    0.73
   4  -5  -4    9.35    0.61
   4  -5  -4    9.64    0.72
  -4  -5   4    8.78    0.87
  -4  -5   4    9.65    0.71
  -4  -5   4    9.70    1.06
  -4  -5   4    7.75    0.47
  -4  -5   4    9.12    0.43
   4  -5  -4    8.15    1.03
  -4   5   4    8.93    0.59
  -4   5   4    9.56    0.78
  -3  -5   4    3.02    0.60
   3  -5  -4    2.86    0.36
  -3  -5   4    2.81    0.23
  -3  -5   4    3.09    0.51
  -3  -5   4    2.61    0.45
  -3  -5   4    2.55    0.32
   3  -5  -4    2.89    0.56
  -3  -5   4    2.81    0.71
   3  -5  -4    2.87    0.48
  -3   5   4    2.74    0.35
  -3   5   4    2.82    0.48
   2  -5  -4    8.36    0.60
   2  -5  -4    8.76    0.91
  -2  -5   4    8.35    0.53
  -2  -5   4    8.61    0.75
  -2  -5   4    8.08    0.52
  -2  -5   4    8.19    0.41
   2  -5  -4    7.89    0.48
   2   5  -4    7.38    0.68
  -2   5   4    6.71    0.63
  -1  -5   4    0.34    0.19
   1  -5  -4    0.36    0.43
   1  -5  -4    0.56    0.17
  -1  -5   4    0.41    0.15
  -1  -5   4    0.62    0.20
  -1   5   4    0.24    0.25
   1   5  -4    0.66    0.28
  -1   5   4    0.44    0.20
   0  -5   4    5.50    0.38
   0  -5   4    5.64    0.36
   0  -5   4    4.64    0.45
   0  -5  -4    5.48    0.45
   0  -5   4    5.31    0.65
   0  -5  -4    4.97    0.78
   0   5  -4    5.78    0.56
   0   5   4    5.26    0.52
  -1  -5  -4    3.31    0.41
  -1  -5  -4    2.76    0.50
   1  -5   4    2.60    0.46
  -1  -5  -4    3.00    0.61
  -1  -5  -4    3.07    0.32
   1  -5   4    3.43    0.31
   1  -5   4    3.66    0.45
   1  -5   4    2.72    0.34
   1   5   4    2.79    0.44
  -1   5  -4    3.47    0.46
  -2  -5  -4    3.87    0.76
   2  -5   4    3.30    0.48
  -2  -5  -4    4.75    0.53
   2  -5   4    4.27    0.40
   2  -5   4    4.83    0.37
   2  -5   4    4.53    0.64
  -2  -5  -4    4.13    0.57
  -2  -5  -4    4.34    0.36
  -2  -5  -4    3.71    0.46
  -2   5  -4    4.31    0.48
   3  -5   4   -0.26    0.36
   3  -5   4    0.45    0.22
  -3  -5  -4   -0.15    0.26
  -3  -5  -4    0.63    0.22
  -3  -5  -4    0.31    0.42
   3  -5   4   -0.12    0.26
  -3   5  -4    0.31    0.16
  -3   5  -4   -0.08    0.20
   4  -5   4    9.53    0.74
  -4  -5  -4    9.72    0.97
  -4  -5  -4    9.10    0.52
   4  -5   4    8.14    0.90
  -4  -5  -4    8.85    0.52
  -4  -5  -4    8.86    0.80
   4  -5   4    9.01    0.65
  -4   5  -4    9.42    0.69
  -5  -5  -4   -0.40    0.31
  -5  -5  -4   -0.14    0.15
   5  -5   4    0.47    0.28
  -5  -5  -4    0.21    0.47
  -5  -5  -4   -0.25    0.15
   5  -5   4    0.14    0.34
   5  -5   4    0.80    0.46
  -5   5  -4    0.03    0.23
  -6  -5  -4    0.94    0.51
  -6  -5  -4    0.38    0.42
  -6  -5  -4    0.30    0.14
   6  -5   4    1.04    0.41
   6  -5   4   -0.60    0.47
  -6  -5  -4   -0.08    0.19
  -6   5  -4    0.07    0.27
   7  -5   4    0.76    0.46
   7  -5   4    0.54    0.52
  -4  -6   4    0.75    0.46
  -4  -6   4    0.82    0.25
   4  -6  -4    2.28    0.76
  -4  -6   4    0.08    0.49
   4  -6  -4    1.48    0.45
  -4   6   4    0.92    0.46
  -4   6   4    1.39    0.31
  -3  -6   4   -0.20    0.43
  -3  -6   4    0.18    0.42
   3  -6  -4    0.73    0.61
  -3  -6   4    0.07    0.21
   3  -6  -4    0.39    0.35
  -3   6   4   -0.12    0.40
  -3   6   4    0.44    0.27
   2  -6  -4    0.11    0.62
   2  -6  -4    0.25    0.29
  -2  -6   4   -0.04    0.45
   2   6  -4    0.42    0.36
  -2   6   4    0.49    0.34
   1  -6  -4    2.35    0.66
  -1  -6   4    1.02    0.28
  -1  -6   4    0.98    0.46
   1  -6  -4    1.09    0.32
  -1   6   4    1.09    0.37
   1   6  -4    0.85    0.39
   0  -6   4    0.23    0.29
   0  -6   4    0.11    0.45
   0  -6  -4    0.77    0.26
   0  -6  -4    0.85    0.59
   0  -6  -4    0.85    0.35
   0   6  -4    0.90    0.36
  -1  -6  -4    0.64    0.60
   1  -6   4    0.62    0.35
  -1  -6  -4    0.51    0.39
  -1  -6  -4    0.04    0.30
   1  -6   4    0.44    0.48
  -1  -6  -4    0.53    0.23
  -1   6  -4    0.86    0.32
  -2  -6  -4    1.15    0.25
  -2  -6  -4    0.73    0.61
   2  -6   4    2.01    0.42
  -2  -6  -4    1.40    0.45
  -2  -6  -4    1.55    0.37
   2  -6   4    1.24    0.56
  -2   6  -4    1.21    0.36
   3  -6   4    2.28    0.46
  -3  -6  -4    1.47    0.45
  -3  -6  -4    1.25    0.32
   3  -6   4    1.09    0.58
  -3  -6  -4    0.22    0.64
  -3   6  -4    1.21    0.38
  -4  -6  -4    0.44    0.46
   4  -6   4   -0.12    0.57
   4  -6   4    0.28    0.44
  -4  -6  -4    0.63    0.25
  -4  -6  -4    0.24    0.22
  -4  -6  -4   -0.34    0.66
  -4   6  -4   -0.07    0.35
  12   0  -5    1.47    0.48
 -12   0   5    1.39    0.40
 -12   0   5    1.33    0.38
 -11   0   5    0.37    0.27
 -11   0   5    0.09    0.28
  11   0  -5    0.71    0.39
 -10   0   5    2.01    0.37
 -10   0   5    2.48    0.42
  10   0  -5    2.41    0.46
  -9   0   5    0.86    0.25
   9   0  -5    1.02    0.13
   9   0  -5    1.01    0.15
   9   0  -5    1.59    0.36
  -9   0   5    1.32    0.24
  -8   0   5    0.95    0.20
   8   0  -5    0.53    0.23
  -8   0   5    0.76    0.25
   8   0  -5    1.13    0.34
   8   0  -5    0.50    0.13
   8   0  -5    0.44    0.14
   7   0  -5    2.31    0.26
  -7   0   5    2.53    0.42
  -7   0   5    1.83    0.25
   7   0  -5    2.06    0.37
   7   0  -5    2.50    0.43
   7   0  -5    2.35    0.22
   7   0  -5    2.25    0.18
   6   0  -5    2.02    0.29
   6   0  -5    2.35    0.36
  -6   0   5    1.47    0.19
  -6   0   5    1.91    0.28
   6   0  -5    1.58    0.14
   6   0  -5    1.29    0.24
   6   0  -5    1.56    0.18
  -6   0   5    1.41    0.27
  -5   0   5   18.78    0.68
   5   0  -5   18.73    0.89
   5   0  -5   18.78    0.60
   5   0  -5   18.56    0.76
   5   0  -5   18.20    0.67
   5   0  -5   18.32    0.84
  -5   0   5   18.44    0.87
  -5   0   5   19.00    0.84
  -4   0   5   16.98    0.76
   4   0  -5   15.99    0.72
   4   0  -5   16.21    0.52
  -4   0   5   16.21    0.71
  -4   0   5   16.22    0.58
   4   0  -5   16.90    0.76
   4   0  -5   15.70    0.58
  -4   0   5   16.08    0.67
  -3   0   5   22.49    0.83
  -3   0   5   21.68    0.92
   3   0  -5   22.76    0.87
   3   0  -5   23.69    0.76
   3   0  -5   22.01    0.68
   3   0  -5   21.61    0.90
  -3   0   5   22.43    0.72
  -2   0   5   51.44    1.62
   2   0  -5   52.21    1.63
   2   0  -5   52.05    1.46
  -2   0   5   48.99    1.48
  -2   0   5   49.17    1.85
   2   0  -5   52.07    1.66
  -2   0   5   49.49    1.83
  -1   0   5   90.27    2.97
  -1   0   5   91.27    2.64
  -1   0   5   97.10    3.26
   1   0  -5   91.32    2.95
   1   0  -5   94.12    2.63
  -1   0   5   93.43    2.86
   1   0  -5   98.07    3.27
   0   0  -5  235.23    8.46
   0   0   5  245.03    7.74
   0   0  -5  258.40    7.77
   0   0  -5  243.15    6.88
   0   0  -5  248.25    7.43
   0   0   5  241.79    8.56
  -1   0  -5    1.34    0.13
  -1   0  -5    1.32    0.12
   1   0   5    0.92    0.06
   2   0   5   55.19    1.76
  -2   0  -5   54.50    1.97
   2   0   5   55.00    1.54
  -2   0  -5   55.02    1.59
   2   0   5   55.39    1.79
   2   0   5   56.89    2.02
  -2   0  -5   53.85    1.80
   3   0   5   16.15    0.45
  -3   0  -5   14.34    0.64
   3   0   5   17.97    0.74
  -3   0  -5   13.94    0.66
   3   0   5   14.69    0.61
   3   0   5   14.71    0.56
  -3   0  -5   17.09    0.67
   3   0   5   15.33    0.49
   4   0   5   78.93    2.31
  -4   0  -5   82.11    2.99
   4   0   5   83.31    2.68
   4   0   5   84.87    2.65
   4   0   5   85.74    3.08
  -4   0  -5   84.56    2.79
   4   0   5   81.73    2.32
  -4   0  -5   79.54    2.75
   5   0   5   10.17    0.53
   5   0   5   10.12    0.42
  -5   0  -5   10.55    0.54
   5   0   5    9.46    0.31
  -5   0  -5    9.52    0.58
  -5   0  -5   10.26    0.64
   5   0   5   10.47    0.33
   6   0   5    4.80    0.56
   6   0   5    4.95    0.23
  -6   0  -5    5.82    0.58
  -6   0  -5    5.35    0.38
  -6   0  -5    5.76    0.52
   6   0   5    5.65    0.41
   6   0   5    5.30    0.28
   6   0   5    5.45    0.18
   7   0   5   -0.03    0.07
   7   0   5    0.24    0.14
  -7   0  -5    0.05    0.12
  -7   0  -5   -0.21    0.28
   7   0   5    0.04    0.04
  -7   0  -5    0.23    0.31
  -8   0  -5   -0.03    0.14
   8   0   5    0.04    0.05
   8   0   5    0.04    0.17
   8   0   5    0.09    0.09
  -8   0  -5    0.29    0.38
  -9   0  -5   -0.11    0.17
   9   0   5    0.30    0.24
  -9   0  -5   -0.33    0.48
   9   0   5   -0.05    0.12
 -10   0  -5    1.25    0.28
  10   0   5    1.84    0.40
  10   0   5    1.76    0.25
  11   0   5    0.34    0.21
  11   0   5   -0.05    0.35
 -11   0  -5    0.69    0.27
 -11  -1   5    2.56    0.45
  11  -1  -5    2.35    0.52
 -11  -1   5    1.40    0.38
 -11   1   5    1.99    0.44
 -11   1   5    2.17    0.41
  11   1  -5    1.18    0.42
 -10  -1   5    0.75    0.29
  10  -1  -5    1.65    0.41
  10  -1  -5    1.43    0.25
 -10  -1   5    1.19    0.23
 -10   1   5    1.08    0.25
 -10   1   5    1.22    0.31
  10   1  -5    0.87    0.33
  -9  -1   5    1.32    0.33
   9  -1  -5    0.72    0.30
   9  -1  -5    1.42    0.36
  -9  -1   5    1.56    0.24
   9  -1  -5    2.24    0.34
  -9   1   5    1.28    0.28
   9   1  -5    1.62    0.29
   8  -1  -5    6.76    0.50
  -8  -1   5    6.48    0.72
   8  -1  -5    5.36    0.63
  -8  -1   5    6.34    0.37
  -8  -1   5    6.74    0.60
   8  -1  -5    5.91    0.35
   8  -1  -5    6.03    0.58
  -8   1   5    5.76    0.47
   8   1  -5    6.03    0.34
   8   1  -5    6.86    0.56
  -8   1   5    6.27    0.49
  -7  -1   5   22.57    1.10
   7  -1  -5   21.33    1.02
   7  -1  -5   23.77    1.13
   7  -1  -5   22.51    0.79
   7  -1  -5   22.50    1.03
  -7  -1   5   22.65    1.15
   7  -1  -5   21.71    1.13
  -7  -1   5   23.36    0.83
   7   1  -5   23.01    1.19
  -7   1   5   23.20    1.05
  -7   1   5   23.62    0.96
   7   1  -5   21.64    0.76
   7   1  -5   23.31    1.12
   6  -1  -5   12.18    0.66
  -6  -1   5   12.28    0.47
   6  -1  -5   11.61    0.68
  -6  -1   5   11.87    0.72
  -6  -1   5   11.68    0.68
   6  -1  -5   11.86    0.48
   6  -1  -5   11.57    0.65
   6   1  -5   11.28    0.65
  -6   1   5   11.11    0.68
   6   1  -5   11.06    0.44
   6   1  -5   11.84    0.72
  -6   1   5   11.92    0.58
  -6   1   5   12.26    0.61
  -5  -1   5   14.79    0.78
   5  -1  -5   13.63    0.72
  -5  -1   5   13.53    0.49
  -5  -1   5   14.23    0.71
   5  -1  -5   13.85    0.71
   5  -1  -5   14.11    0.71
  -5   1   5   13.63    0.61
   5   1  -5   14.74    0.76
   5   1  -5   14.12    0.67
  -5   1   5   14.34    0.66
   5   1  -5   13.77    0.49
  -5   1   5   13.47    0.69
  -4  -1   5    4.49    0.19
  -4  -1   5    4.92    0.38
   4  -1  -5    3.80    0.35
  -4  -1   5    3.66    0.19
   4  -1  -5    3.77    0.32
  -4  -1   5    4.73    0.37
   4  -1  -5    4.38    0.31
  -4  -1   5    4.20    0.32
   4  -1  -5    4.06    0.24
  -4   1   5    4.06    0.32
   4   1  -5    4.21    0.30
  -4   1   5    4.41    0.29
   4   1  -5    4.24    0.21
  -4   1   5    4.66    0.27
   4   1  -5    3.94    0.21
  -3  -1   5   88.42    3.26
   3  -1  -5   88.01    3.16
  -3  -1   5   92.73    2.79
  -3  -1   5   88.49    2.53
   3  -1  -5   82.98    2.59
  -3  -1   5   90.17    2.81
   3  -1  -5   90.07    2.90
   3  -1  -5   91.36    2.97
  -3  -1   5   85.75    3.23
  -3   1   5   88.89    3.04
  -3   1   5   89.62    2.67
   3   1  -5   94.32    2.84
   3   1  -5   83.89    2.56
   3   1  -5   93.15    2.86
  -3   1   5   88.93    2.83
  -2  -1   5   44.61    1.38
   2  -1  -5   42.30    1.53
   2  -1  -5   44.28    1.52
   2  -1  -5   44.94    1.47
  -2  -1   5   40.80    1.62
  -2  -1   5   43.07    1.25
  -2   1   5   41.37    1.51
  -2   1   5   43.61    1.58
   2   1  -5   43.62    1.40
   2   1  -5   42.50    1.65
   2   1  -5   44.18    1.46
  -2   1   5   41.76    1.35
  -1  -1   5   11.49    0.39
   1  -1  -5   12.04    0.47
  -1  -1   5   12.71    0.38
   1  -1  -5   11.54    0.42
   1  -1  -5   13.26    0.53
  -1  -1   5   12.53    0.44
  -1  -1   5   11.44    0.52
  -1   1   5   11.70    0.45
   1   1  -5    9.93    0.52
   1   1  -5   11.80    0.41
  -1   1   5   10.85    0.45
   1   1  -5   11.84    0.51
   1   1  -5   11.34    0.43
   0  -1   5   41.95    1.24
   0  -1  -5   40.64    1.38
   0  -1   5   43.31    1.55
   0  -1  -5   41.14    1.24
   0  -1   5   38.99    1.40
   0  -1  -5   40.92    1.42
   0  -1  -5   42.69    1.45
   0  -1  -5   40.25    1.35
   0   1   5   44.11    1.29
   0   1  -5   42.90    1.29
   0   1  -5   42.46    1.48
   0   1  -5   42.73    1.29
   0   1  -5   42.04    1.28
   0   1   5   41.69    1.49
   0   1   5   43.82    1.47
   0   1  -5   40.93    1.56
   1  -1   5   52.69    1.97
  -1  -1  -5   55.30    1.78
   1  -1   5   57.78    1.70
  -1  -1  -5   54.37    1.93
  -1  -1  -5   55.13    1.57
   1  -1   5   57.83    1.84
   1  -1   5   52.97    1.61
  -1   1  -5   47.95    1.98
  -1   1  -5   56.80    1.73
   1   1   5   54.33    1.97
  -1   1  -5   52.97    1.66
   1   1   5   58.62    1.88
   1   1   5   54.70    1.61
   1   1   5   55.16    1.77
   2  -1   5   13.78    0.60
  -2  -1  -5   14.24    0.59
   2  -1   5   14.61    0.56
   2  -1   5   14.60    0.53
  -2  -1  -5   14.70    0.53
   2  -1   5   14.14    0.50
  -2  -1  -5   14.08    0.41
  -2  -1  -5   14.35    0.59
   2  -1   5   14.31    0.59
  -2   1  -5   13.74    0.60
  -2   1  -5   12.64    0.56
   2   1   5   14.25    0.63
   2   1   5   13.87    0.46
  -2   1  -5   13.71    0.68
   2   1   5   13.45    0.55
   2   1   5   13.92    0.58
  -3  -1  -5   10.95    0.52
   3  -1   5   10.18    0.49
  -3  -1  -5   11.03    0.43
   3  -1   5   10.25    0.47
   3  -1   5   10.69    0.53
   3  -1   5   10.99    0.42
  -3  -1  -5   10.38    0.53
   3  -1   5   10.37    0.46
  -3   1  -5   11.36    0.49
   3   1   5   10.22    0.46
  -3   1  -5   10.83    0.61
  -3   1  -5   10.87    0.53
   3   1   5   10.44    0.47
  -4  -1  -5    6.81    0.32
   4  -1   5    6.62    0.44
  -4  -1  -5    6.81    0.40
   4  -1   5    6.71    0.38
   4  -1   5    7.19    0.38
   4  -1   5    6.49    0.36
  -4  -1  -5    6.25    0.46
   4  -1   5    6.64    0.32
   4   1   5    6.07    0.34
  -4   1  -5    5.96    0.45
   4   1   5    6.99    0.37
  -4   1  -5    6.67    0.36
   4   1   5    6.95    0.47
  -5  -1  -5    3.22    0.27
  -5  -1  -5    3.32    0.29
   5  -1   5    3.39    0.26
   5  -1   5    3.11    0.28
   5  -1   5    3.31    0.29
  -5  -1  -5    3.23    0.40
   5   1   5    3.24    0.24
  -5   1  -5    3.32    0.46
  -5   1  -5    2.92    0.24
  -5   1  -5    3.20    0.24
   5   1   5    3.34    0.40
   5   1   5    3.45    0.28
  -5   1  -5    3.42    0.41
  -6  -1  -5    0.28    0.17
   6  -1   5    0.24    0.20
  -6  -1  -5    0.17    0.20
   6  -1   5    0.32    0.10
  -6  -1  -5    0.27    0.14
   6  -1   5    0.25    0.15
  -6   1  -5    0.19    0.30
   6   1   5    0.29    0.10
  -6   1  -5    0.13    0.09
   6   1   5    0.06    0.12
   6   1   5    0.29    0.22
  -6   1  -5   -0.09    0.25
  -6   1  -5    0.31    0.12
   7  -1   5    6.22    0.37
  -7  -1  -5    6.19    0.55
   7  -1   5    5.89    0.35
   7  -1   5    6.30    0.47
  -7  -1  -5    6.05    0.49
   7   1   5    5.75    0.36
  -7   1  -5    5.61    0.42
  -7   1  -5    5.92    0.74
  -7   1  -5    6.48    0.37
   7   1   5    6.17    0.49
  -7   1  -5    5.16    0.68
   8  -1   5    0.26    0.14
   8  -1   5    0.22    0.13
  -8  -1  -5    0.35    0.20
   8  -1   5    0.58    0.20
  -8  -1  -5    0.19    0.34
  -8   1  -5    0.27    0.50
  -8   1  -5    0.33    0.16
   8   1   5    0.42    0.19
   8   1   5    0.21    0.14
  -8   1  -5    0.15    0.12
  -9  -1  -5    0.94    0.48
   9  -1   5    1.17    0.29
  -9  -1  -5    1.53    0.32
   9   1   5    1.24    0.30
  -9   1  -5    1.54    0.31
  -9   1  -5    1.53    0.23
   9   1   5    2.09    0.28
  10  -1   5    0.65    0.29
  10  -1   5    0.12    0.15
 -10  -1  -5    0.13    0.27
  10   1   5    0.10    0.29
 -10   1  -5    0.09    0.22
  10   1   5    0.24    0.22
  11  -1   5    1.58    0.26
  11  -1   5    2.36    0.46
 -11  -1  -5    1.47    0.35
  11   1   5    1.08    0.39
 -11   1  -5    0.95    0.31
 -11  -2   5    0.19    0.24
  11   2  -5    0.14    0.31
 -11   2   5    0.09    0.24
 -11   2   5   -0.32    0.43
  10  -2  -5    1.58    0.39
  10  -2  -5    2.50    0.50
 -10  -2   5    1.51    0.24
 -10  -2   5    1.37    0.46
  10   2  -5    1.60    0.33
 -10   2   5    2.23    0.39
   9  -2  -5    1.02    0.35
   9  -2  -5    1.05    0.33
  -9  -2   5    0.96    0.33
   9  -2  -5    1.46    0.58
  -9   2   5    0.52    0.25
   9   2  -5    1.10    0.24
   8  -2  -5    1.84    0.51
  -8  -2   5    1.09    0.38
  -8  -2   5    1.28    0.31
   8  -2  -5    1.56    0.37
   8  -2  -5    0.94    0.32
  -8  -2   5    1.20    0.19
  -8   2   5    1.82    0.32
  -8   2   5    1.31    0.25
   8   2  -5    1.69    0.29
   8   2  -5    1.06    0.24
  -7  -2   5    0.04    0.26
   7  -2  -5    0.30    0.21
   7  -2  -5    0.30    0.22
  -7  -2   5   -0.01    0.06
   7  -2  -5    0.14    0.26
  -7  -2   5   -0.02    0.21
   7  -2  -5    0.20    0.37
   7   2  -5    0.05    0.15
  -7   2   5    0.09    0.18
  -7   2   5    0.15    0.10
   7   2  -5    0.13    0.17
  -6  -2   5   11.07    0.69
  -6  -2   5   10.92    0.42
  -6  -2   5   11.41    0.78
  -6  -2   5   10.59    0.74
   6  -2  -5   11.29    0.69
   6  -2  -5   10.81    0.54
   6  -2  -5   11.31    0.74
   6  -2  -5   10.18    0.66
   6  -2  -5   10.74    0.80
  -6   2   5   11.09    0.54
   6   2  -5   10.82    0.58
  -6   2   5   10.84    0.67
   6   2  -5   11.47    0.53
  -6   2   5   10.49    0.62
   5  -2  -5    3.82    0.36
  -5  -2   5    4.73    0.41
  -5  -2   5    4.49    0.21
  -5  -2   5    4.42    0.44
   5  -2  -5    5.06    0.57
   5  -2  -5    4.71    0.48
  -5  -2   5    4.25    0.45
   5  -2  -5    4.14    0.34
   5   2  -5    4.14    0.31
  -5   2   5    4.32    0.38
   5   2  -5    3.97    0.32
  -5   2   5    4.00    0.26
   4  -2  -5    3.08    0.26
  -4  -2   5    3.21    0.35
  -4  -2   5    2.86    0.34
   4  -2  -5    2.95    0.28
  -4  -2   5    2.95    0.16
  -4  -2   5    2.96    0.29
   4  -2  -5    3.28    0.32
  -4  -2   5    3.11    0.16
   4  -2  -5    2.76    0.45
   4  -2  -5    3.51    0.40
   4   2  -5    3.14    0.22
   4   2  -5    3.23    0.27
  -4   2   5    2.67    0.28
  -4   2   5    2.64    0.29
  -4   2   5    2.72    0.18
   4   2  -5    2.65    0.27
   3  -2  -5   15.89    0.89
  -3  -2   5   18.28    0.84
   3  -2  -5   16.53    0.76
  -3  -2   5   17.08    0.68
  -3  -2   5   18.06    0.58
   3  -2  -5   16.50    0.69
  -3  -2   5   15.97    0.64
   3  -2  -5   18.45    0.72
   3  -2  -5   16.27    0.86
  -3  -2   5   18.89    0.87
   3   2  -5   17.62    0.63
  -3   2   5   17.59    0.75
  -3   2   5   19.10    0.68
  -3   2   5   16.40    0.70
   3   2  -5   16.01    0.75
   3   2  -5   18.41    0.69
  -2  -2   5   61.63    1.85
  -2  -2   5   62.03    1.94
   2  -2  -5   62.93    2.26
   2  -2  -5   62.27    1.94
   2  -2  -5   61.75    2.08
   2  -2  -5   62.23    2.19
  -2  -2   5   60.29    2.33
  -2  -2   5   61.50    2.09
  -2   2   5   61.22    1.99
  -2   2   5   62.70    2.02
   2   2  -5   63.47    1.94
  -2   2   5   63.11    2.33
   2   2  -5   61.40    2.37
   2   2  -5   62.75    2.20
   2   2  -5   63.72    1.91
  -2   2   5   63.50    2.19
  -1  -2   5   39.06    1.40
  -1  -2   5   38.66    1.50
  -1  -2   5   39.47    1.21
   1  -2  -5   38.70    1.32
   1  -2  -5   38.59    1.34
   1  -2  -5   38.13    1.48
   1  -2  -5   39.11    1.27
   1   2  -5   38.10    1.29
   1   2  -5   38.04    1.53
  -1   2   5   37.99    1.28
  -1   2   5   38.52    1.55
  -1   2   5   38.51    1.37
  -1   2   5   37.30    1.30
   0  -2  -5   11.18    0.50
   0  -2   5   11.94    0.47
   0  -2  -5   10.66    0.58
   0  -2   5   10.93    0.56
   0  -2  -5   10.54    0.47
   0  -2  -5   10.97    0.51
   0  -2  -5   11.11    0.45
   0  -2  -5   12.06    0.48
   0  -2   5   12.69    0.56
   0   2  -5   11.17    0.66
   0   2  -5   11.71    0.58
   0   2   5   11.95    0.51
   0   2  -5   11.68    0.53
   0   2   5   10.58    0.62
  -1  -2  -5   34.48    1.13
  -1  -2  -5   32.81    1.17
   1  -2   5   32.26    1.10
  -1  -2  -5   33.58    1.24
   1  -2   5   32.09    1.17
  -1  -2  -5   33.59    1.08
   1  -2   5   34.78    1.06
   1  -2   5   34.83    1.30
   1  -2   5   32.46    1.29
  -1  -2  -5   32.53    1.24
  -1   2  -5   31.70    1.32
  -1   2  -5   32.66    1.05
   1   2   5   34.02    1.34
   1   2   5   32.44    1.10
  -1   2  -5   31.88    1.38
   2  -2   5   35.36    1.22
  -2  -2  -5   37.80    1.31
   2  -2   5   37.78    1.43
   2  -2   5   34.92    1.41
  -2  -2  -5   38.62    1.32
  -2  -2  -5   35.78    1.42
   2  -2   5   36.45    1.29
  -2  -2  -5   37.21    1.16
   2   2   5   35.19    1.42
   2   2   5   37.62    1.17
  -2   2  -5   36.96    1.54
   2   2   5   36.89    1.29
  -2   2  -5   34.58    1.44
   2   2   5   38.26    1.45
  -2   2  -5   36.56    1.24
   3  -2   5   18.70    0.74
  -3  -2  -5   19.43    0.85
  -3  -2  -5   18.00    0.80
   3  -2   5   18.77    0.87
  -3  -2  -5   18.52    0.72
   3  -2   5   18.26    0.82
   3  -2   5   18.51    0.79
  -3  -2  -5   18.37    0.63
   3  -2   5   18.81    0.73
   3   2   5   18.36    0.85
  -3   2  -5   18.69    0.83
  -3   2  -5   18.66    0.77
   3   2   5   18.57    0.86
  -3   2  -5   18.19    1.00
   3   2   5   18.79    0.75
   4  -2   5   15.30    0.71
  -4  -2  -5   15.92    0.77
  -4  -2  -5   14.85    0.60
   4  -2   5   15.70    0.75
   4  -2   5   15.87    0.66
   4  -2   5   14.60    0.76
  -4  -2  -5   15.27    0.51
  -4  -2  -5   15.18    0.77
  -4  -2  -5   14.82    0.47
   4  -2   5   15.09    0.69
   4   2   5   16.22    0.83
  -4   2  -5   13.48    0.92
  -4   2  -5   15.42    0.74
   4   2   5   15.81    0.75
  -4   2  -5   16.70    0.74
   4   2   5   15.08    0.67
  -5  -2  -5   16.08    0.85
   5  -2   5   15.00    0.83
  -5  -2  -5   15.15    0.82
   5  -2   5   15.59    0.75
   5  -2   5   16.50    0.77
  -5  -2  -5   16.31    0.62
   5  -2   5   16.61    0.81
   5   2   5   15.76    0.71
   5   2   5   16.90    0.78
  -5   2  -5   16.33    0.76
   5   2   5   15.40    0.89
  -5   2  -5   16.23    0.71
  -5   2  -5   16.43    1.05
  -5   2  -5   15.81    0.82
  -6  -2  -5    4.73    0.32
   6  -2   5    4.49    0.47
   6  -2   5    5.50    0.44
  -6  -2  -5    5.00    0.45
  -6   2  -5    5.42    0.39
  -6   2  -5    4.87    0.56
   6   2   5    5.38    0.42
  -6   2  -5    4.84    0.36
  -6   2  -5    4.61    0.79
   6   2   5    4.18    0.55
   6   2   5    5.31    0.38
   7  -2   5    4.44    0.49
   7  -2   5    4.68    0.42
   7  -2   5    4.78    0.47
  -7  -2  -5    4.05    0.39
  -7  -2  -5    4.67    0.48
   7   2   5    4.42    0.38
  -7   2  -5    5.01    0.42
   7   2   5    4.31    0.42
  -7   2  -5    4.88    0.39
  -7   2  -5    4.99    0.68
   8  -2   5    2.53    0.35
   8  -2   5    2.50    0.38
   8  -2   5    2.59    0.36
  -8  -2  -5    2.52    0.46
  -8  -2  -5    2.54    0.41
   8   2   5    2.29    0.34
  -8   2  -5    2.76    0.40
  -8   2  -5    2.38    0.32
   8   2   5    2.73    0.42
   9  -2   5    1.94    0.36
   9  -2   5    2.47    0.43
  -9  -2  -5    2.87    0.47
  -9   2  -5    2.87    0.45
   9   2   5    1.45    0.27
  -9   2  -5    1.95    0.34
  10  -2   5    0.32    0.33
  10  -2   5    0.06    0.21
 -10  -2  -5    0.49    0.33
  10   2   5    0.08    0.24
 -10   2  -5    0.16    0.24
  10  -3  -5   -0.43    0.49
 -10  -3   5    0.35    0.42
 -10  -3   5    0.33    0.19
  10  -3  -5    0.72    0.46
  10   3  -5    0.64    0.29
 -10   3   5    0.41    0.44
 -10   3   5    0.04    0.18
  -9  -3   5    0.67    0.15
  -9  -3   5    0.44    0.35
   9  -3  -5    1.09    0.49
   9  -3  -5    0.36    0.39
  -9   3   5    0.77    0.19
  -9   3   5    1.17    0.43
  -8  -3   5    0.54    0.33
   8  -3  -5    1.01    0.33
   8  -3  -5    0.71    0.46
  -8   3   5    1.89    0.39
  -8   3   5    0.80    0.17
   8   3  -5    1.21    0.25
  -7  -3   5    3.06    0.47
   7  -3  -5    3.52    0.52
   7  -3  -5    3.31    0.55
   7  -3  -5    4.41    0.66
  -7  -3   5    3.62    0.57
  -7  -3   5    4.13    0.23
  -7   3   5    4.53    0.52
  -7   3   5    3.65    0.30
   7   3  -5    3.74    0.38
   6  -3  -5   10.91    0.83
   6  -3  -5   10.51    0.65
  -6  -3   5   10.01    0.39
   6  -3  -5    9.77    0.99
  -6  -3   5    9.86    0.69
  -6   3   5   10.10    0.52
   6   3  -5    9.83    0.52
   6   3  -5    9.76    0.63
   5  -3  -5    1.07    0.25
  -5  -3   5    1.75    0.17
  -5  -3   5    1.78    0.35
  -5  -3   5    2.03    0.40
   5  -3  -5    2.40    0.47
  -5  -3   5    1.76    0.14
  -5  -3   5    2.02    0.37
   5  -3  -5    2.02    0.51
   5  -3  -5    1.65    0.31
  -5  -3   5    1.85    0.31
   5  -3  -5    2.32    0.36
  -5   3   5    1.76    0.19
   5   3  -5    1.49    0.34
  -5   3   5    2.20    0.37
   5   3  -5    1.60    0.20
  -5   3   5    1.38    0.25
  -4  -3   5    1.93    0.22
   4  -3  -5    1.65    0.24
   4  -3  -5    2.29    0.33
   4  -3  -5    1.78    0.47
   4  -3  -5    1.21    0.32
  -4  -3   5    1.75    0.36
  -4  -3   5    1.87    0.16
   4  -3  -5    1.92    0.35
  -4  -3   5    1.88    0.31
  -4  -3   5    1.99    0.36
  -4   3   5    1.87    0.33
   4   3  -5    1.94    0.17
  -4   3   5    1.61    0.27
   4   3  -5    1.71    0.30
  -4   3   5    1.93    0.19
  -3  -3   5    1.81    0.24
   3  -3  -5    1.78    0.19
   3  -3  -5    1.96    0.43
  -3  -3   5    2.30    0.35
   3  -3  -5    1.55    0.27
  -3  -3   5    1.97    0.24
  -3   3   5    1.73    0.17
   3   3  -5    2.02    0.36
   3   3  -5    2.02    0.36
   3   3  -5    1.79    0.29
  -3   3   5    1.86    0.24
  -2  -3   5    7.58    0.52
   2  -3  -5    7.70    0.67
  -2  -3   5    8.31    0.39
  -2  -3   5    8.26    0.30
   2  -3  -5    7.52    0.65
  -2  -3   5    8.23    0.37
   2  -3  -5    8.54    0.37
   2  -3  -5    8.18    0.47
  -2  -3   5    8.02    0.49
   2   3  -5    8.99    0.56
   2   3  -5    9.27    0.54
  -2   3   5    8.38    0.43
  -2   3   5    8.48    0.40
  -2   3   5    7.95    0.50
   2   3  -5    8.35    0.65
  -1  -3   5    4.90    0.45
  -1  -3   5    5.02    0.39
  -1  -3   5    5.95    0.43
   1  -3  -5    5.26    0.34
  -1  -3   5    5.52    0.33
   1  -3  -5    5.69    0.27
   1  -3  -5    5.12    0.44
   1  -3  -5    5.75    0.56
  -1   3   5    5.09    0.30
  -1   3   5    5.07    0.32
   1   3  -5    5.50    0.42
  -1   3   5    5.11    0.39
  -1   3   5    4.92    0.52
   1   3  -5    5.00    0.57
   0  -3  -5    6.79    0.40
   0  -3  -5    6.89    0.46
   0  -3   5    7.12    0.39
   0  -3  -5    7.19    0.42
   0  -3   5    7.00    0.45
   0  -3  -5    6.84    0.35
   0  -3  -5    6.94    0.56
   0  -3  -5    6.77    0.38
   0  -3   5    7.28    0.54
   0  -3   5    7.12    0.49
   0   3  -5    7.02    0.46
   0   3   5    7.65    0.60
   0   3   5    7.31    0.45
   0   3  -5    6.70    0.64
   1  -3   5    5.50    0.45
  -1  -3  -5    5.34    0.34
  -1  -3  -5    5.65    0.41
   1  -3   5    5.73    0.37
  -1  -3  -5    5.57    0.32
   1  -3   5    4.90    0.37
  -1  -3  -5    5.67    0.39
  -1  -3  -5    5.59    0.37
  -1  -3  -5    5.55    0.49
   1  -3   5    5.79    0.49
   1  -3   5    5.42    0.29
  -1   3  -5    5.82    0.22
  -1   3  -5    5.43    0.64
   1   3   5    5.67    0.51
  -1   3  -5    5.26    0.39
   1   3   5    5.58    0.38
  -2  -3  -5   14.28    0.70
  -2  -3  -5   15.09    0.74
   2  -3   5   14.52    0.70
  -2  -3  -5   15.01    0.66
  -2  -3  -5   15.35    0.62
  -2  -3  -5   14.52    0.69
   2  -3   5   14.98    0.77
  -2  -3  -5   14.89    0.73
   2  -3   5   15.35    0.60
   2  -3   5   14.45    0.67
  -2   3  -5   13.35    0.97
   2   3   5   15.04    0.63
   2   3   5   13.60    0.83
  -2   3  -5   13.91    0.55
  -3  -3  -5    0.77    0.21
   3  -3   5    0.76    0.17
  -3  -3  -5    1.05    0.15
  -3  -3  -5    0.75    0.20
  -3  -3  -5    0.92    0.22
   3  -3   5    1.35    0.21
   3  -3   5    0.57    0.27
  -3  -3  -5    0.76    0.15
   3  -3   5    0.89    0.25
  -3  -3  -5    0.75    0.19
   3  -3   5    0.80    0.20
  -3  -3  -5    0.87    0.23
  -3   3  -5    0.98    0.43
  -3   3  -5    1.04    0.20
   3   3   5    0.90    0.26
   4  -3   5    0.21    0.16
  -4  -3  -5    0.31    0.22
  -4  -3  -5    0.32    0.09
  -4  -3  -5    0.24    0.16
   4  -3   5    0.22    0.14
  -4  -3  -5    0.11    0.17
  -4  -3  -5    0.40    0.19
  -4  -3  -5    0.23    0.22
   4  -3   5    0.54    0.21
   4  -3   5    0.40    0.26
   4  -3   5    0.31    0.16
   4   3   5    0.07    0.20
  -4   3  -5    0.43    0.14
   4   3   5    0.30    0.13
  -4   3  -5    0.16    0.37
  -4   3  -5    0.29    0.17
  -5  -3  -5    5.16    0.50
   5  -3   5    4.85    0.45
  -5  -3  -5    4.54    0.21
  -5  -3  -5    4.85    0.37
   5  -3   5    5.17    0.50
  -5  -3  -5    5.15    0.33
   5  -3   5    5.47    0.60
  -5   3  -5    5.74    0.46
   5   3   5    4.85    0.55
   5   3   5    5.85    0.54
  -5   3  -5    4.53    0.50
   6  -3   5   10.50    0.65
   6  -3   5    8.22    0.71
  -6  -3  -5    9.24    0.30
  -6  -3  -5    8.69    0.45
  -6  -3  -5   10.13    0.48
   6  -3   5    9.99    0.70
  -6  -3  -5    8.59    0.68
  -6   3  -5    9.89    0.63
   6   3   5    9.71    0.57
  -6   3  -5    8.94    0.59
  -6   3  -5    8.68    0.73
   6   3   5    9.00    0.80
  -7  -3  -5    1.24    0.30
   7  -3   5    1.53    0.32
  -7  -3  -5    1.38    0.21
   7  -3   5    1.98    0.35
  -7   3  -5    1.26    0.26
  -7   3  -5    1.47    0.30
   7   3   5    1.40    0.35
   7   3   5    1.44    0.25
  -8  -3  -5    0.87    0.31
   8  -3   5    0.55    0.30
  -8  -3  -5    0.99    0.31
   8  -3   5    1.01    0.30
   8   3   5    1.29    0.36
  -8   3  -5    0.82    0.25
   8   3   5    0.66    0.22
   9  -3   5    0.87    0.32
   9  -3   5    0.91    0.35
  -9  -3  -5    0.90    0.35
  -9   3  -5    0.54    0.34
   9   3   5    0.39    0.25
   9  -4  -5    0.57    0.61
   9  -4  -5    0.94    0.47
  -9  -4   5    0.49    0.15
   9   4  -5    0.56    0.26
  -9   4   5    0.26    0.22
  -9   4   5    0.05    0.45
   8  -4  -5    1.09    0.59
  -8  -4   5    0.94    0.14
  -8  -4   5    0.97    0.43
   8  -4  -5    1.16    0.42
   8   4  -5    1.19    0.23
  -8   4   5    1.03    0.24
  -8   4   5    1.41    0.42
  -7  -4   5    0.56    0.34
   7  -4  -5   -0.35    0.47
  -7  -4   5    0.14    0.08
   7  -4  -5    0.24    0.30
  -7  -4   5   -0.16    0.39
   7  -4  -5    0.48    0.35
  -7   4   5    0.14    0.33
  -7   4   5    0.10    0.16
   7   4  -5   -0.17    0.16
   6  -4  -5   -0.09    0.25
   6  -4  -5   -0.15    0.26
  -6  -4   5   -0.11    0.20
  -6  -4   5   -0.42    0.26
  -6  -4   5    0.19    0.32
  -6  -4   5    0.07    0.07
  -6  -4   5   -0.03    0.14
   6  -4  -5   -0.15    0.40
  -6   4   5   -0.10    0.28
  -6   4   5   -0.09    0.13
   6   4  -5   -0.17    0.13
  -5  -4   5   11.22    0.72
  -5  -4   5   11.47    0.88
  -5  -4   5   11.57    0.61
   5  -4  -5   12.87    1.00
   5  -4  -5   11.36    0.80
   5  -4  -5   10.96    0.67
  -5  -4   5   11.62    0.48
  -5  -4   5   11.82    0.78
   5   4  -5   12.27    0.54
  -5   4   5   10.86    0.77
  -5   4   5   11.71    0.61
  -4  -4   5    0.99    0.13
  -4  -4   5    0.52    0.37
  -4  -4   5    0.96    0.22
   4  -4  -5    0.32    0.33
  -4  -4   5    0.52    0.24
  -4  -4   5    0.76    0.19
  -4   4   5    0.88    0.19
  -4   4   5    0.87    0.26
  -3  -4   5   13.71    0.77
  -3  -4   5   14.02    0.65
   3  -4  -5   14.14    0.65
  -3  -4   5   14.28    0.52
   3  -4  -5   14.17    0.78
  -3  -4   5   14.05    0.60
  -3  -4   5   12.80    0.97
  -3   4   5   14.70    0.84
  -3   4   5   13.87    0.66
  -2  -4   5    2.44    0.16
   2  -4  -5    2.52    0.23
  -2  -4   5    2.50    0.25
   2  -4  -5    2.73    0.53
   2  -4  -5    2.38    0.33
  -2  -4   5    2.27    0.26
   2  -4  -5    1.57    0.35
  -2  -4   5    2.02    0.36
  -2   4   5    2.25    0.25
   2   4  -5    2.25    0.38
  -2   4   5    2.15    0.30
   2   4  -5    2.60    0.56
  -2   4   5    2.91    0.39
   1  -4  -5   11.61    0.61
   1  -4  -5   11.13    0.64
  -1  -4   5   11.56    0.59
   1  -4  -5   11.96    0.53
   1  -4  -5   11.93    0.91
  -1  -4   5   11.69    0.47
  -1  -4   5   11.76    0.76
  -1   4   5   11.83    0.70
   1   4  -5   12.38    0.74
   1   4  -5   11.85    1.00
  -1   4   5   11.35    0.60
   0  -4  -5    5.07    0.57
   0  -4  -5    4.40    0.61
   0  -4  -5    4.65    0.43
   0  -4  -5    5.27    0.36
   0  -4  -5    5.57    0.36
   0  -4  -5    5.76    0.42
   0  -4   5    5.14    0.26
   0  -4   5    5.13    0.39
   0  -4  -5    5.54    0.69
   0  -4   5    4.91    0.51
   0  -4   5    5.71    0.48
   0   4   5    5.27    0.46
   0   4  -5    5.30    0.88
   0   4  -5    6.28    0.49
  -1  -4  -5   18.56    0.78
   1  -4   5   18.04    1.02
  -1  -4  -5   18.60    1.15
  -1  -4  -5   18.74    0.84
  -1  -4  -5   19.27    0.94
   1  -4   5   18.74    0.71
  -1  -4  -5   16.67    1.02
  -1  -4  -5   17.55    0.85
  -1  -4  -5   19.46    0.92
   1  -4   5   18.73    0.66
   1  -4   5   20.57    0.86
  -1   4  -5   18.18    0.96
  -1   4  -5   16.48    1.26
  -2  -4  -5    0.12    0.17
  -2  -4  -5    0.13    0.10
   2  -4   5    0.33    0.17
  -2  -4  -5    0.03    0.20
  -2  -4  -5    0.10    0.26
   2  -4   5    0.23    0.25
  -2  -4  -5    0.40    0.33
  -2  -4  -5   -0.03    0.17
   2  -4   5    0.05    0.12
   2   4   5    0.32    0.29
  -2   4  -5    0.02    0.14
   2   4   5   -0.05    0.16
  -2   4  -5    0.01    0.08
   3  -4   5    7.37    0.45
   3  -4   5    7.26    0.64
  -3  -4  -5    6.97    0.41
  -3  -4  -5    6.31    0.53
  -3  -4  -5    7.04    0.43
  -3  -4  -5    6.23    0.61
  -3  -4  -5    7.47    0.58
  -3  -4  -5    6.61    0.59
  -3   4  -5    7.09    0.53
   3   4   5    7.26    0.70
  -3   4  -5    6.39    0.37
  -4  -4  -5    0.14    0.12
   4  -4   5   -0.20    0.16
  -4  -4  -5    0.26    0.23
  -4  -4  -5    0.45    0.25
  -4  -4  -5    0.02    0.28
  -4  -4  -5    0.30    0.13
   4  -4   5    0.30    0.23
  -4  -4  -5   -0.04    0.24
   4  -4   5    0.18    0.28
  -4   4  -5    0.11    0.17
   4   4   5    0.57    0.30
  -4   4  -5    0.32    0.17
  -5  -4  -5    1.10    0.18
  -5  -4  -5    0.86    0.33
  -5  -4  -5    1.60    0.30
  -5  -4  -5    0.87    0.28
   5  -4   5    1.01    0.29
   5  -4   5    1.37    0.33
   5   4   5    1.56    0.39
  -5   4  -5    1.14    0.25
  -5   4  -5    1.04    0.27
   5   4   5    1.50    0.26
  -6  -4  -5    0.81    0.24
   6  -4   5    1.51    0.35
  -6  -4  -5    1.00    0.13
  -6  -4  -5    1.07    0.34
   6  -4   5    0.98    0.35
   6  -4   5    0.69    0.32
  -6   4  -5    1.29    0.34
  -6   4  -5    0.91    0.25
   6   4   5    1.05    0.25
   6   4   5    1.32    0.40
  -7  -4  -5    1.04    0.36
   7  -4   5    0.32    0.31
   7  -4   5    0.85    0.39
   7   4   5    0.20    0.27
   7   4   5    0.62    0.41
  -7   4  -5    0.69    0.23
   8  -4   5    0.10    0.33
   8  -4   5    0.03    0.38
  -8   4  -5    0.29    0.25
   8   4   5    0.77    0.50
  -7  -5   5    1.04    0.16
  -7  -5   5    0.27    0.52
   7  -5  -5    1.18    0.45
  -7   5   5    0.58    0.24
  -7   5   5    0.77    0.47
  -6  -5   5    2.55    0.61
  -6  -5   5    2.11    0.25
  -6  -5   5    2.84    0.28
   6  -5  -5    3.81    0.75
   6  -5  -5    1.84    0.43
  -6   5   5    1.96    0.39
  -6   5   5    1.84    0.51
   5  -5  -5    0.28    0.56
  -5  -5   5    0.73    0.14
  -5  -5   5    0.82    0.14
  -5  -5   5    0.84    0.41
   5  -5  -5    0.93    0.36
  -5  -5   5    1.12    0.30
  -5   5   5    0.80    0.36
  -5   5   5    0.94    0.22
   4  -5  -5    4.75    0.83
   4  -5  -5    3.74    0.45
   4  -5  -5    4.39    0.58
  -4  -5   5    4.22    0.27
  -4  -5   5    4.32    0.34
  -4  -5   5    5.03    0.71
  -4  -5   5    5.31    1.04
  -4  -5   5    3.21    0.51
  -4   5   5    4.46    0.68
  -4   5   5    4.06    0.41
  -3  -5   5    0.61    0.30
   3  -5  -5    0.09    0.20
   3  -5  -5    0.57    0.25
  -3  -5   5    0.70    0.26
  -3  -5   5    0.30    0.11
  -3  -5   5    0.26    0.60
  -3  -5   5    0.46    0.16
   3  -5  -5    0.61    0.43
  -3   5   5    0.36    0.31
  -3   5   5    0.33    0.18
  -2  -5   5    4.68    0.31
  -2  -5   5    5.40    0.41
   2  -5  -5    4.90    0.80
   2  -5  -5    4.97    0.39
  -2  -5   5    4.67    0.42
   2  -5  -5    4.77    0.49
  -2  -5   5    4.97    0.59
   2   5  -5    5.08    0.61
  -2   5   5    5.16    0.45
  -2   5   5    3.89    0.56
  -1  -5   5    0.33    0.18
   1  -5  -5    0.18    0.16
  -1  -5   5    0.43    0.14
   1  -5  -5    0.16    0.45
  -1  -5   5    0.09    0.29
  -1  -5   5    0.07    0.17
   1  -5  -5    0.31    0.18
  -1   5   5   -0.22    0.23
  -1   5   5    0.46    0.19
   1   5  -5    0.66    0.27
   0  -5  -5    2.44    0.34
   0  -5  -5    2.82    0.34
   0  -5   5    2.15    0.44
   0  -5   5    1.81    0.28
   0  -5  -5    3.68    0.70
   0  -5  -5    2.07    0.44
   0  -5   5    1.89    0.27
   0  -5   5    2.08    0.36
   0   5   5    3.15    0.44
   0   5  -5    1.76    0.36
  -1  -5  -5    2.27    0.47
   1  -5   5    2.26    0.47
   1  -5   5    2.33    0.36
  -1  -5  -5    1.64    0.48
   1  -5   5    1.88    0.25
  -1  -5  -5    2.54    0.31
  -1  -5  -5    2.75    0.38
   1  -5   5    1.62    0.29
  -1   5  -5    2.77    0.44
   1   5   5    2.27    0.35
  -2  -5  -5    1.29    0.31
   2  -5   5    1.54    0.32
   2  -5   5    1.23    0.22
  -2  -5  -5    0.72    0.32
  -2  -5  -5    1.84    0.52
   2  -5   5    0.87    0.36
  -2  -5  -5    1.22    0.27
   2  -5   5    1.53    0.28
  -2  -5  -5    1.08    0.19
  -2   5  -5    0.89    0.26
  -3  -5  -5    1.74    0.51
  -3  -5  -5    1.61    0.36
  -3  -5  -5    1.26    0.35
   3  -5   5    1.79    0.42
  -3  -5  -5    1.37    0.26
  -3  -5  -5    1.04    0.19
   3  -5   5    1.08    0.30
  -3   5  -5    0.88    0.28
   4  -5   5    4.04    0.67
  -4  -5  -5    4.27    0.36
   4  -5   5    3.12    0.55
  -4  -5  -5    4.04    0.59
   4  -5   5    2.94    0.40
  -4  -5  -5    3.59    0.38
  -4  -5  -5    3.69    0.64
  -4   5  -5    4.91    0.51
  -5  -5  -5   -0.21    0.33
  -5  -5  -5   -0.23    0.16
  -5  -5  -5   -0.07    0.49
   5  -5   5    0.05    0.34
  -5  -5  -5   -0.04    0.15
   5  -5   5   -0.69    0.43
   5  -5   5    0.18    0.26
  -5   5  -5    0.26    0.26
  -6  -5  -5    0.73    0.55
   6  -5   5    1.46    0.40
   6  -5   5    1.36    0.48
  -6  -5  -5    1.13    0.28
   6  -5   5    0.64    0.41
  -6   5  -5    0.90    0.31
   4  -6  -5    0.50    0.73
  -4  -6   5    0.88    0.21
  -4  -6   5    0.92    0.52
  -4  -6   5    1.46    0.43
   4  -6  -5    1.16    0.43
  -4   6   5    0.09    0.43
   3  -6  -5    0.14    0.66
   3  -6  -5    0.81    0.38
  -3  -6   5    0.33    0.21
  -3  -6   5   -0.34    0.41
  -3  -6   5   -0.35    0.40
  -3   6   5    0.00    0.40
   2  -6  -5    0.22    0.33
  -2  -6   5    0.54    0.26
   2  -6  -5    0.96    0.67
  -2  -6   5    0.20    0.43
  -2   6   5    0.91    0.35
   2   6  -5    0.31    0.37
  -2   6   5    0.15    0.28
   1  -6  -5    1.54    0.69
   1  -6  -5    2.08    0.42
   1  -6  -5    1.36    0.35
  -1  -6   5    1.84    0.52
   1   6  -5    2.49    0.47
  -1   6   5    2.39    0.48
   0  -6   5   -0.13    0.42
   0  -6  -5    0.57    0.25
   0  -6   5   -0.12    0.29
   0  -6  -5   -0.26    0.35
   0  -6  -5   -0.01    0.59
   0   6   5   -0.27    0.35
   0   6  -5    0.42    0.33
  -1  -6  -5    0.79    0.23
  -1  -6  -5   -0.21    0.62
   1  -6   5    0.09    0.32
  -1  -6  -5    0.26    0.31
   1  -6   5   -0.32    0.48
  -1   6  -5    0.23    0.34
  -2  -6  -5    0.01    0.31
  -2  -6  -5    0.40    0.22
   2  -6   5    0.54    0.34
  -2  -6  -5    0.74    0.67
   2  -6   5    0.53    0.49
  -2   6  -5    0.33    0.36
   3  -6   5    1.10    0.54
  -3  -6  -5    0.07    0.22
  -3  -6  -5   -0.50    0.29
  -3  -6  -5   -0.53    0.68
  -3  -6  -5   -0.07    0.41
  -3   6  -5   -0.15    0.35
 -12   0   6    5.70    0.72
 -12   0   6    4.78    0.75
  12   0  -6    5.28    0.88
 -11   0   6    3.76    0.55
 -11   0   6    3.24    0.56
  11   0  -6    3.45    0.55
 -10   0   6    5.25    0.52
 -10   0   6    5.73    0.60
  10   0  -6    4.20    0.76
   9   0  -6    7.36    0.67
  -9   0   6    7.59    0.62
   8   0  -6   12.66    0.82
   8   0  -6   13.88    0.57
   8   0  -6   13.17    0.51
  -8   0   6   14.35    0.82
  -8   0   6   13.99    0.66
  -7   0   6   11.05    0.75
   7   0  -6   11.25    0.43
   7   0  -6    9.88    0.73
   7   0  -6   10.85    0.43
   7   0  -6   12.18    0.73
  -7   0   6   11.46    0.55
   6   0  -6    3.95    0.21
   6   0  -6    3.00    0.41
  -6   0   6    4.13    0.45
   6   0  -6    2.69    0.18
   6   0  -6    4.03    0.37
  -6   0   6    3.17    0.26
  -6   0   6    3.12    0.34
   5   0  -6    0.28    0.15
   5   0  -6    0.01    0.06
  -5   0   6    0.06    0.15
   5   0  -6    0.09    0.12
   5   0  -6   -0.17    0.11
   5   0  -6    0.10    0.07
  -5   0   6    0.10    0.07
  -5   0   6    0.07    0.11
  -4   0   6   10.21    0.42
  -4   0   6    9.18    0.54
  -4   0   6   11.21    0.53
   4   0  -6   11.05    0.41
  -4   0   6   11.15    0.51
   4   0  -6   10.02    0.37
   4   0  -6   11.26    0.55
   3   0  -6   90.31    2.91
  -3   0   6   90.27    3.25
  -3   0   6   91.67    2.86
  -3   0   6   91.83    2.96
  -3   0   6   91.37    3.24
  -3   0   6   85.24    2.61
   3   0  -6   92.01    2.86
   3   0  -6   91.28    2.57
   2   0  -6  106.36    3.22
  -2   0   6   95.88    3.60
  -2   0   6  107.30    3.31
  -2   0   6  104.39    3.17
   2   0  -6  106.58    3.24
  -2   0   6   96.30    2.92
   1   0  -6    4.03    0.16
  -1   0   6    3.72    0.19
  -1   0   6    4.02    0.17
   1   0  -6    3.79    0.19
   1   0  -6    4.32    0.23
  -1   0   6    4.23    0.21
   1   0  -6    3.75    0.21
   0   0  -6  299.72    9.11
   0   0   6  293.83    8.20
   0   0   6  271.84   10.07
   0   0  -6  274.43   10.12
   0   0   6  301.46    9.26
   0   0  -6  281.41    8.12
   0   0  -6  302.74    8.84
   0   0  -6  301.23    8.75
  -1   0  -6  120.66    3.58
  -1   0  -6  129.41    4.04
   1   0   6  127.49    4.03
  -1   0  -6  129.53    3.92
   1   0   6  127.15    3.90
  -1   0  -6  134.37    4.43
   1   0   6  123.77    4.43
  -2   0  -6    2.67    0.21
  -2   0  -6    3.55    0.17
   2   0   6    3.61    0.12
   2   0   6    2.94    0.19
  -2   0  -6    3.12    0.25
  -2   0  -6    3.78    0.20
   2   0   6    3.73    0.25
   2   0   6    2.89    0.17
   3   0   6    0.99    0.14
   3   0   6    1.59    0.06
  -3   0  -6    1.58    0.24
   3   0   6    1.19    0.11
   3   0   6    1.27    0.13
  -3   0  -6    1.16    0.19
  -4   0  -6   87.12    3.28
   4   0   6   93.49    2.94
  -4   0  -6   88.18    3.02
  -4   0  -6   95.34    3.10
   4   0   6   94.81    2.96
   4   0   6   89.51    3.38
  -5   0  -6    0.02    0.17
  -5   0  -6    0.12    0.07
   5   0   6    0.06    0.06
   5   0   6    0.17    0.10
   5   0   6    0.21    0.17
  -5   0  -6    0.35    0.19
  -6   0  -6    4.82    0.59
  -6   0  -6    6.05    0.57
   6   0   6    6.96    0.44
  -6   0  -6    6.19    0.41
   6   0   6    5.58    0.30
   6   0   6    5.70    0.58
   7   0   6    0.12    0.08
  -7   0  -6    0.00    0.32
  -7   0  -6   -0.16    0.11
   7   0   6   -0.01    0.15
  -8   0  -6    3.22    0.36
   8   0   6    2.86    0.24
  -8   0  -6    2.55    0.54
   8   0   6    3.01    0.42
  -9   0  -6    0.74    0.22
   9   0   6    0.25    0.23
   9   0   6    0.52    0.14
  10   0   6    0.63    0.29
  10   0   6    0.37    0.17
  11   0   6    0.46    0.35
 -11   0  -6    0.58    0.34
 -11  -1   6    3.92    0.65
 -11  -1   6    3.82    0.51
 -11   1   6    3.80    0.54
  11   1  -6    4.35    0.70
 -11   1   6    4.37    0.64
  10  -1  -6    0.17    0.34
 -10  -1   6   -0.03    0.26
 -10  -1   6   -0.13    0.21
  10  -1  -6    0.58    0.23
  10   1  -6    0.46    0.33
 -10   1   6    0.18    0.22
 -10   1   6    0.50    0.26
  -9  -1   6    1.75    0.37
   9  -1  -6    1.64    0.28
   9  -1  -6    1.95    0.37
  -9   1   6    0.98    0.27
   9   1  -6    1.68    0.33
  -8  -1   6   14.13    0.93
  -8  -1   6   15.22    0.64
   8  -1  -6   14.94    0.80
   8  -1  -6   14.68    0.95
   8  -1  -6   13.88    0.78
   8  -1  -6   13.90    0.89
  -8  -1   6   15.62    0.94
  -8   1   6   15.54    0.81
   8   1  -6   15.33    0.85
   8   1  -6   13.65    0.57
  -8   1   6   14.08    0.75
   7  -1  -6   13.91    0.81
  -7  -1   6   12.06    0.80
  -7  -1   6   13.23    0.79
   7  -1  -6   13.33    0.71
   7  -1  -6   12.26    0.51
   7  -1  -6   11.67    0.79
   7  -1  -6   13.63    0.74
  -7  -1   6   12.65    0.54
  -7   1   6   12.71    0.79
   7   1  -6   12.17    0.81
   7   1  -6   12.15    0.49
  -7   1   6   12.01    0.65
  -7   1   6   12.56    0.67
   7   1  -6   13.11    0.78
   6  -1  -6   22.94    1.09
  -6  -1   6   21.50    0.75
  -6  -1   6   21.51    0.99
   6  -1  -6   21.71    0.76
   6  -1  -6   21.56    1.05
   6  -1  -6   22.04    0.96
  -6  -1   6   21.87    1.10
   6  -1  -6   21.74    1.01
   6   1  -6   22.22    0.74
  -6   1   6   22.55    1.01
   6   1  -6   22.24    0.97
  -6   1   6   21.96    0.97
   6   1  -6   21.50    1.08
  -5  -1   6   12.93    0.63
   5  -1  -6   12.77    0.63
   5  -1  -6   12.79    0.69
   5  -1  -6   11.58    0.47
  -5  -1   6   11.91    0.45
   5  -1  -6   13.04    0.69
  -5  -1   6   12.28    0.71
  -5  -1   6   12.43    0.71
   5  -1  -6   11.95    0.64
  -5   1   6   12.00    0.63
   5   1  -6   12.23    0.62
   5   1  -6   11.24    0.45
  -5   1   6   11.52    0.59
  -5   1   6   12.29    0.57
  -4  -1   6   68.25    1.92
   4  -1  -6   64.27    2.27
  -4  -1   6   63.94    2.20
  -4  -1   6   65.04    2.13
   4  -1  -6   69.92    2.45
   4  -1  -6   66.10    1.97
  -4  -1   6   67.75    2.54
   4  -1  -6   65.33    2.28
  -4  -1   6   68.66    2.51
   4   1  -6   64.59    2.15
  -4   1   6   67.17    2.08
  -4   1   6   64.93    2.20
  -4   1   6   69.40    2.41
   4   1  -6   67.77    2.22
   4   1  -6   64.76    1.94
  -4   1   6   62.61    2.36
  -3  -1   6  105.47    3.90
   3  -1  -6  105.28    3.13
   3  -1  -6  109.21    3.50
  -3  -1   6  110.60    3.08
   3  -1  -6  106.80    3.81
  -3  -1   6  108.96    3.94
  -3  -1   6  111.32    3.39
  -3   1   6  109.63    3.42
   3   1  -6  110.50    3.42
  -3   1   6  111.40    3.80
  -3   1   6  109.58    3.22
   3   1  -6  104.27    3.11
   3   1  -6  109.94    3.48
  -3   1   6  110.07    3.67
   2  -1  -6   31.68    1.10
  -2  -1   6   31.56    1.00
  -2  -1   6   30.71    0.91
  -2  -1   6   29.19    1.21
   2  -1  -6   30.64    0.95
  -2  -1   6   30.52    0.99
  -2   1   6   30.83    1.08
  -2   1   6   30.17    1.08
  -2   1   6   29.96    1.04
   2   1  -6   30.64    1.23
   2   1  -6   30.61    1.03
  -2   1   6   30.92    1.02
   2   1  -6   30.83    1.09
   2   1  -6   28.68    0.95
  -2   1   6   29.15    1.18
  -1  -1   6   74.03    2.07
   1  -1  -6   72.53    2.30
   1  -1  -6   71.47    2.09
   1  -1  -6   72.33    2.39
  -1  -1   6   74.87    2.61
  -1  -1   6   75.24    2.31
  -1  -1   6   72.65    2.19
  -1   1   6   69.64    2.47
  -1   1   6   73.79    2.16
   1   1  -6   69.77    2.63
   1   1  -6   74.10    2.41
   1   1  -6   72.28    2.23
   1   1  -6   68.64    2.13
  -1   1   6   71.29    2.28
   0  -1  -6   31.73    1.10
   0  -1  -6   32.26    1.06
   0  -1   6   32.02    1.08
   0  -1  -6   31.60    0.94
   0  -1  -6   30.83    1.10
   0  -1   6   32.20    1.20
   0  -1  -6   30.79    1.09
   0  -1   6   31.40    0.94
   0   1   6   32.19    1.12
   0   1  -6   30.37    1.22
   0   1  -6   31.71    0.98
   0   1  -6   31.75    1.00
   0   1   6   31.39    1.00
   0   1   6   30.52    1.17
   0   1  -6   30.98    1.01
  -1  -1  -6   73.85    2.10
   1  -1   6   72.86    2.43
   1  -1   6   73.47    2.28
  -1  -1  -6   73.88    2.38
   1  -1   6   74.09    2.15
  -1  -1  -6   72.71    2.41
   1  -1   6   74.89    2.66
  -1  -1  -6   76.60    2.34
  -1  -1  -6   73.24    2.59
   1   1   6   78.53    2.65
  -1   1  -6   76.09    2.68
  -1   1  -6   73.75    2.54
   1   1   6   72.42    2.49
  -1   1  -6   72.85    2.32
  -1   1  -6   76.93    2.22
   2  -1   6   40.93    1.42
  -2  -1  -6   40.85    1.15
  -2  -1  -6   40.72    1.50
   2  -1   6   41.45    1.31
   2  -1   6   39.33    1.53
   2  -1   6   42.17    1.33
  -2  -1  -6   41.46    1.41
   2  -1   6   40.23    1.23
  -2  -1  -6   40.90    1.37
   2   1   6   39.09    1.44
  -2   1  -6   40.01    1.54
   2   1   6   41.40    1.22
  -2   1  -6   41.25    1.54
  -2   1  -6   40.99    1.39
   2   1   6   43.05    1.57
   2   1   6   40.27    1.38
  -3  -1  -6    6.49    0.43
   3  -1   6    7.29    0.31
  -3  -1  -6    7.63    0.39
   3  -1   6    6.93    0.36
   3  -1   6    7.20    0.42
  -3  -1  -6    7.05    0.32
   3  -1   6    7.10    0.38
   3  -1   6    6.70    0.36
  -3   1  -6    6.67    0.52
   3   1   6    6.86    0.37
  -3   1  -6    8.03    0.39
   3   1   6    5.99    0.35
   3   1   6    7.95    0.46
  -4  -1  -6    3.66    0.24
  -4  -1  -6    3.11    0.35
   4  -1   6    3.70    0.24
   4  -1   6    3.47    0.28
  -4  -1  -6    3.11    0.27
   4  -1   6    3.63    0.27
   4  -1   6    3.13    0.20
  -4   1  -6    4.09    0.38
  -4   1  -6    3.21    0.43
   4   1   6    3.19    0.36
   4   1   6    3.21    0.24
  -4   1  -6    2.98    0.24
   4   1   6    3.48    0.26
   5  -1   6    2.71    0.21
  -5  -1  -6    2.26    0.40
  -5  -1  -6    2.32    0.28
   5  -1   6    2.29    0.36
   5  -1   6    2.69    0.27
  -5  -1  -6    2.12    0.26
   5  -1   6    2.27    0.27
   5  -1   6    2.44    0.21
  -5   1  -6    1.97    0.34
   5   1   6    2.61    0.40
  -5   1  -6    2.60    0.50
   5   1   6    2.47    0.25
   5   1   6    2.42    0.22
  -6  -1  -6    1.11    0.25
  -6  -1  -6    1.31    0.34
   6  -1   6    1.11    0.20
   6  -1   6    0.63    0.23
   6  -1   6    1.23    0.20
  -6  -1  -6    0.91    0.20
   6  -1   6    1.02    0.15
   6  -1   6    1.15    0.18
   6   1   6    1.16    0.30
   6   1   6    1.22    0.22
  -6   1  -6    1.02    0.31
  -6   1  -6    1.03    0.38
  -6   1  -6    1.38    0.19
   6   1   6    1.10    0.19
  -7  -1  -6    3.06    0.37
   7  -1   6    3.63    0.28
   7  -1   6    4.12    0.39
  -7  -1  -6    2.66    0.49
   7  -1   6    2.97    0.26
  -7   1  -6    3.28    0.32
  -7   1  -6    2.91    0.57
  -7   1  -6    2.59    0.50
   7   1   6    3.66    0.36
   8  -1   6    0.11    0.18
  -8  -1  -6    0.20    0.18
   8  -1   6    0.08    0.14
   8  -1   6    0.02    0.14
   8  -1   6    0.11    0.11
  -8  -1  -6    0.37    0.38
   8   1   6    0.20    0.15
   8   1   6    0.19    0.17
   9  -1   6    0.77    0.19
  -9  -1  -6    0.83    0.26
   9  -1   6    1.11    0.28
  -9  -1  -6    0.84    0.53
   9  -1   6    1.12    0.18
  -9   1  -6    0.73    0.21
   9   1   6    1.36    0.28
  10  -1   6    0.04    0.30
 -10  -1  -6   -0.26    0.24
  10  -1   6   -0.05    0.15
  10   1   6   -0.01    0.27
  10   1   6    0.34    0.26
 -10   1  -6   -0.19    0.21
 -11  -2   6    0.05    0.39
 -11  -2   6    0.07    0.24
  11  -2  -6   -0.37    0.46
 -11   2   6    0.64    0.25
 -11   2   6    1.14    0.42
  11   2  -6    0.35    0.35
 -10  -2   6    1.98    0.45
 -10  -2   6    2.02    0.33
  10  -2  -6    2.02    0.44
  10  -2  -6    2.41    0.51
  10   2  -6    3.12    0.52
 -10   2   6    2.12    0.42
 -10   2   6    1.76    0.38
   9  -2  -6    2.06    0.42
   9  -2  -6    2.04    0.40
   9  -2  -6    1.98    0.57
  -9  -2   6    2.02    0.28
  -9  -2   6    1.45    0.39
   9   2  -6    2.29    0.44
  -9   2   6    2.99    0.47
  -8  -2   6    2.81    0.51
  -8  -2   6    2.78    0.24
   8  -2  -6    3.00    0.53
   8  -2  -6    2.89    0.53
  -8  -2   6    2.29    0.46
  -8   2   6    3.38    0.32
   8   2  -6    2.78    0.42
  -8   2   6    2.22    0.37
  -7  -2   6    5.40    0.28
   7  -2  -6    4.56    0.58
  -7  -2   6    5.11    0.57
   7  -2  -6    6.51    0.57
   7  -2  -6    5.04    0.66
  -7  -2   6    6.28    0.60
   7   2  -6    5.32    0.42
  -7   2   6    5.33    0.47
  -7   2   6    5.26    0.36
   6  -2  -6    0.69    0.22
  -6  -2   6    0.69    0.11
   6  -2  -6    0.84    0.18
  -6  -2   6    0.61    0.22
   6  -2  -6    0.60    0.21
  -6  -2   6    0.13    0.21
  -6  -2   6    0.69    0.28
   6  -2  -6    0.57    0.32
   6  -2  -6    0.53    0.25
   6   2  -6    0.76    0.20
   6   2  -6    0.41    0.15
  -6   2   6    0.68    0.21
  -6   2   6    0.62    0.21
  -6   2   6    0.57    0.12
   5  -2  -6    7.74    0.61
   5  -2  -6    7.49    0.53
  -5  -2   6    6.54    0.54
   5  -2  -6    7.44    0.43
  -5  -2   6    7.67    0.49
  -5  -2   6    7.57    0.34
   5  -2  -6    6.93    0.62
  -5  -2   6    7.71    0.27
  -5  -2   6    7.32    0.30
   5  -2  -6    7.40    0.48
   5   2  -6    7.77    0.43
  -5   2   6    7.42    0.49
  -5   2   6    6.20    0.35
  -5   2   6    7.96    0.49
   5   2  -6    7.26    0.42
   4  -2  -6   10.69    0.51
   4  -2  -6   10.93    0.70
  -4  -2   6   10.45    0.67
   4  -2  -6   10.81    0.54
  -4  -2   6   10.14    0.64
   4  -2  -6   10.88    0.72
  -4  -2   6   11.77    0.54
  -4  -2   6   11.07    0.39
   4  -2  -6   11.25    0.62
   4   2  -6   10.22    0.53
   4   2  -6   10.27    0.50
  -4   2   6   10.20    0.45
  -4   2   6   10.24    0.54
   4   2  -6   10.88    0.49
  -4   2   6   11.40    0.58
  -3  -2   6   25.73    0.91
  -3  -2   6   25.57    1.13
  -3  -2   6   25.08    0.90
   3  -2  -6   26.19    0.93
   3  -2  -6   25.25    1.13
  -3  -2   6   26.54    0.82
   3  -2  -6   25.80    0.99
   3  -2  -6   26.19    1.05
   3   2  -6   25.57    0.93
  -3   2   6   25.30    0.96
   3   2  -6   25.12    1.05
  -3   2   6   25.17    1.19
  -3   2   6   26.58    1.01
  -3   2   6   26.79    0.95
   3   2  -6   26.76    1.18
   2  -2  -6    2.65    0.24
   2  -2  -6    2.22    0.33
  -2  -2   6    2.63    0.28
   2  -2  -6    2.55    0.15
  -2  -2   6    2.48    0.16
  -2  -2   6    2.19    0.18
  -2  -2   6    2.17    0.13
   2  -2  -6    2.46    0.23
   2   2  -6    2.42    0.35
  -2   2   6    2.52    0.13
  -2   2   6    2.14    0.21
  -2   2   6    2.11    0.30
   2   2  -6    2.50    0.26
   2   2  -6    2.70    0.27
   2   2  -6    2.13    0.12
  -2   2   6    2.11    0.24
   1  -2  -6    4.36    0.27
  -1  -2   6    3.68    0.21
  -1  -2   6    4.31    0.28
   1  -2  -6    4.23    0.37
   1  -2  -6    4.37    0.29
  -1  -2   6    3.82    0.31
   1   2  -6    3.41    0.31
  -1   2   6    3.95    0.29
  -1   2   6    3.84    0.25
  -1   2   6    3.63    0.36
   1   2  -6    3.42    0.30
   1   2  -6    3.92    0.40
   0  -2   6   19.27    0.83
   0  -2  -6   20.46    0.80
   0  -2  -6   20.19    0.74
   0  -2  -6   19.87    0.86
   0  -2   6   22.16    0.88
   0  -2   6   20.64    0.72
   0  -2  -6   20.52    0.76
   0  -2  -6   21.21    0.76
   0  -2  -6   20.63    0.74
   0   2   6   20.61    0.78
   0   2  -6   20.92    0.81
   0   2  -6   18.30    0.94
   0   2   6   18.74    0.94
   0   2  -6   19.63    0.90
  -1  -2  -6    0.38    0.11
   1  -2   6    0.49    0.12
  -1  -2  -6    0.41    0.11
  -1  -2  -6    0.27    0.07
   1  -2   6    0.48    0.07
  -1  -2  -6    0.18    0.13
   1  -2   6    0.38    0.15
  -1  -2  -6    0.65    0.14
   1  -2   6    0.70    0.15
   1  -2   6    0.48    0.10
  -1   2  -6    0.46    0.10
  -1   2  -6    0.46    0.08
   1   2   6    0.54    0.11
  -1   2  -6    0.27    0.20
   1   2   6    0.30    0.13
  -2  -2  -6    1.83    0.16
  -2  -2  -6    1.88    0.19
   2  -2   6    1.90    0.19
  -2  -2  -6    1.58    0.21
   2  -2   6    1.71    0.22
   2  -2   6    2.37    0.31
  -2  -2  -6    1.65    0.18
   2  -2   6    2.15    0.21
  -2  -2  -6    1.57    0.23
  -2   2  -6    2.35    0.23
   2   2   6    1.97    0.19
  -2   2  -6    1.98    0.36
   2   2   6    2.45    0.25
   2   2   6    1.76    0.27
  -2   2  -6    2.06    0.21
   3  -2   6    9.57    0.46
   3  -2   6   10.06    0.55
  -3  -2  -6    9.53    0.36
   3  -2   6    9.16    0.51
  -3  -2  -6    9.23    0.51
  -3  -2  -6   10.00    0.44
   3  -2   6    9.68    0.54
  -3  -2  -6    9.58    0.56
   3  -2   6    9.75    0.44
  -3   2  -6    8.81    0.49
  -3   2  -6    9.01    0.70
   3   2   6    9.34    0.56
   3   2   6   10.02    0.49
   3   2   6    8.89    0.55
  -3   2  -6    9.01    0.51
   4  -2   6    2.79    0.27
   4  -2   6    2.95    0.28
  -4  -2  -6    3.28    0.24
   4  -2   6    3.41    0.32
   4  -2   6    2.78    0.31
  -4  -2  -6    3.66    0.42
  -4  -2  -6    2.99    0.30
   4  -2   6    2.80    0.36
  -4   2  -6    3.69    0.60
   4   2   6    3.18    0.27
   4   2   6    3.86    0.35
  -4   2  -6    3.25    0.28
   4   2   6    3.22    0.38
  -4   2  -6    3.70    0.38
   5  -2   6    3.46    0.35
   5  -2   6    3.39    0.34
   5  -2   6    2.97    0.40
   5  -2   6    3.17    0.41
  -5  -2  -6    3.48    0.25
   5  -2   6    3.02    0.30
  -5  -2  -6    3.86    0.36
  -5  -2  -6    3.21    0.46
   5   2   6    2.84    0.44
   5   2   6    3.66    0.30
  -5   2  -6    4.58    0.70
  -5   2  -6    3.40    0.30
   5   2   6    3.74    0.36
  -5   2  -6    3.51    0.46
   6  -2   6    0.68    0.27
  -6  -2  -6    0.56    0.21
   6  -2   6    0.60    0.18
  -6  -2  -6    0.25    0.14
   6  -2   6    0.57    0.17
   6   2   6    0.36    0.28
  -6   2  -6    0.14    0.28
   6   2   6    0.65    0.21
   7  -2   6    3.62    0.37
  -7  -2  -6    3.49    0.41
   7  -2   6    3.87    0.38
   7  -2   6    4.09    0.44
   7  -2   6    3.82    0.47
  -7   2  -6    3.81    0.36
  -7   2  -6    2.71    0.49
   7   2   6    4.48    0.44
   7   2   6    4.09    0.37
  -8  -2  -6    2.49    0.43
   8  -2   6    2.25    0.34
   8  -2   6    2.24    0.37
   8  -2   6    2.80    0.45
  -8  -2  -6    2.64    0.45
   8  -2   6    2.57    0.39
   8   2   6    2.69    0.36
  -8   2  -6    2.47    0.32
   8   2   6    2.38    0.44
   9  -2   6    1.11    0.23
  -9  -2  -6    1.07    0.32
   9  -2   6    1.34    0.31
  -9   2  -6    1.14    0.26
   9   2   6    0.88    0.29
   9   2   6    0.83    0.24
  10  -2   6    1.41    0.39
  10  -2   6    0.89    0.23
 -10  -2  -6    1.08    0.37
  10   2   6    0.83    0.31
 -10   2  -6    0.79    0.27
  10  -3  -6    0.36    0.49
 -10  -3   6    0.52    0.19
  10  -3  -6    0.76    0.53
 -10   3   6    1.09    0.46
  10   3  -6    0.44    0.28
 -10   3   6    0.14    0.19
  -9  -3   6    2.40    0.26
  -9  -3   6    2.62    0.52
   9  -3  -6    2.40    0.58
   9  -3  -6    2.91    0.55
   9   3  -6    2.97    0.45
  -9   3   6    2.68    0.33
  -8  -3   6    4.71    0.69
  -8  -3   6    4.29    0.28
   8  -3  -6    6.21    0.70
   8  -3  -6    5.91    0.81
   8  -3  -6    5.30    0.68
   8   3  -6    4.93    0.45
  -8   3   6    5.88    0.64
  -8   3   6    4.66    0.37
  -7  -3   6    0.06    0.28
   7  -3  -6    0.58    0.27
   7  -3  -6   -0.01    0.36
  -7  -3   6   -0.12    0.32
   7  -3  -6   -0.15    0.30
   7   3  -6    0.41    0.16
  -7   3   6   -0.28    0.24
   6  -3  -6    8.93    0.71
  -6  -3   6    8.95    0.67
   6  -3  -6    9.73    0.81
  -6  -3   6    9.48    0.37
  -6  -3   6    9.03    0.73
   6  -3  -6    8.82    0.93
   6  -3  -6    8.76    0.64
   6   3  -6    9.80    0.51
  -6   3   6    8.92    0.47
  -6   3   6    9.44    0.67
   5  -3  -6    9.42    0.66
   5  -3  -6    8.81    0.86
  -5  -3   6    8.88    0.58
   5  -3  -6    9.86    0.55
  -5  -3   6    8.89    0.38
   5  -3  -6    9.96    0.79
  -5  -3   6    9.02    0.70
  -5  -3   6    9.48    0.37
  -5  -3   6    8.85    0.55
   5   3  -6    9.22    0.44
  -5   3   6    9.17    0.46
   5   3  -6    9.02    0.60
  -5   3   6    9.00    0.63
  -4  -3   6    1.48    0.30
   4  -3  -6    1.79    0.45
   4  -3  -6    1.46    0.24
  -4  -3   6    1.64    0.15
   4  -3  -6    1.64    0.28
  -4  -3   6    1.59    0.19
   4  -3  -6    1.62    0.31
  -4  -3   6    1.23    0.26
  -4  -3   6    1.45    0.23
   4  -3  -6    0.97    0.29
   4   3  -6    1.76    0.31
   4   3  -6    1.56    0.15
  -4   3   6    1.52    0.28
  -4   3   6    1.98    0.34
   4   3  -6    1.59    0.32
  -4   3   6    1.70    0.16
   3  -3  -6    8.22    0.68
   3  -3  -6    8.76    0.42
  -3  -3   6    8.50    0.38
  -3  -3   6    8.35    0.46
  -3  -3   6    8.20    0.41
  -3  -3   6    8.67    0.58
   3  -3  -6    8.63    0.53
   3  -3  -6    8.60    0.53
   3  -3  -6    7.52    0.70
   3   3  -6    9.06    0.59
   3   3  -6    7.81    0.65
  -3   3   6    7.98    0.46
  -3   3   6    8.88    0.56
  -3   3   6    9.14    0.40
   3   3  -6    9.14    0.61
  -2  -3   6   46.05    1.80
   2  -3  -6   45.18    1.54
   2  -3  -6   43.27    1.58
   2  -3  -6   44.45    1.82
  -2  -3   6   43.21    1.64
   2   3  -6   42.85    1.79
   2   3  -6   43.99    1.57
  -2   3   6   44.43    1.52
   2   3  -6   45.77    1.90
  -2   3   6   43.31    1.59
  -2   3   6   42.89    1.64
   1  -3  -6   12.96    0.50
  -1  -3   6   13.08    0.68
   1  -3  -6   12.42    0.64
  -1  -3   6   12.95    0.68
  -1  -3   6   12.46    0.70
   1  -3  -6   12.57    0.60
   1  -3  -6   12.80    0.79
  -1   3   6   13.43    0.58
   1   3  -6   11.93    0.84
  -1   3   6   12.80    0.65
   0  -3  -6   10.22    0.46
   0  -3   6   10.74    0.52
   0  -3  -6   10.11    0.54
   0  -3  -6   10.89    0.51
   0  -3   6   10.59    0.59
   0  -3   6   10.24    0.65
   0  -3   6   10.33    0.61
   0  -3  -6   10.65    0.51
   0  -3  -6   10.33    0.65
   0  -3  -6   10.71    0.58
   0   3   6   11.54    0.58
   0   3   6   11.09    0.76
   0   3  -6   10.67    0.81
  -1  -3  -6    1.94    0.30
  -1  -3  -6    1.68    0.21
  -1  -3  -6    1.68    0.29
   1  -3   6    1.69    0.22
   1  -3   6    1.41    0.25
  -1  -3  -6    1.79    0.23
  -1  -3  -6    1.51    0.29
   1  -3   6    1.87    0.32
   1  -3   6    1.77    0.28
   1   3   6    1.88    0.26
   1   3   6    1.74    0.35
  -1   3  -6    1.79    0.25
  -1   3  -6    1.03    0.35
  -2  -3  -6   17.15    0.81
  -2  -3  -6   18.26    0.81
   2  -3   6   17.50    0.89
   2  -3   6   17.66    0.91
  -2  -3  -6   18.02    0.73
   2  -3   6   18.51    0.83
  -2  -3  -6   17.25    0.83
  -2  -3  -6   18.09    0.74
  -2  -3  -6   19.22    0.85
  -2   3  -6   16.93    1.13
  -2   3  -6   19.77    0.91
  -2   3  -6   17.53    0.64
   2   3   6   18.13    0.74
   3  -3   6    1.11    0.30
  -3  -3  -6    0.92    0.21
  -3  -3  -6    0.77    0.21
  -3  -3  -6    0.73    0.21
   3  -3   6    0.72    0.18
  -3  -3  -6    1.27    0.18
  -3   3  -6    0.62    0.17
  -3   3  -6    0.92    0.42
  -3   3  -6    1.32    0.23
  -4  -3  -6    7.17    0.53
  -4  -3  -6    6.23    0.29
  -4  -3  -6    5.98    0.38
   4  -3   6    6.20    0.52
   4  -3   6    5.94    0.59
   4  -3   6    6.04    0.41
   4  -3   6    6.64    0.46
  -4  -3  -6    5.64    0.40
  -4   3  -6    6.97    0.48
   4   3   6    6.16    0.56
  -4   3  -6    5.70    0.45
   4   3   6    5.91    0.52
   4   3   6    5.70    0.42
  -5  -3  -6    0.84    0.09
   5  -3   6    0.66    0.21
   5  -3   6    0.28    0.31
   5  -3   6    0.89    0.23
   5  -3   6    0.83    0.20
  -5  -3  -6    0.83    0.22
  -5  -3  -6    0.95    0.18
  -5  -3  -6    1.02    0.18
   5   3   6    1.04    0.20
   5   3   6    0.81    0.29
  -5   3  -6    0.82    0.28
   5   3   6    1.13    0.29
  -6  -3  -6    8.24    0.64
   6  -3   6    9.17    0.61
   6  -3   6    8.87    0.74
   6  -3   6    9.29    0.58
   6  -3   6    9.72    0.67
  -6  -3  -6    9.63    0.48
   6   3   6    9.47    0.56
  -6   3  -6    8.76    0.59
  -6   3  -6    7.74    0.73
   6   3   6    9.29    0.71
   7  -3   6    2.17    0.42
   7  -3   6    1.93    0.33
  -7  -3  -6    1.99    0.36
   7  -3   6    1.83    0.31
  -7  -3  -6    1.91    0.31
   7   3   6    1.35    0.36
  -7   3  -6    2.02    0.35
  -8  -3  -6    0.25    0.29
   8  -3   6   -0.27    0.27
   8  -3   6    0.35    0.27
  -8   3  -6    0.25    0.24
   8   3   6   -0.12    0.21
   8   3   6    0.14    0.36
   9  -3   6   -0.13    0.33
   9  -3   6    0.40    0.34
   9  -3   6    0.05    0.29
  -9  -3  -6    0.20    0.34
   9   3   6    0.28    0.25
  -9   3  -6    0.04    0.24
   9   3   6    0.34    0.45
   9  -4  -6    3.04    0.57
   9  -4  -6    1.25    0.70
  -9  -4   6    1.36    0.53
  -9  -4   6    1.69    0.26
  -9   4   6    1.89    0.51
  -9   4   6    2.03    0.41
   9   4  -6    1.98    0.32
   8  -4  -6    1.14    0.59
  -8  -4   6    0.32    0.42
  -8  -4   6    0.35    0.11
   8  -4  -6   -0.37    0.40
  -8   4   6    0.41    0.39
   7  -4  -6    4.96    0.71
  -7  -4   6    4.26    0.79
   7  -4  -6    5.95    0.69
   7  -4  -6    5.82    0.95
  -7  -4   6    5.81    0.30
  -7  -4   6    4.26    0.78
   7   4  -6    5.52    0.43
  -7   4   6    6.07    0.45
  -7   4   6    6.68    0.70
  -6  -4   6    0.85    0.26
   6  -4  -6   -0.22    0.28
   6  -4  -6    1.20    0.42
  -6  -4   6    0.51    0.35
  -6  -4   6    0.26    0.32
  -6  -4   6    0.36    0.10
  -6  -4   6    0.46    0.12
   6  -4  -6    0.64    0.26
  -6   4   6    0.16    0.13
  -6   4   6    0.37    0.27
   6   4  -6    0.04    0.14
  -5  -4   6    2.51    0.46
  -5  -4   6    2.17    0.45
  -5  -4   6    3.39    0.63
   5  -4  -6    2.81    0.50
  -5  -4   6    2.32    0.29
   5  -4  -6    3.49    0.63
  -5  -4   6    2.08    0.20
   5  -4  -6    2.06    0.40
  -5   4   6    2.97    0.50
  -5   4   6    1.83    0.26
   5   4  -6    2.48    0.24
  -4  -4   6    1.69    0.45
  -4  -4   6    1.66    0.36
   4  -4  -6    1.62    0.32
  -4  -4   6    1.61    0.20
  -4  -4   6    1.48    0.15
   4  -4  -6    2.63    0.52
  -4  -4   6    1.78    0.30
   4  -4  -6    1.94    0.33
  -4   4   6    1.50    0.22
  -4   4   6    1.65    0.36
  -3  -4   6    3.12    0.31
   3  -4  -6    3.33    0.43
  -3  -4   6    3.18    0.17
   3  -4  -6    3.14    0.28
   3  -4  -6    2.94    0.59
  -3   4   6    3.52    0.28
   3   4  -6    3.64    0.72
   3   4  -6    3.37    0.46
   2  -4  -6    1.53    0.20
  -2  -4   6    1.54    0.29
   2  -4  -6    1.78    0.28
   2   4  -6    1.33    0.47
  -2   4   6    1.61    0.22
  -2   4   6    1.30    0.31
   1  -4  -6    6.16    0.72
   1  -4  -6    6.70    0.43
   1  -4  -6    6.87    0.63
   1  -4  -6    6.64    0.57
   1  -4  -6    7.01    0.46
  -1  -4   6    7.09    0.54
  -1  -4   6    6.56    0.42
   1   4  -6    6.45    0.89
   1   4  -6    6.76    0.54
  -1   4   6    6.14    0.51
   0  -4  -6    3.55    0.59
   0  -4  -6    2.82    0.51
   0  -4   6    3.01    0.31
   0  -4  -6    2.67    0.26
   0  -4  -6    2.79    0.29
   0  -4   6    3.27    0.42
   0  -4  -6    3.20    0.33
   0   4   6    3.26    0.40
   0   4  -6    3.16    0.38
   0   4   6    3.11    0.55
   0   4  -6    3.40    0.70
   1  -4   6    0.68    0.26
  -1  -4  -6    0.64    0.30
   1  -4   6    0.53    0.17
  -1  -4  -6    0.46    0.15
  -1  -4  -6    0.59    0.14
   1   4   6    0.72    0.30
  -2  -4  -6    1.89    0.36
  -2  -4  -6    1.72    0.24
  -2  -4  -6    2.31    0.35
  -2  -4  -6    1.50    0.33
   2  -4   6    2.73    0.24
  -2   4  -6    2.09    0.35
   2   4   6    2.58    0.33
  -2   4  -6    2.16    0.17
   2   4   6    1.75    0.40
  -3  -4  -6    1.70    0.32
  -3  -4  -6    1.82    0.40
  -3  -4  -6    1.84    0.25
   3  -4   6    1.70    0.30
   3  -4   6    2.15    0.38
  -3  -4  -6    2.31    0.37
   3  -4   6    2.25    0.37
  -3  -4  -6    2.16    0.29
  -3   4  -6    2.01    0.24
   3   4   6    2.11    0.42
  -3   4  -6    1.52    0.33
  -4  -4  -6   -0.06    0.13
  -4  -4  -6    0.14    0.14
   4  -4   6    0.18    0.26
   4  -4   6   -0.30    0.17
   4  -4   6   -0.21    0.21
  -4  -4  -6    0.09    0.24
  -4  -4  -6   -0.29    0.19
  -4  -4  -6   -0.05    0.28
   4   4   6    0.04    0.31
  -4   4  -6   -0.01    0.17
  -4   4  -6   -0.20    0.18
   5  -4   6    0.97    0.34
  -5  -4  -6    0.76    0.13
   5  -4   6    0.72    0.28
  -5  -4  -6    0.65    0.37
   5  -4   6    0.78    0.23
  -5  -4  -6    0.59    0.29
  -5  -4  -6    0.96    0.30
   5   4   6    0.85    0.36
  -5   4  -6    0.90    0.26
  -5   4  -6    1.10    0.28
   6  -4   6    0.97    0.35
  -6  -4  -6    1.17    0.13
   6  -4   6    0.96    0.28
   6  -4   6    1.18    0.32
  -6  -4  -6    1.53    0.36
  -6   4  -6    1.98    0.41
  -6   4  -6    1.16    0.38
   6   4   6    1.02    0.27
   7  -4   6    0.47    0.37
   7  -4   6   -0.12    0.32
  -7  -4  -6   -0.35    0.29
   7   4   6    0.00    0.42
  -7   4  -6    0.31    0.23
   7   4   6    0.00    0.26
   8  -4   6    0.85    0.39
   8  -4   6   -0.15    0.38
   8  -4   6    0.59    0.34
   8   4   6    0.85    0.34
  -8   4  -6    0.48    0.29
   8   4   6    0.46    0.49
  -7  -5   6    0.21    0.12
   7  -5  -6   -0.30    0.71
   7  -5  -6    0.62    0.45
  -7   5   6   -0.91    0.46
   6  -5  -6    0.63    0.61
  -6  -5   6    0.29    0.42
  -6   5   6    0.51    0.44
  -6   5   6    0.48    0.20
   5  -5  -6    0.25    0.33
  -5  -5   6    0.10    0.13
  -5  -5   6    0.40    0.11
   5  -5  -6    1.63    0.59
  -5  -5   6    0.46    0.41
  -5   5   6    0.46    0.35
  -5   5   6    0.14    0.18
   4  -5  -6    3.73    0.69
  -4  -5   6    3.97    0.52
  -4  -5   6    4.41    0.35
  -4  -5   6    4.98    0.71
  -4  -5   6    4.26    0.26
   4  -5  -6    4.19    0.63
  -4  -5   6    4.31    0.78
  -4   5   6    4.23    0.64
  -4   5   6    4.74    0.41
   3  -5  -6    0.71    0.25
  -3  -5   6    0.87    0.20
  -3  -5   6    1.18    0.17
   3  -5  -6    0.90    0.52
  -3  -5   6    1.04    0.29
   3  -5  -6    0.90    0.22
  -3  -5   6    0.33    0.64
  -3   5   6    0.86    0.34
  -3   5   6    0.94    0.20
   3   5  -6    1.07    0.31
   2  -5  -6    0.45    0.22
  -2  -5   6    0.96    0.30
  -2  -5   6    0.46    0.19
   2  -5  -6    0.33    0.46
  -2   5   6    0.51    0.19
   2   5  -6    0.14    0.27
  -2   5   6    0.81    0.32
  -1  -5   6    2.93    0.51
   1  -5  -6    1.49    0.27
  -1  -5   6    1.68    0.29
   1  -5  -6    1.87    0.31
   1  -5  -6    2.44    0.50
   1  -5  -6    1.93    0.36
  -1   5   6    0.97    0.32
   1   5  -6    2.69    0.49
   0  -5  -6    6.39    0.49
   0  -5   6    5.82    0.46
   0  -5  -6    6.43    0.85
   0  -5  -6    6.77    0.56
   0  -5   6    6.27    0.63
   0  -5  -6    6.46    0.44
   0   5   6    4.51    0.56
   0   5  -6    5.81    0.61
   1  -5   6    0.59    0.33
  -1  -5  -6    0.30    0.17
   1  -5   6    0.01    0.23
  -1  -5  -6    0.54    0.25
  -1  -5  -6    0.92    0.44
  -1  -5  -6    0.34    0.20
   1   5   6    0.48    0.24
  -1   5  -6    0.26    0.22
   2  -5   6    0.38    0.16
  -2  -5  -6    0.50    0.45
   2  -5   6    0.44    0.24
  -2  -5  -6    0.60    0.23
   2  -5   6    0.93    0.36
  -2  -5  -6    0.45    0.15
  -2   5  -6    0.67    0.25
  -3  -5  -6    2.01    0.33
  -3  -5  -6    2.82    0.54
  -3  -5  -6    1.67    0.51
  -3  -5  -6    3.07    0.46
   3  -5   6    2.49    0.49
  -3  -5  -6    2.98    0.41
  -3   5  -6    2.14    0.37
   4  -5   6    0.34    0.30
   4  -5   6    0.12    0.38
  -4  -5  -6    0.06    0.30
  -4  -5  -6    0.35    0.19
  -4  -5  -6    0.76    0.17
  -5  -5  -6    0.18    0.36
  -5  -5  -6   -0.08    0.16
   5  -5   6   -0.60    0.33
   5  -5   6    0.01    0.39
  -5  -5  -6   -0.26    0.17
  -5   5  -6   -0.03    0.29
  -6  -5  -6    0.24    0.22
   6  -5   6    0.42    0.47
   6  -5   6    0.00    0.40
  -6  -5  -6    1.31    0.48
  -6   5  -6    0.32    0.32
  -4  -6   6   -0.51    0.40
   4  -6  -6   -0.05    0.42
  -4  -6   6   -0.28    0.48
  -4  -6   6    0.16    0.21
   3  -6  -6    0.86    0.68
  -3  -6   6    1.76    0.56
  -3  -6   6    0.77    0.24
  -3  -6   6    1.09    0.46
   3  -6  -6    1.15    0.42
  -3   6   6    1.72    0.46
  -2  -6   6    2.27    0.32
   2  -6  -6    2.65    0.46
   2  -6  -6    1.73    0.74
  -2  -6   6    3.91    0.71
   2   6  -6    2.51    0.51
  -2   6   6    3.02    0.53
  -1  -6   6    0.72    0.43
  -1  -6   6    0.63    0.25
   1  -6  -6    0.04    0.65
   1  -6  -6    0.44    0.30
  -1   6   6    0.61    0.38
   1   6  -6    0.35    0.39
   0  -6   6    1.16    0.45
   0  -6   6    0.65    0.29
   0  -6  -6    1.13    0.64
   0   6   6    0.31    0.37
   0   6  -6    0.16    0.35
   1  -6   6    6.19    0.85
  -1  -6  -6    4.70    0.64
  -1  -6  -6    5.60    0.79
   1  -6   6    5.65    0.62
  -1  -6  -6    6.45    0.57
  -1  -6  -6    5.99    1.17
  -1   6  -6    5.10    0.78
  -2  -6  -6    0.51    0.23
  -2  -6  -6   -0.63    0.66
  -2  -6  -6    0.38    0.32
   2  -6   6    0.06    0.35
   2  -6   6    0.27    0.51
  -2   6  -6    0.37    0.36
  -3  -6  -6   -0.49    0.31
  -3  -6  -6    0.35    0.69
  -3  -6  -6   -0.06    0.21
   3  -6   6   -0.46    0.52
  -3   6  -6   -0.33    0.38
 -11   0   7    4.28    0.59
 -11   0   7    4.35    0.64
  11   0  -7    5.16    0.72
 -10   0   7    0.96    0.31
 -10   0   7    0.75    0.25
  -9   0   7    1.43    0.26
   9   0  -7    0.83    0.30
  -9   0   7    1.43    0.29
   8   0  -7   15.94    0.55
   8   0  -7   14.89    0.99
  -8   0   7   15.18    0.90
  -8   0   7   15.68    0.74
   8   0  -7   17.81    0.97
  -7   0   7   11.36    0.75
  -7   0   7   11.60    0.57
   7   0  -7   10.91    0.43
   7   0  -7   12.03    0.79
   7   0  -7   10.77    0.44
   7   0  -7   11.92    0.56
   7   0  -7   11.66    0.73
   6   0  -7   72.85    2.78
   6   0  -7   74.02    2.57
  -6   0   7   70.49    2.50
   6   0  -7   70.53    2.46
   6   0  -7   72.50    2.11
  -6   0   7   74.38    2.79
   6   0  -7   70.98    2.31
  -5   0   7    2.79    0.22
  -5   0   7    2.84    0.27
   5   0  -7    2.85    0.18
   5   0  -7    2.83    0.32
  -5   0   7    2.46    0.32
   5   0  -7    3.29    0.32
  -5   0   7    2.90    0.30
   5   0  -7    2.80    0.18
   4   0  -7    9.35    0.53
  -4   0   7    9.91    0.49
  -4   0   7   10.48    0.54
  -4   0   7    9.13    0.48
  -4   0   7    9.84    0.42
   4   0  -7   10.46    0.36
   4   0  -7    9.18    0.38
  -3   0   7    0.77    0.15
  -3   0   7    0.68    0.11
   3   0  -7    0.64    0.09
  -3   0   7    0.47    0.12
  -3   0   7    0.41    0.10
  -3   0   7    0.84    0.16
   3   0  -7    0.52    0.09
   3   0  -7    0.55    0.12
  -2   0   7   44.83    1.36
  -2   0   7   46.51    1.47
  -2   0   7   45.37    1.56
  -2   0   7   42.26    1.65
   2   0  -7   48.56    1.54
  -2   0   7   45.83    1.69
   2   0  -7   47.59    1.49
   2   0  -7   44.31    1.33
  -1   0   7   21.57    0.66
   1   0  -7   21.52    0.75
  -1   0   7   20.10    0.79
  -1   0   7   21.19    0.72
  -1   0   7   20.80    0.77
   0   0   7    9.01    0.31
   0   0  -7    9.31    0.36
   0   0  -7    7.94    0.39
   0   0   7   10.20    0.39
   0   0  -7    9.11    0.38
   0   0   7    8.16    0.38
   0   0  -7    9.02    0.31
   0   0  -7   10.04    0.38
  -1   0  -7    0.83    0.09
   1   0   7    0.75    0.07
  -2   0  -7    9.61    0.47
  -2   0  -7   10.83    0.38
  -2   0  -7   10.74    0.46
   2   0   7   10.14    0.43
  -2   0  -7   10.60    0.50
   2   0   7   10.33    0.44
   3   0   7   35.85    1.24
   3   0   7   37.28    1.02
   3   0   7   35.83    1.23
   3   0   7   36.09    1.09
   3   0   7   33.99    1.42
  -3   0  -7   35.98    1.33
  -3   0  -7   35.53    1.35
  -3   0  -7   36.06    1.32
   4   0   7   24.87    0.92
   4   0   7   23.88    0.86
   4   0   7   23.43    0.67
   4   0   7   22.37    1.06
  -4   0  -7   22.15    0.96
  -4   0  -7   24.16    1.01
  -4   0  -7   24.74    1.03
   4   0   7   23.19    0.72
  -5   0  -7    1.36    0.31
   5   0   7    1.67    0.15
   5   0   7    1.84    0.35
  -5   0  -7    1.31    0.20
  -5   0  -7    1.21    0.27
   5   0   7    1.58    0.22
   6   0   7    0.11    0.14
  -6   0  -7    0.79    0.33
  -6   0  -7    0.34    0.12
  -6   0  -7   -0.23    0.28
   6   0   7    0.47    0.10
   6   0   7    0.15    0.22
   7   0   7    0.54    0.12
  -7   0  -7    0.73    0.42
  -8   0  -7    2.87    0.36
   8   0   7    2.90    0.43
   8   0   7    2.57    0.24
  -9   0  -7    1.74    0.36
   9   0   7    1.24    0.34
   9   0   7    1.33    0.25
  10   0   7    0.00    0.19
  10   0   7   -0.04    0.33
 -10   0  -7    0.14    0.23
  11  -1  -7    2.24    0.49
 -11  -1   7    2.51    0.37
 -11  -1   7    1.61    0.44
 -11   1   7    2.08    0.46
 -11   1   7    2.53    0.51
  11   1  -7    1.80    0.46
 -10  -1   7   -0.43    0.27
  10  -1  -7   -0.68    0.35
 -10  -1   7    0.10    0.21
 -10   1   7   -0.16    0.28
  10   1  -7    0.21    0.31
 -10   1   7   -0.04    0.21
  -9  -1   7    0.61    0.30
   9  -1  -7    0.61    0.29
   9  -1  -7    0.56    0.33
  -9  -1   7    0.57    0.17
   9  -1  -7    0.86    0.26
  -9   1   7    0.66    0.24
   9   1  -7    0.50    0.29
  -8  -1   7    1.70    0.39
   8  -1  -7    3.25    0.44
   8  -1  -7    1.72    0.39
   8  -1  -7    2.42    0.35
  -8  -1   7    2.63    0.27
   8  -1  -7    2.75    0.44
   8   1  -7    2.89    0.45
  -8   1   7    2.25    0.33
   7  -1  -7   10.51    0.46
  -7  -1   7   10.87    0.50
   7  -1  -7   10.66    0.71
   7  -1  -7   10.35    0.62
   7  -1  -7   11.21    0.74
  -7  -1   7   11.54    0.76
  -7  -1   7   11.39    0.73
   7  -1  -7   10.95    0.66
   7   1  -7   12.53    0.71
  -7   1   7   11.52    0.63
  -7   1   7   10.55    0.74
   7   1  -7   10.78    0.47
  -7   1   7   11.13    0.62
   7   1  -7   11.27    0.78
   6  -1  -7    4.86    0.41
  -6  -1   7    5.70    0.53
   6  -1  -7    5.62    0.47
   6  -1  -7    4.95    0.47
  -6  -1   7    5.73    0.49
  -6  -1   7    5.16    0.28
   6  -1  -7    5.10    0.45
   6  -1  -7    5.05    0.29
  -6  -1   7    5.18    0.48
   6   1  -7    4.58    0.41
  -6   1   7    5.27    0.39
   6   1  -7    5.50    0.29
  -6   1   7    5.09    0.47
  -6   1   7    5.42    0.38
   5  -1  -7   37.06    1.47
  -5  -1   7   34.79    1.53
   5  -1  -7   35.85    1.43
  -5  -1   7   35.38    1.32
   5  -1  -7   33.87    1.43
  -5  -1   7   35.64    1.11
  -5  -1   7   35.28    1.21
   5  -1  -7   33.03    1.12
  -5  -1   7   34.93    1.50
   5  -1  -7   35.92    1.33
  -5   1   7   35.65    1.34
  -5   1   7   35.83    1.40
   5   1  -7   34.10    1.11
  -5   1   7   34.40    1.25
   5   1  -7   36.77    1.20
   5   1  -7   38.05    1.37
   4  -1  -7   14.01    0.64
   4  -1  -7   13.63    0.64
   4  -1  -7   13.33    0.51
  -4  -1   7   13.61    0.73
  -4  -1   7   13.25    0.70
   4  -1  -7   13.50    0.68
  -4  -1   7   14.17    0.48
   4   1  -7   13.70    0.50
  -4   1   7   13.14    0.62
   4   1  -7   13.66    0.63
   4   1  -7   13.97    0.55
  -4   1   7   13.93    0.60
  -4   1   7   13.35    0.71
  -4   1   7   14.69    0.61
   3  -1  -7   48.43    1.64
  -3  -1   7   45.26    1.82
   3  -1  -7   43.84    1.40
  -3  -1   7   48.35    1.38
  -3  -1   7   49.87    1.54
   3  -1  -7   47.03    1.65
  -3  -1   7   43.90    1.78
  -3  -1   7   48.85    1.52
   3   1  -7   44.06    1.41
   3   1  -7   47.46    1.58
  -3   1   7   46.61    1.51
  -3   1   7   46.75    1.75
   3   1  -7   46.81    1.59
  -3   1   7   45.59    1.68
  -3   1   7   46.44    1.57
   2  -1  -7   38.80    1.39
  -2  -1   7   38.53    1.30
   2  -1  -7   41.10    1.39
   2  -1  -7   38.68    1.20
  -2  -1   7   40.01    1.17
  -2  -1   7   39.38    1.52
  -2  -1   7   39.17    1.25
  -2   1   7   39.55    1.32
  -2   1   7   41.61    1.40
  -2   1   7   41.25    1.29
  -2   1   7   38.90    1.38
   2   1  -7   39.25    1.55
   2   1  -7   38.38    1.22
   2   1  -7   38.87    1.39
  -2   1   7   40.42    1.51
   1  -1  -7   23.75    0.81
   1  -1  -7   25.40    0.92
  -1  -1   7   25.44    0.78
   1  -1  -7   25.99    0.95
  -1  -1   7   26.27    0.88
   1   1  -7   24.93    0.85
   1   1  -7   26.94    0.86
  -1   1   7   26.22    0.88
   1   1  -7   25.23    1.05
  -1   1   7   26.92    1.05
  -1   1   7   26.44    0.90
   0  -1   7   26.55    1.00
   0  -1   7   25.59    0.78
   0  -1  -7   24.40    0.91
   0  -1  -7   25.62    0.90
   0  -1   7   25.14    0.88
   0  -1  -7   25.41    0.91
   0  -1  -7   25.46    0.77
   0  -1  -7   24.91    0.89
   0   1   7   25.30    0.84
   0   1  -7   26.05    1.03
   0   1  -7   24.79    0.85
   0   1  -7   25.31    0.83
   0   1   7   25.76    0.93
   0   1  -7   26.11    0.82
   0   1   7   25.18    1.01
   0   1  -7   24.13    1.00
   1  -1   7  126.58    3.60
  -1  -1  -7  134.20    3.98
  -1  -1  -7  127.80    3.56
  -1  -1  -7  127.83    3.92
  -1  -1  -7  130.65    4.05
  -1  -1  -7  121.01    4.39
   1  -1   7  130.34    4.06
   1  -1   7  127.99    4.46
  -1   1  -7  131.40    4.21
   1   1   7  122.14    4.14
  -1   1  -7  126.50    3.91
  -1   1  -7  120.15    4.48
   1   1   7  123.75    4.44
   1   1   7  130.85    3.64
  -2  -1  -7    0.38    0.10
   2  -1   7    0.42    0.09
   2  -1   7    0.18    0.12
  -2  -1  -7    0.43    0.13
   2  -1   7    0.35    0.07
   2   1   7    0.48    0.12
  -2   1  -7    0.27    0.17
   2   1   7    0.49    0.11
   2   1   7    0.30    0.09
  -2   1  -7    0.35    0.12
   3  -1   7    4.87    0.23
   3  -1   7    4.99    0.33
   3  -1   7    4.69    0.28
  -3  -1  -7    4.60    0.26
  -3  -1  -7    4.97    0.39
   3  -1   7    4.82    0.28
  -3  -1  -7    5.11    0.30
   3  -1   7    4.93    0.34
  -3   1  -7    4.80    0.47
  -3   1  -7    4.87    0.30
   3   1   7    4.23    0.29
   3   1   7    4.67    0.38
   3   1   7    4.10    0.29
  -3   1  -7    4.37    0.37
   4  -1   7    5.36    0.33
  -4  -1  -7    5.07    0.32
   4  -1   7    5.48    0.35
   4  -1   7    5.61    0.25
  -4  -1  -7    4.87    0.45
   4  -1   7    5.52    0.31
   4  -1   7    5.38    0.42
  -4  -1  -7    5.32    0.34
  -4   1  -7    5.61    0.34
   4   1   7    6.12    0.46
  -4   1  -7    6.04    0.47
  -4   1  -7    5.43    0.55
   4   1   7    5.09    0.34
   4   1   7    5.10    0.33
   5  -1   7    2.72    0.29
   5  -1   7    2.60    0.29
  -5  -1  -7    2.80    0.30
  -5  -1  -7    2.82    0.45
  -5  -1  -7    3.20    0.29
   5  -1   7    2.78    0.39
   5  -1   7    2.77    0.23
   5  -1   7    2.97    0.19
  -5   1  -7    1.95    0.41
   5   1   7    2.74    0.44
   5   1   7    2.73    0.26
  -5   1  -7    2.98    0.46
   5   1   7    2.62    0.24
  -5   1  -7    3.31    0.27
   6  -1   7    2.77    0.24
  -6  -1  -7    2.23    0.39
  -6  -1  -7    3.15    0.32
   6  -1   7    3.11    0.31
   6  -1   7    3.23    0.36
   6  -1   7    3.22    0.22
   6   1   7    3.17    0.29
  -6   1  -7    2.47    0.43
  -6   1  -7    2.24    0.47
  -6   1  -7    3.36    0.29
   6   1   7    3.57    0.56
   6   1   7    2.80    0.27
  -7  -1  -7    1.51    0.38
   7  -1   7    1.69    0.20
   7  -1   7    1.17    0.15
  -7  -1  -7    1.04    0.24
   7  -1   7    1.29    0.20
   7  -1   7    1.42    0.26
  -7   1  -7    1.37    0.26
   7   1   7    1.27    0.25
  -8  -1  -7    0.12    0.18
   8  -1   7   -0.09    0.19
   8  -1   7    0.00    0.12
   8  -1   7    0.20    0.12
  -8  -1  -7   -0.20    0.43
   8   1   7    0.25    0.17
  -8   1  -7    0.27    0.16
   8   1   7   -0.19    0.16
   9  -1   7    0.12    0.26
  -9  -1  -7    0.25    0.23
   9  -1   7    0.18    0.14
  -9   1  -7    0.43    0.21
   9   1   7   -0.06    0.21
  10  -1   7    0.21    0.33
  10  -1   7   -0.13    0.17
 -10  -1  -7    0.09    0.28
 -10   1  -7    0.43    0.24
  10   1   7    0.01    0.28
 -11  -2   7    0.71    0.46
  11  -2  -7    0.37    0.50
 -11  -2   7    1.12    0.30
  11   2  -7    1.50    0.38
 -11   2   7    0.92    0.44
 -11   2   7    1.44    0.32
 -10  -2   7    2.19    0.48
  10  -2  -7    1.82    0.41
 -10  -2   7    2.25    0.34
  10  -2  -7    2.12    0.48
  10   2  -7    1.71    0.38
 -10   2   7    3.21    0.57
 -10   2   7    1.26    0.28
   9  -2  -7   -0.14    0.33
  -9  -2   7    0.31    0.16
   9  -2  -7    0.92    0.52
   9  -2  -7   -0.37    0.35
  -9  -2   7    0.05    0.28
   9   2  -7    0.01    0.25
  -9   2   7    0.17    0.29
  -8  -2   7    0.66    0.36
   8  -2  -7    0.47    0.33
  -8  -2   7    0.42    0.12
   8  -2  -7    0.18    0.27
  -8  -2   7    0.15    0.26
   8  -2  -7    0.71    0.34
   8  -2  -7    0.92    0.44
  -8   2   7    0.60    0.15
  -8   2   7    0.26    0.25
   8   2  -7    0.34    0.22
   7  -2  -7    1.84    0.43
  -7  -2   7    1.37    0.16
   7  -2  -7    1.31    0.31
   7  -2  -7    1.20    0.31
   7  -2  -7    1.02    0.28
  -7  -2   7    1.56    0.34
  -7   2   7    1.50    0.21
  -7   2   7    1.57    0.30
  -6  -2   7    1.36    0.29
   6  -2  -7    1.60    0.40
  -6  -2   7    0.95    0.30
   6  -2  -7    1.49    0.26
   6  -2  -7    0.87    0.27
  -6  -2   7    1.01    0.32
   6  -2  -7    1.15    0.25
   6  -2  -7    1.01    0.26
  -6  -2   7    1.16    0.13
  -6   2   7    1.19    0.17
  -6   2   7    0.95    0.22
   6   2  -7    1.38    0.25
  -6   2   7    1.24    0.27
   6   2  -7    1.18    0.22
   5  -2  -7   24.78    1.22
  -5  -2   7   25.45    1.18
  -5  -2   7   21.91    0.80
  -5  -2   7   25.47    1.23
   5  -2  -7   24.93    1.13
  -5  -2   7   25.27    0.78
   5  -2  -7   23.20    1.13
  -5  -2   7   24.56    0.99
   5  -2  -7   24.29    0.90
   5   2  -7   25.33    0.92
   5   2  -7   22.65    0.91
  -5   2   7   22.94    1.00
  -5   2   7   24.56    0.94
   5   2  -7   24.31    0.95
  -5   2   7   24.19    1.03
  -4  -2   7   14.36    0.78
   4  -2  -7   14.35    0.61
   4  -2  -7   14.29    0.64
   4  -2  -7   14.25    0.79
  -4  -2   7   14.19    0.62
  -4  -2   7   14.41    0.81
  -4  -2   7   14.92    0.50
  -4  -2   7   14.37    0.50
   4   2  -7   14.57    0.60
  -4   2   7   14.53    0.57
  -4   2   7   14.20    0.66
  -4   2   7   14.72    0.85
   4   2  -7   14.17    0.63
   4   2  -7   14.35    0.69
  -4   2   7   14.78    0.78
  -3  -2   7   16.86    0.60
   3  -2  -7   16.70    0.84
   3  -2  -7   16.40    0.66
  -3  -2   7   16.52    0.56
  -3  -2   7   16.74    0.61
   3  -2  -7   16.76    0.66
   3  -2  -7   16.34    0.76
  -3  -2   7   16.52    0.82
  -3   2   7   16.25    0.69
   3   2  -7   17.12    0.80
  -3   2   7   16.39    0.62
   3   2  -7   17.15    0.86
  -3   2   7   17.32    0.75
   3   2  -7   16.39    0.69
  -3   2   7   16.56    0.90
  -2  -2   7    4.89    0.23
   2  -2  -7    4.81    0.42
   2  -2  -7    4.77    0.31
   2  -2  -7    4.91    0.33
  -2  -2   7    4.43    0.37
  -2  -2   7    4.68    0.26
   2   2  -7    4.70    0.43
  -2   2   7    4.35    0.29
   2   2  -7    5.00    0.37
  -2   2   7    4.33    0.44
  -2   2   7    4.93    0.34
   2   2  -7    4.68    0.34
  -1  -2   7   43.34    1.69
   1  -2  -7   44.10    1.39
  -1  -2   7   43.84    1.34
   1  -2  -7   42.89    1.62
   1  -2  -7   41.92    1.50
  -1  -2   7   42.93    1.53
  -1   2   7   42.94    1.74
  -1   2   7   44.48    1.47
   1   2  -7   44.67    1.46
  -1   2   7   44.56    1.48
   1   2  -7   43.66    1.74
   1   2  -7   44.59    1.70
   0  -2   7   10.07    0.42
   0  -2  -7   10.44    0.51
   0  -2  -7   10.39    0.44
   0  -2  -7   10.38    0.47
   0  -2   7    9.62    0.52
   0  -2  -7   10.54    0.55
   0  -2   7   10.91    0.51
   0   2  -7    9.99    0.56
   0   2   7   10.32    0.49
   0   2  -7   10.22    0.53
   0   2   7   10.57    0.63
   0   2  -7   10.17    0.66
  -1  -2  -7    5.29    0.30
   1  -2   7    5.76    0.35
  -1  -2  -7    5.85    0.29
  -1  -2  -7    5.32    0.36
  -1  -2  -7    5.88    0.31
   1  -2   7    5.11    0.21
  -1  -2  -7    5.56    0.29
   1  -2   7    5.43    0.29
   1  -2   7    5.36    0.42
  -1  -2  -7    5.82    0.37
   1  -2   7    5.52    0.36
   1   2   7    5.60    0.43
  -1   2  -7    5.52    0.53
   1   2   7    6.04    0.33
  -1   2  -7    5.87    0.26
  -1   2  -7    5.90    0.38
   2  -2   7    4.14    0.29
   2  -2   7    3.48    0.20
  -2  -2  -7    3.90    0.22
  -2  -2  -7    3.33    0.32
  -2  -2  -7    4.10    0.26
  -2  -2  -7    3.70    0.28
   2  -2   7    4.19    0.41
   2  -2   7    3.42    0.30
   2  -2   7    3.93    0.25
  -2  -2  -7    4.11    0.26
  -2   2  -7    3.48    0.27
   2   2   7    3.57    0.25
   2   2   7    3.27    0.35
  -2   2  -7    4.72    0.32
  -2   2  -7    3.89    0.51
   2   2   7    4.36    0.32
   3  -2   7    0.03    0.17
  -3  -2  -7    0.02    0.06
  -3  -2  -7    0.01    0.09
   3  -2   7    0.12    0.12
  -3  -2  -7    0.33    0.18
   3  -2   7    0.09    0.08
   3  -2   7    0.06    0.08
  -3  -2  -7    0.01    0.09
  -3   2  -7    0.21    0.26
   3   2   7   -0.01    0.09
   3   2   7    0.15    0.16
  -3   2  -7    0.20    0.15
   3   2   7    0.12    0.15
   4  -2   7    0.78    0.23
   4  -2   7    0.77    0.14
  -4  -2  -7    0.72    0.26
  -4  -2  -7    0.83    0.15
   4  -2   7    0.90    0.18
  -4  -2  -7    0.93    0.18
   4  -2   7    0.67    0.18
   4  -2   7    0.76    0.15
   4   2   7    0.88    0.24
  -4   2  -7    1.02    0.20
   4   2   7    0.58    0.21
  -4   2  -7    0.60    0.37
  -4   2  -7    0.74    0.22
   5  -2   7    0.79    0.26
   5  -2   7    1.28    0.24
  -5  -2  -7    0.88    0.19
  -5  -2  -7    0.75    0.14
   5  -2   7    0.78    0.19
  -5   2  -7    0.99    0.27
  -5   2  -7    0.55    0.42
   5   2   7    0.42    0.14
  -5   2  -7    0.70    0.17
   5   2   7    1.22    0.31
   5   2   7    0.77    0.21
  -6  -2  -7    2.53    0.33
   6  -2   7    2.53    0.36
   6  -2   7    3.03    0.34
  -6  -2  -7    2.16    0.30
   6  -2   7    3.14    0.31
   6   2   7    3.06    0.59
   6   2   7    2.27    0.39
  -6   2  -7    2.01    0.41
   6   2   7    2.22    0.30
  -6   2  -7    3.03    0.32
   7  -2   7    0.10    0.18
   7  -2   7    0.58    0.19
  -7  -2  -7    0.19    0.24
   7  -2   7    0.07    0.17
   7  -2   7    0.41    0.29
  -7   2  -7    0.40    0.16
   7   2   7    0.09    0.24
   7   2   7    0.10    0.16
   8  -2   7   -0.09    0.19
   8  -2   7    0.38    0.18
  -8  -2  -7    0.14    0.23
   8  -2   7    0.57    0.23
   8   2   7    0.58    0.21
  -8   2  -7    0.32    0.19
   8   2   7    0.63    0.27
   9  -2   7    0.76    0.30
  -9  -2  -7    0.19    0.28
   9  -2   7    0.39    0.20
   9   2   7    0.35    0.22
  -9   2  -7    0.53    0.23
  10  -2   7    0.14    0.37
 -10  -2  -7    0.43    0.34
  10  -2   7    0.39    0.21
  10   2   7    0.26    0.27
 -10  -3   7   -0.03    0.19
  10  -3  -7    0.22    0.57
 -10  -3   7   -0.24    0.39
  10  -3  -7    0.43    0.45
  10   3  -7   -0.40    0.30
 -10   3   7   -0.13    0.18
  -9  -3   7   -0.21    0.33
  -9  -3   7    0.42    0.14
   9  -3  -7    0.55    0.39
   9  -3  -7    0.63    0.55
  -9   3   7    0.39    0.39
  -9   3   7    0.28    0.15
   9   3  -7   -0.06    0.24
  -8  -3   7    0.57    0.14
   8  -3  -7    1.57    0.42
  -8  -3   7    1.19    0.46
   8  -3  -7    0.14    0.34
   8  -3  -7    0.94    0.46
  -8  -3   7    0.65    0.37
  -8   3   7    0.83    0.16
  -8   3   7    0.55    0.33
   8   3  -7    0.41    0.21
  -7  -3   7    1.11    0.36
   7  -3  -7    1.05    0.33
  -7  -3   7    0.58    0.33
  -7  -3   7    1.12    0.16
   7  -3  -7    0.94    0.29
  -7   3   7    1.26    0.21
  -7   3   7    1.02    0.34
  -6  -3   7    1.45    0.35
   6  -3  -7    1.55    0.41
   6  -3  -7    1.26    0.31
  -6  -3   7    1.83    0.32
  -6   3   7    1.98    0.21
   6   3  -7    2.21    0.27
  -6   3   7    1.60    0.34
  -5  -3   7    5.11    0.56
   5  -3  -7    5.05    0.75
   5  -3  -7    5.36    0.62
   5  -3  -7    4.68    0.41
   5  -3  -7    4.99    0.53
  -5  -3   7    4.74    0.43
  -5  -3   7    4.95    0.25
  -5  -3   7    4.78    0.23
   5   3  -7    4.82    0.30
  -5   3   7    4.65    0.29
  -4  -3   7    2.99    0.43
   4  -3  -7    2.85    0.27
   4  -3  -7    2.82    0.48
   4  -3  -7    3.36    0.61
  -4  -3   7    2.42    0.30
   4  -3  -7    2.23    0.36
  -4  -3   7    3.26    0.45
  -4  -3   7    2.51    0.18
  -4  -3   7    2.15    0.20
   4  -3  -7    2.62    0.38
   4   3  -7    2.54    0.18
  -4   3   7    2.47    0.39
  -4   3   7    2.28    0.32
  -4   3   7    2.58    0.19
   4   3  -7    2.15    0.36
   4   3  -7    2.83    0.49
   3  -3  -7   11.34    0.49
  -3  -3   7   10.93    0.45
  -3  -3   7   10.72    0.43
  -3  -3   7   10.54    0.67
  -3  -3   7   11.40    0.53
   3  -3  -7   10.47    0.82
   3  -3  -7   11.38    0.80
   3  -3  -7   11.15    0.63
   3   3  -7   10.65    0.39
  -3   3   7   10.76    0.64
  -3   3   7   10.44    0.54
   3   3  -7   10.47    0.74
   3   3  -7   10.65    0.70
   3   3  -7   10.89    0.66
   2  -3  -7    1.92    0.16
   2  -3  -7    2.39    0.35
  -2  -3   7    2.33    0.20
  -2  -3   7    2.63    0.26
   2  -3  -7    2.61    0.28
   2  -3  -7    2.87    0.49
  -2  -3   7    1.77    0.32
   2   3  -7    2.33    0.31
  -2   3   7    2.62    0.43
  -2   3   7    2.28    0.26
   2   3  -7    1.74    0.32
   2   3  -7    2.37    0.44
  -2   3   7    1.87    0.17
  -1  -3   7    5.89    0.43
   1  -3  -7    5.88    0.29
   1  -3  -7    5.25    0.37
  -1  -3   7    5.80    0.32
   1  -3  -7    5.69    0.24
  -1  -3   7    5.59    0.41
   1  -3  -7    5.44    0.43
   1  -3  -7    5.19    0.53
   1   3  -7    4.61    0.61
   1   3  -7    5.40    0.49
  -1   3   7    5.52    0.37
  -1   3   7    5.43    0.42
   1   3  -7    5.71    0.45
  -1   3   7    5.37    0.56
   0  -3  -7   14.45    0.66
   0  -3  -7   15.13    0.71
   0  -3   7   15.98    0.78
   0  -3  -7   15.56    0.65
   0  -3  -7   15.78    0.70
   0  -3  -7   15.04    0.59
   0  -3   7   15.56    0.63
   0  -3  -7   14.63    0.81
   0  -3   7   14.91    0.80
   0  -3   7   15.64    0.77
   0   3   7   15.38    0.72
   0   3  -7   15.11    1.01
   0   3  -7   14.72    0.80
   0   3   7   14.59    0.90
   1  -3   7    0.09    0.15
   1  -3   7    0.25    0.26
  -1  -3  -7    0.20    0.17
  -1  -3  -7    0.20    0.22
  -1  -3  -7    0.07    0.14
  -1  -3  -7    0.16    0.10
  -1  -3  -7    0.12    0.09
   1  -3   7    0.19    0.12
   1  -3   7    0.08    0.10
  -1  -3  -7    0.07    0.09
   1   3   7   -0.05    0.21
  -1   3  -7    0.17    0.12
  -1   3  -7   -0.20    0.34
   1   3   7    0.21    0.14
  -2  -3  -7    6.30    0.48
   2  -3   7    5.64    0.41
  -2  -3  -7    6.73    0.38
   2  -3   7    6.43    0.57
  -2  -3  -7    6.69    0.42
   2  -3   7    6.87    0.50
   2  -3   7    6.84    0.41
  -2  -3  -7    6.97    0.48
   2  -3   7    6.54    0.33
  -2  -3  -7    6.71    0.42
   2   3   7    6.98    0.61
  -2   3  -7    6.33    0.47
   2   3   7    6.39    0.40
  -2   3  -7    6.07    0.80
  -2   3  -7    6.54    0.30
   3  -3   7    3.31    0.44
   3  -3   7    2.86    0.31
  -3  -3  -7    3.01    0.38
   3  -3   7    3.13    0.24
  -3  -3  -7    3.00    0.28
   3  -3   7    2.75    0.36
  -3  -3  -7    2.85    0.32
  -3  -3  -7    3.03    0.35
  -3  -3  -7    2.75    0.41
   3  -3   7    3.15    0.37
   3   3   7    3.17    0.27
   3   3   7    3.04    0.46
  -3   3  -7    2.56    0.61
  -3   3  -7    2.78    0.29
  -3   3  -7    3.02    0.34
  -4  -3  -7    4.74    0.41
   4  -3   7    5.37    0.41
  -4  -3  -7    4.35    0.31
  -4  -3  -7    4.69    0.25
   4  -3   7    4.48    0.58
   4  -3   7    4.23    0.34
  -4  -3  -7    4.46    0.36
   4   3   7    4.28    0.54
   4   3   7    4.15    0.46
  -4   3  -7    3.88    0.42
  -5  -3  -7    3.61    0.42
   5  -3   7    3.94    0.39
   5  -3   7    3.86    0.43
   5  -3   7    2.95    0.36
  -5  -3  -7    3.33    0.33
   5  -3   7    2.80    0.46
  -5  -3  -7    3.67    0.23
   5   3   7    3.35    0.38
   5   3   7    3.74    0.54
  -5   3  -7    3.45    0.38
   5   3   7    3.72    0.52
  -5   3  -7    2.80    0.50
   6  -3   7    2.48    0.40
  -6  -3  -7    2.51    0.41
  -6  -3  -7    2.12    0.30
   6  -3   7    1.90    0.29
   6  -3   7    1.68    0.43
   6  -3   7    2.09    0.31
  -6   3  -7    2.28    0.44
  -6   3  -7    1.79    0.31
   6   3   7    2.66    0.52
   7  -3   7    2.91    0.43
   7  -3   7    2.72    0.43
   7  -3   7    2.79    0.37
  -7  -3  -7    2.31    0.49
   7   3   7    3.24    0.58
   7   3   7    3.55    0.39
  -7   3  -7    2.58    0.39
   8  -3   7    0.31    0.26
   8  -3   7   -0.24    0.26
  -8  -3  -7   -0.28    0.27
   8   3   7   -0.41    0.22
   8   3   7    0.46    0.39
  -8   3  -7    0.41    0.23
   9  -3   7    1.46    0.37
  -9  -3  -7    1.44    0.38
   9  -3   7    0.89    0.33
   9   3   7    0.82    0.50
  -9   3  -7    1.47    0.36
  -9  -4   7    2.12    0.58
   9  -4  -7    3.04    0.83
   9  -4  -7    2.62    0.61
  -9  -4   7    2.48    0.31
   9   4  -7    3.03    0.46
  -9   4   7    3.00    0.44
  -9   4   7    3.59    0.61
   8  -4  -7    2.03    0.67
  -8  -4   7    1.52    0.53
  -8  -4   7    2.31    0.23
   8  -4  -7    2.36    0.55
   8   4  -7    2.10    0.37
  -8   4   7    2.01    0.51
  -8   4   7    2.08    0.36
  -7  -4   7    2.23    0.20
  -7  -4   7    1.11    0.47
   7  -4  -7    2.23    0.49
   7  -4  -7    1.84    0.54
   7   4  -7    1.61    0.24
  -7   4   7    2.19    0.48
  -7   4   7    2.37    0.31
   6  -4  -7    2.21    0.50
   6  -4  -7    2.87    0.47
  -6  -4   7    2.48    0.40
  -6  -4   7    2.58    0.18
   6  -4  -7    2.39    0.38
  -6  -4   7    2.49    0.20
  -6  -4   7    2.38    0.52
  -6   4   7    2.33    0.30
  -6   4   7    1.45    0.36
   6   4  -7    1.89    0.23
  -5  -4   7    5.11    0.71
  -5  -4   7    5.44    0.30
  -5  -4   7    5.78    0.51
   5  -4  -7    5.75    0.78
  -5  -4   7    5.48    0.35
   5  -4  -7    6.66    0.50
  -5  -4   7    4.81    0.68
   5  -4  -7    6.13    0.62
  -5   4   7    4.89    0.36
  -5   4   7    5.83    0.62
   5   4  -7    5.08    0.31
  -4  -4   7    2.55    0.33
  -4  -4   7    1.90    0.20
  -4  -4   7    2.12    0.29
   4  -4  -7    2.62    0.54
   4  -4  -7    1.79    0.34
   4  -4  -7    2.04    0.32
  -4  -4   7    1.88    0.14
  -4  -4   7    1.18    0.34
  -4   4   7    1.64    0.22
  -4   4   7    2.68    0.46
  -3  -4   7    9.25    0.57
   3  -4  -7    9.26    0.48
   3  -4  -7   10.00    0.65
  -3  -4   7    9.51    0.46
   3  -4  -7   10.31    0.89
   3   4  -7    8.62    0.93
  -3   4   7    9.43    0.68
   3   4  -7    9.77    0.72
  -3   4   7    9.01    0.47
  -2  -4   7    3.13    0.27
   2  -4  -7    2.08    0.44
   2  -4  -7    2.71    0.23
  -2   4   7    2.90    0.25
   2   4  -7    3.17    0.44
  -2   4   7    3.44    0.46
   2   4  -7    2.83    0.61
   1  -4  -7   11.81    0.77
  -1  -4   7   12.44    0.60
   1  -4  -7   12.05    1.00
   1  -4  -7   12.79    0.53
   1  -4  -7   12.61    0.74
   1  -4  -7   12.91    0.63
  -1  -4   7   12.47    0.74
   1   4  -7   12.74    0.79
   1   4  -7   12.82    1.13
  -1   4   7   12.55    0.75
   0  -4   7    0.58    0.18
   0  -4  -7    0.63    0.13
   0  -4   7    0.90    0.24
   0  -4  -7    0.62    0.31
   0   4  -7    0.70    0.22
   0   4   7    1.01    0.24
   0   4  -7    0.96    0.55
  -1  -4  -7    3.58    0.36
   1  -4   7    3.05    0.42
  -1  -4  -7    3.03    0.52
   1  -4   7    2.96    0.34
  -1  -4  -7    3.70    0.31
   1   4   7    2.59    0.38
  -1   4  -7    2.78    0.41
  -2  -4  -7    0.57    0.19
   2  -4   7    0.53    0.20
   2  -4   7    0.80    0.15
   2  -4   7    0.55    0.26
  -2  -4  -7    0.40    0.13
  -2  -4  -7    0.54    0.28
  -2  -4  -7    0.66    0.19
  -2   4  -7    0.77    0.12
  -2   4  -7    0.66    0.21
   2   4   7    0.69    0.20
   3  -4   7    1.08    0.17
  -3  -4  -7    0.91    0.19
  -3  -4  -7    1.02    0.26
   3  -4   7    0.98    0.24
  -3  -4  -7    1.06    0.29
   3  -4   7    0.75    0.29
  -3  -4  -7    1.24    0.27
  -3  -4  -7    0.75    0.17
   3   4   7    0.71    0.35
  -3   4  -7    0.54    0.25
  -3   4  -7    0.97    0.15
  -4  -4  -7   -0.01    0.13
  -4  -4  -7    0.12    0.28
   4  -4   7    0.38    0.27
   4  -4   7    0.29    0.16
   4  -4   7    0.78    0.26
  -4  -4  -7    0.10    0.13
  -4  -4  -7    0.20    0.26
  -4  -4  -7    0.51    0.25
   4   4   7    0.37    0.35
  -4   4  -7   -0.03    0.17
  -4   4  -7   -0.10    0.19
   5  -4   7    0.47    0.30
  -5  -4  -7    0.34    0.11
   5  -4   7    0.68    0.26
  -5  -4  -7    0.41    0.36
   5  -4   7    0.66    0.20
  -5  -4  -7    0.28    0.25
  -5   4  -7    0.54    0.23
   5   4   7    0.51    0.39
   6  -4   7    0.16    0.25
   6  -4   7    0.64    0.32
  -6  -4  -7    0.19    0.27
   6  -4   7    0.44    0.29
   6   4   7    0.59    0.42
  -6   4  -7    0.06    0.20
   6   4   7    0.21    0.22
   7  -4   7    1.42    0.40
  -7  -4  -7    1.46    0.38
   7  -4   7    0.70    0.34
  -7   4  -7    1.17    0.32
   7   4   7    0.98    0.48
   7   4   7    1.27    0.31
  -8  -4  -7    0.86    0.40
   8  -4   7   -0.04    0.35
   8  -4   7    0.08    0.37
   8   4   7    0.56    0.34
   8   4   7    1.10    0.55
  -7  -5   7    0.21    0.13
   7  -5  -7   -0.19    0.71
   7  -5  -7    0.11    0.50
  -7  -5   7    0.57    0.53
  -7   5   7   -0.35    0.49
  -6  -5   7    1.34    0.21
   6  -5  -7    1.13    0.48
  -6  -5   7    1.58    0.54
   6  -5  -7    1.21    0.68
  -6   5   7    0.80    0.47
  -5  -5   7    0.99    0.17
   5  -5  -7    0.72    0.39
   5  -5  -7    1.21    0.58
  -5  -5   7    0.45    0.45
  -5   5   7    0.10    0.43
  -4  -5   7    1.83    0.44
  -4  -5   7    1.89    0.27
  -4  -5   7    2.70    0.43
   4  -5  -7    1.36    0.54
   4  -5  -7    3.13    0.59
  -4   5   7    1.59    0.33
  -4   5   7    2.76    0.50
   3  -5  -7    0.15    0.45
  -3  -5   7    0.19    0.27
  -3  -5   7    0.38    0.15
   3  -5  -7    0.28    0.29
  -3   5   7    0.30    0.32
   3   5  -7    0.20    0.31
  -3   5   7    0.11    0.17
   2  -5  -7   13.11    0.71
   2  -5  -7   11.94    1.12
  -2  -5   7   11.31    0.61
   2  -5  -7   10.89    0.78
   2   5  -7   12.59    0.93
  -2   5   7   12.51    0.90
   1  -5  -7    0.42    0.22
  -1  -5   7    0.06    0.29
   1  -5  -7    0.79    0.25
  -1  -5   7    0.55    0.18
   1  -5  -7    0.60    0.17
   1  -5  -7    0.67    0.47
  -1   5   7    0.29    0.31
   1   5  -7    0.89    0.28
   0  -5   7    1.97    0.40
   0  -5   7    2.41    0.38
   0  -5  -7    3.25    0.43
   0  -5  -7    2.21    0.31
   0  -5  -7    2.34    0.57
   0  -5  -7    2.61    0.38
   0   5  -7    2.12    0.41
   0   5   7    2.21    0.37
  -1  -5  -7    0.56    0.21
  -1  -5  -7    0.50    0.47
  -1  -5  -7    0.75    0.26
   1  -5   7    0.64    0.34
   1  -5   7    0.29    0.21
  -1  -5  -7    0.65    0.19
  -1   5  -7    0.68    0.27
   1   5   7    0.85    0.28
  -2  -5  -7    2.07    0.38
   2  -5   7    2.17    0.34
  -2  -5  -7    1.81    0.61
  -2  -5  -7    2.94    0.45
  -2  -5  -7    2.18    0.34
   2  -5   7    2.21    0.47
  -2   5  -7    2.18    0.40
  -3  -5  -7   -0.19    0.23
  -3  -5  -7   -0.25    0.50
  -3  -5  -7    0.03    0.27
   3  -5   7    0.06    0.27
   3  -5   7   -0.08    0.33
  -3  -5  -7   -0.08    0.16
  -3   5  -7   -0.05    0.28
   4  -5   7    0.91    0.41
  -4  -5  -7    1.39    0.26
  -4  -5  -7    1.95    0.35
   4  -5   7    1.54    0.36
   4   5   7    1.82    0.57
   5  -5   7    2.26    0.46
   5  -5   7    3.87    0.66
  -5  -5  -7    2.23    0.49
   5   5   7    1.78    0.64
   6  -5   7    0.77    0.41
  -6  -5  -7    0.49    0.25
  -6  -5  -7    0.21    0.44
   6   5   7    1.23    0.65
  -6   5  -7    0.37    0.34
   3  -6  -7   -0.07    0.77
  -3  -6   7    0.92    0.49
   3  -6  -7    1.08    0.44
  -3  -6   7    0.70    0.21
  -3  -6   7    0.08    0.39
   2  -6  -7    0.92    0.37
  -2  -6   7    0.48    0.43
   2  -6  -7   -0.79    0.66
  -2  -6   7    0.52    0.24
  -2   6   7    0.64    0.44
   2   6  -7    0.06    0.41
  -1  -6   7    1.34    0.46
  -1  -6   7    0.94    0.31
   1  -6  -7    1.23    0.36
   1  -6  -7    1.64    0.77
   1   6  -7    0.69    0.45
  -1   6   7    1.84    0.44
   0  -6   7    3.07    0.58
   0  -6   7    2.40    0.42
   0  -6  -7    2.75    0.87
   0  -6  -7    2.93    0.57
   0   6   7    3.02    0.48
   0   6  -7    3.97    0.69
   1  -6   7    0.70    0.32
   1  -6   7    1.68    0.50
  -1  -6  -7    1.93    0.73
  -1  -6  -7    1.90    0.42
  -1  -6  -7    1.48    0.31
  -1   6  -7    1.07    0.45
  -2  -6  -7    0.57    0.25
   2  -6   7    0.38    0.49
  -2  -6  -7   -0.08    0.35
   2  -6   7   -0.13    0.34
  -2  -6  -7   -0.64    0.72
  -2   6  -7    0.17    0.39
 -11   0   8    2.43    0.40
 -11   0   8    2.60    0.47
  11   0  -8    1.44    0.52
 -10   0   8    2.62    0.51
 -10   0   8    2.14    0.35
  10   0  -8    2.00    0.44
   9   0  -8   -0.17    0.26
  -9   0   8    0.35    0.21
  -9   0   8   -0.12    0.22
   8   0  -8   17.00    0.55
  -8   0   8   15.06    0.89
   8   0  -8   14.03    0.96
  -8   0   8   15.90    0.77
   7   0  -8    8.29    0.64
   7   0  -8    8.13    0.33
   7   0  -8    7.63    0.36
   7   0  -8    7.67    0.46
   7   0  -8    8.51    0.62
  -7   0   8    7.57    0.62
  -7   0   8    8.20    0.47
   6   0  -8    3.74    0.37
  -6   0   8    4.80    0.33
   6   0  -8    5.15    0.46
   6   0  -8    4.61    0.24
  -6   0   8    4.89    0.47
   6   0  -8    4.86    0.25
  -6   0   8    5.83    0.45
   6   0  -8    5.53    0.48
  -5   0   8    1.65    0.26
  -5   0   8    1.42    0.24
  -5   0   8    1.81    0.20
   5   0  -8    1.75    0.15
   5   0  -8    1.76    0.15
  -5   0   8    1.85    0.31
   5   0  -8    1.47    0.27
  -5   0   8    1.99    0.30
  -4   0   8   12.92    0.64
  -4   0   8   11.96    0.56
  -4   0   8   13.51    0.65
   4   0  -8   12.54    0.44
   4   0  -8   12.32    0.63
   4   0  -8   12.65    0.47
  -4   0   8   11.43    0.49
  -4   0   8   11.79    0.59
   3   0  -8   12.58    0.59
   3   0  -8   12.46    0.43
  -3   0   8   12.36    0.56
  -3   0   8   12.27    0.56
  -3   0   8   12.75    0.60
  -3   0   8   12.12    0.47
  -3   0   8   12.09    0.51
  -2   0   8    5.91    0.34
  -2   0   8    7.03    0.34
   2   0  -8    6.51    0.25
  -2   0   8    6.80    0.29
   2   0  -8    6.46    0.35
   2   0  -8    6.74    0.29
   1   0  -8   24.25    0.98
  -1   0   8   25.98    0.79
  -1   0   8   24.58    0.92
   1   0  -8   25.92    0.77
   1   0  -8   23.97    0.88
   1   0  -8   25.16    0.88
  -1   0   8   25.46    0.85
  -1   0   8   26.09    0.95
   0   0   8   56.07    2.05
   0   0  -8   60.12    1.90
   0   0  -8   58.05    1.83
   0   0   8   58.68    1.67
   0   0  -8   55.65    1.67
   0   0  -8   56.16    2.08
   0   0  -8   58.52    1.85
   0   0   8   58.59    1.92
  -1   0  -8    0.12    0.06
  -1   0  -8    0.06    0.06
   1   0   8    0.00    0.05
  -1   0  -8    0.05    0.05
  -1   0  -8    0.02    0.07
   1   0   8    0.02    0.05
   1   0   8    0.00    0.03
   2   0   8   48.56    1.56
   2   0   8   44.08    1.76
  -2   0  -8   48.98    1.62
  -2   0  -8   48.08    1.73
   2   0   8   48.51    1.34
   2   0   8   47.37    1.58
  -2   0  -8   44.91    1.63
  -2   0  -8   44.61    1.40
   3   0   8    1.80    0.19
   3   0   8    2.00    0.18
  -3   0  -8    1.64    0.27
  -3   0  -8    1.37    0.25
   3   0   8    1.70    0.16
  -4   0  -8    6.67    0.49
   4   0   8    7.63    0.36
  -4   0  -8    7.28    0.40
  -4   0  -8    6.76    0.51
   4   0   8    7.73    0.41
   4   0   8    6.40    0.50
   4   0   8    7.56    0.23
   4   0   8    7.46    0.30
   5   0   8    1.43    0.22
  -5   0  -8    1.38    0.31
   5   0   8    1.78    0.38
  -5   0  -8    1.47    0.34
   5   0   8    1.69    0.17
   6   0   8    5.77    0.62
   6   0   8    5.22    0.32
   6   0   8    5.15    0.40
  -6   0  -8    6.16    0.40
  -6   0  -8    4.82    0.64
  -6   0  -8    5.11    0.69
   7   0   8    0.07    0.10
   7   0   8    0.13    0.16
  -7   0  -8    0.03    0.13
   8   0   8    2.27    0.24
  -8   0  -8    1.98    0.33
   8   0   8    2.33    0.39
  -9   0  -8   -0.10    0.20
   9   0   8    0.29    0.25
   9   0   8    0.06    0.16
  10   0   8    0.48    0.29
  10   0   8    0.60    0.23
 -10   0  -8    0.40    0.25
  11  -1  -8    0.21    0.44
 -11  -1   8    1.01    0.31
 -11   1   8    1.26    0.40
 -11   1   8    1.16    0.32
  11   1  -8    1.19    0.44
 -10  -1   8    3.32    0.41
 -10  -1   8    2.23    0.48
  10  -1  -8    4.22    0.77
  10   1  -8    2.31    0.43
 -10   1   8    2.55    0.45
 -10   1   8    2.64    0.42
   9  -1  -8    1.41    0.32
   9  -1  -8    1.34    0.35
  -9  -1   8    1.78    0.27
  -9  -1   8    1.65    0.35
   9  -1  -8    1.42    0.33
  -9   1   8    1.42    0.28
  -9   1   8    1.95    0.34
   9   1  -8    0.86    0.30
   8  -1  -8    3.81    0.45
   8  -1  -8    3.63    0.49
  -8  -1   8    3.76    0.32
   8  -1  -8    3.44    0.61
   8  -1  -8    4.19    0.56
   8   1  -8    4.75    0.54
  -8   1   8    4.12    0.44
  -8   1   8    4.33    0.39
  -7  -1   8    0.24    0.21
   7  -1  -8    0.42    0.22
  -7  -1   8    0.57    0.31
   7  -1  -8    0.47    0.23
  -7  -1   8    0.42    0.12
   7  -1  -8    0.03    0.25
   7  -1  -8    0.47    0.22
  -7  -1   8    0.42    0.27
  -7   1   8    0.33    0.18
  -7   1   8    0.37    0.15
   7   1  -8    0.50    0.21
  -6  -1   8    4.46    0.49
  -6  -1   8    4.38    0.27
   6  -1  -8    3.61    0.37
   6  -1  -8    4.74    0.44
   6  -1  -8    4.05    0.44
   6  -1  -8    3.77    0.25
   6  -1  -8    4.24    0.44
  -6  -1   8    3.58    0.43
   6   1  -8    4.06    0.26
   6   1  -8    4.36    0.27
  -6   1   8    4.82    0.35
   6   1  -8    3.48    0.39
  -6   1   8    3.98    0.43
  -6   1   8    4.39    0.37
   5  -1  -8   14.99    0.70
   5  -1  -8   15.45    0.82
  -5  -1   8   15.74    0.81
  -5  -1   8   15.25    0.71
   5  -1  -8   15.07    0.57
   5  -1  -8   15.74    0.80
  -5  -1   8   15.51    0.86
   5   1  -8   16.07    0.58
  -5   1   8   15.56    0.73
  -5   1   8   16.38    0.72
   5   1  -8   15.60    0.75
  -5   1   8   14.41    0.80
  -5   1   8   16.07    0.70
   5   1  -8   14.91    0.61
  -4  -1   8   13.48    0.58
  -4  -1   8   13.35    0.47
  -4  -1   8   13.28    0.71
   4  -1  -8   13.73    0.61
  -4  -1   8   12.79    0.68
  -4  -1   8   12.48    0.52
   4  -1  -8   13.55    0.68
   4  -1  -8   12.13    0.48
   4   1  -8   12.78    0.49
  -4   1   8   12.68    0.58
   4   1  -8   13.07    0.62
  -4   1   8   12.22    0.70
   4   1  -8   13.31    0.56
  -4   1   8   12.93    0.60
  -4   1   8   13.51    0.60
   3  -1  -8   37.59    1.18
  -3  -1   8   38.93    1.29
  -3  -1   8   37.25    1.56
   3  -1  -8   39.52    1.43
  -3  -1   8   35.91    1.51
  -3  -1   8   38.56    1.16
   3  -1  -8   39.08    1.38
  -3  -1   8   38.84    1.28
  -3   1   8   38.52    1.41
   3   1  -8   39.47    1.35
  -3   1   8   37.27    1.40
  -3   1   8   38.44    1.33
   3   1  -8   38.48    1.21
  -3   1   8   39.35    1.30
  -3   1   8   40.11    1.53
   3   1  -8   40.78    1.37
   2  -1  -8   19.84    0.65
   2  -1  -8   20.17    0.78
  -2  -1   8   19.31    0.62
  -2  -1   8   19.73    0.66
   2  -1  -8   19.51    0.79
  -2  -1   8   19.42    0.70
  -2  -1   8   20.01    0.85
   2   1  -8   20.14    0.73
  -2   1   8   19.72    0.70
   2   1  -8   19.77    0.88
  -2   1   8   19.08    0.73
  -2   1   8   19.26    0.88
  -2   1   8   19.30    0.73
   2   1  -8   19.76    0.69
   2   1  -8   19.85    0.80
  -1  -1   8    2.85    0.14
  -1  -1   8    2.91    0.23
   1  -1  -8    2.85    0.23
   1  -1  -8    2.92    0.16
   1  -1  -8    2.70    0.21
  -1  -1   8    2.67    0.16
   1   1  -8    2.79    0.16
   1   1  -8    2.85    0.23
  -1   1   8    2.74    0.21
   1   1  -8    2.69    0.19
  -1   1   8    2.78    0.27
   1   1  -8    2.62    0.26
   1   1  -8    2.72    0.21
  -1   1   8    3.07    0.21
   0  -1  -8   25.01    0.76
   0  -1  -8   24.22    0.90
   0  -1   8   25.20    0.77
   0  -1   8   25.22    0.99
   0  -1   8   25.43    0.88
   0  -1  -8   24.87    0.93
   0  -1  -8   25.56    0.90
   0  -1  -8   26.03    0.91
   0   1  -8   24.20    0.84
   0   1   8   25.39    0.85
   0   1   8   24.85    1.02
   0   1  -8   24.48    0.86
   0   1   8   25.85    0.93
   0   1  -8   24.52    1.02
   0   1  -8   26.25    1.04
  -1  -1  -8   84.95    2.71
   1  -1   8   84.01    2.40
  -1  -1  -8   82.92    2.73
  -1  -1  -8   84.42    2.37
  -1  -1  -8   82.66    2.65
   1  -1   8   87.67    3.01
   1  -1   8   83.77    2.72
  -1   1  -8   84.30    2.90
   1   1   8   86.43    2.47
   1   1   8   84.06    2.99
   1   1   8   76.72    2.82
  -1   1  -8   83.77    2.65
  -1   1  -8   86.24    3.05
  -1   1  -8   86.22    2.52
  -2  -1  -8    6.49    0.32
  -2  -1  -8    6.13    0.21
   2  -1   8    6.30    0.25
   2  -1   8    6.42    0.37
  -2  -1  -8    6.17    0.30
   2  -1   8    6.07    0.29
   2  -1   8    6.39    0.31
  -2  -1  -8    6.42    0.40
   2   1   8    5.26    0.35
  -2   1  -8    6.06    0.37
  -2   1  -8    6.14    0.37
   2   1   8    5.67    0.38
  -2   1  -8    6.27    0.37
  -2   1  -8    6.06    0.49
   2   1   8    5.71    0.34
  -3  -1  -8   13.25    0.55
   3  -1   8   13.62    0.55
   3  -1   8   12.99    0.45
  -3  -1  -8   12.78    0.58
   3  -1   8   12.63    0.59
   3  -1   8   13.40    0.55
  -3  -1  -8   13.33    0.68
   3  -1   8   12.76    0.65
  -3   1  -8   12.61    0.62
   3   1   8   12.99    0.60
  -3   1  -8   13.16    0.78
  -3   1  -8   13.03    0.65
   3   1   8   12.40    0.67
   3   1   8   14.64    0.61
   4  -1   8    0.18    0.09
  -4  -1  -8    0.19    0.09
   4  -1   8    0.22    0.09
   4  -1   8    0.15    0.15
   4  -1   8    0.15    0.06
   4  -1   8    0.29    0.16
  -4  -1  -8    0.11    0.11
  -4  -1  -8    0.00    0.18
  -4   1  -8    0.05    0.29
  -4   1  -8    0.21    0.10
   4   1   8    0.32    0.19
   4   1   8    0.07    0.10
  -4   1  -8   -0.07    0.19
   5  -1   8    1.26    0.26
  -5  -1  -8    1.85    0.37
   5  -1   8    1.72    0.24
   5  -1   8    1.92    0.19
  -5  -1  -8    1.82    0.31
   5  -1   8    1.73    0.15
  -5  -1  -8    1.71    0.24
   5  -1   8    1.90    0.27
  -5   1  -8    2.32    0.23
   5   1   8    1.83    0.26
   5   1   8    2.01    0.24
  -5   1  -8    1.69    0.46
   5   1   8    2.69    0.44
   6  -1   8    3.69    0.26
  -6  -1  -8    2.86    0.44
   6  -1   8    4.49    0.38
  -6  -1  -8    3.64    0.35
   6  -1   8    3.52    0.20
   6  -1   8    3.26    0.33
  -6   1  -8    2.87    0.51
   6   1   8    4.14    0.59
  -6   1  -8    3.59    0.33
   6   1   8    3.68    0.32
   7  -1   8    3.09    0.26
   7  -1   8    2.81    0.19
  -7  -1  -8    2.21    0.35
   7  -1   8    2.54    0.29
   7  -1   8    3.19    0.41
   7   1   8    2.93    0.32
  -7   1  -8    2.77    0.32
   7   1   8    2.63    0.33
  -8  -1  -8    2.42    0.38
   8  -1   8    2.60    0.25
   8  -1   8    3.78    0.44
   8  -1   8    2.48    0.20
   8   1   8    3.03    0.40
  -8   1  -8    2.94    0.36
   8   1   8    3.07    0.37
  -9  -1  -8    0.16    0.23
   9  -1   8    0.70    0.27
   9   1   8    0.68    0.24
   9   1   8    0.18    0.22
  -9   1  -8    0.16    0.20
  10  -1   8    0.79    0.36
  10  -1   8    0.47    0.19
 -10  -1  -8    0.61    0.29
 -10   1  -8    0.21    0.26
  10   1   8    0.43    0.27
  10   1   8    0.19    0.32
 -11  -2   8    0.26    0.27
 -11  -2   8    0.90    0.51
 -11   2   8    0.75    0.28
  11   2  -8    0.10    0.39
 -11   2   8    0.86    0.41
 -10  -2   8    0.99    0.40
  10  -2  -8    0.05    0.41
 -10  -2   8    0.62    0.20
  10  -2  -8    0.10    0.44
 -10   2   8    0.23    0.22
  10   2  -8    0.20    0.35
 -10   2   8    0.19    0.37
   9  -2  -8    3.54    0.66
  -9  -2   8    2.42    0.31
  -9  -2   8    2.20    0.43
   9  -2  -8    2.53    0.55
  -9   2   8    2.49    0.44
   9   2  -8    2.34    0.41
  -9   2   8    2.95    0.35
  -8  -2   8    0.00    0.28
   8  -2  -8    0.26    0.33
  -8  -2   8    0.13    0.34
   8  -2  -8    0.98    0.35
   8  -2  -8    0.58    0.30
   8  -2  -8    0.43    0.42
  -8  -2   8    0.32    0.12
  -8   2   8    0.54    0.14
   8   2  -8    0.23    0.23
  -8   2   8    0.46    0.24
   7  -2  -8    1.68    0.33
   7  -2  -8    2.74    0.45
   7  -2  -8    1.67    0.39
  -7  -2   8    1.68    0.36
   7  -2  -8    1.85    0.43
  -7  -2   8    1.53    0.34
  -7   2   8    1.69    0.30
  -7   2   8    1.62    0.22
   6  -2  -8    6.39    0.62
  -6  -2   8    6.93    0.31
   6  -2  -8    6.36    0.60
   6  -2  -8    6.54    0.64
  -6  -2   8    6.28    0.60
   6  -2  -8    7.30    0.53
  -6  -2   8    7.11    0.52
  -6  -2   8    6.61    0.62
   6   2  -8    6.70    0.47
  -6   2   8    6.56    0.51
  -6   2   8    6.60    0.37
   5  -2  -8   13.77    0.62
  -5  -2   8   14.39    0.68
   5  -2  -8   13.80    0.83
   5  -2  -8   15.51    0.84
  -5  -2   8   15.34    0.53
  -5  -2   8   14.97    0.88
   5  -2  -8   15.89    0.72
  -5  -2   8   14.72    0.85
   5  -2  -8   14.05    0.89
   5   2  -8   14.19    0.66
  -5   2   8   15.23    0.76
   5   2  -8   15.16    0.67
  -5   2   8   14.86    0.61
   5   2  -8   14.60    0.69
  -5   2   8   14.13    0.71
   4  -2  -8    2.47    0.33
  -4  -2   8    2.30    0.13
   4  -2  -8    2.08    0.41
  -4  -2   8    2.45    0.15
  -4  -2   8    2.09    0.38
   4  -2  -8    2.33    0.23
   4  -2  -8    2.64    0.25
  -4  -2   8    2.01    0.24
  -4  -2   8    2.41    0.34
   4   2  -8    2.12    0.22
   4   2  -8    2.77    0.37
  -4   2   8    2.20    0.41
   4   2  -8    2.32    0.29
  -4   2   8    2.15    0.28
  -4   2   8    2.79    0.32
  -3  -2   8    5.60    0.24
  -3  -2   8    5.04    0.24
  -3  -2   8    5.37    0.25
   3  -2  -8    5.26    0.34
  -3  -2   8    5.09    0.42
   3  -2  -8    5.82    0.41
   3  -2  -8    5.60    0.48
  -3   2   8    5.51    0.39
  -3   2   8    4.89    0.34
   3   2  -8    4.86    0.30
   3   2  -8    4.56    0.45
   3   2  -8    5.09    0.42
  -3   2   8    4.90    0.47
   3   2  -8    5.23    0.37
  -2  -2   8   64.43    2.42
  -2  -2   8   67.85    1.89
   2  -2  -8   62.01    1.95
  -2  -2   8   64.52    2.10
   2  -2  -8   63.01    2.27
   2  -2  -8   64.23    2.18
  -2   2   8   61.37    2.08
   2   2  -8   63.63    2.48
   2   2  -8   64.26    2.03
  -2   2   8   66.75    2.09
   2   2  -8   62.81    2.31
  -2   2   8   62.23    2.43
  -1  -2   8   10.02    0.45
   1  -2  -8   10.09    0.44
   1  -2  -8    9.76    0.48
  -1  -2   8    8.88    0.51
  -1  -2   8    9.71    0.38
   1  -2  -8    9.90    0.55
   1   2  -8    9.63    0.56
   1   2  -8    9.94    0.52
  -1   2   8    9.67    0.50
   1   2  -8   10.01    0.64
  -1   2   8    9.88    0.47
  -1   2   8    9.87    0.63
   0  -2   8   11.10    0.44
   0  -2   8   11.22    0.52
   0  -2  -8   10.79    0.54
   0  -2  -8   10.47    0.55
   0  -2   8   10.50    0.56
   0  -2  -8   11.45    0.45
   0  -2  -8   11.21    0.50
   0   2  -8   10.71    0.71
   0   2   8   11.17    0.52
   0   2   8   10.47    0.64
   0   2  -8   10.90    0.60
   0   2  -8   11.35    0.58
  -1  -2  -8   13.74    0.54
   1  -2   8   13.55    0.65
  -1  -2  -8   13.57    0.64
  -1  -2  -8   14.13    0.58
   1  -2   8   13.83    0.63
   1  -2   8   14.04    0.53
  -1  -2  -8   13.54    0.62
   1   2   8   14.59    0.77
  -1   2  -8   12.92    0.81
  -1   2  -8   14.14    0.45
   1   2   8   14.06    0.59
  -1   2  -8   13.93    0.51
   1   2   8   13.45    0.58
  -1   2  -8   13.95    0.70
  -1   2  -8   12.94    0.65
   2  -2   8   30.27    1.20
  -2  -2  -8   29.36    0.90
   2  -2   8   28.85    0.97
  -2  -2  -8   31.01    1.14
  -2  -2  -8   27.84    1.08
   2  -2   8   29.90    0.99
  -2  -2  -8   28.27    1.14
   2  -2   8   28.66    1.13
   2   2   8   29.36    1.00
  -2   2  -8   28.72    1.05
  -2   2  -8   31.87    1.26
   2   2   8   28.82    1.27
   2   2   8   30.02    1.19
  -3  -2  -8    8.07    0.28
   3  -2   8    8.59    0.40
  -3  -2  -8    8.48    0.45
   3  -2   8    8.19    0.49
   3  -2   8    7.35    0.52
  -3  -2  -8    8.40    0.57
  -3  -2  -8    7.94    0.41
   3  -2   8    7.98    0.38
   3  -2   8    8.33    0.47
  -3   2  -8    8.32    0.73
  -3   2  -8    9.04    0.51
   3   2   8    8.15    0.52
   3   2   8    7.98    0.46
   4  -2   8    0.92    0.22
  -4  -2  -8    0.85    0.17
   4  -2   8    0.90    0.15
   4  -2   8    1.29    0.20
   4  -2   8    1.23    0.21
  -4  -2  -8    1.04    0.30
   4  -2   8    1.07    0.27
  -4  -2  -8    1.29    0.22
   4   2   8    1.12    0.18
  -4   2  -8    0.79    0.18
  -4   2  -8    0.72    0.37
   4   2   8    0.96    0.25
   4   2   8    1.19    0.27
  -4   2  -8    1.04    0.25
   5  -2   8    1.03    0.21
   5  -2   8    0.99    0.29
   5  -2   8    1.30    0.23
  -5  -2  -8    1.42    0.28
  -5  -2  -8    1.17    0.21
   5  -2   8    1.30    0.22
   5   2   8    2.26    0.48
  -5   2  -8    1.15    0.31
   5   2   8    1.11    0.27
  -5   2  -8    1.62    0.28
  -6  -2  -8    3.35    0.39
  -6  -2  -8    3.16    0.36
   6  -2   8    3.25    0.30
   6  -2   8    3.47    0.37
   6  -2   8    4.22    0.35
   6  -2   8    2.99    0.49
   6   2   8    2.54    0.34
   6   2   8    3.42    0.45
  -6   2  -8    3.28    0.62
  -6   2  -8    3.22    0.35
   6   2   8    4.67    0.67
   7  -2   8    3.90    0.56
   7  -2   8    3.78    0.45
  -7  -2  -8    3.92    0.45
   7  -2   8    3.63    0.34
   7  -2   8    3.92    0.36
   7   2   8    4.42    0.52
  -7   2  -8    3.77    0.41
   7   2   8    3.49    0.40
   8  -2   8    0.33    0.18
   8  -2   8    0.15    0.24
  -8  -2  -8    0.28    0.23
   8  -2   8    0.24    0.20
   8   2   8    0.38    0.23
   8   2   8    0.44    0.31
  -8   2  -8    0.40    0.21
   9  -2   8    1.26    0.24
   9  -2   8    0.88    0.32
  -9  -2  -8    0.94    0.32
   9   2   8    0.93    0.28
   9   2   8    1.26    0.40
 -10  -3   8   -0.19    0.43
  10  -3  -8   -0.21    0.62
 -10  -3   8    0.44    0.21
  10  -3  -8   -0.01    0.51
  10   3  -8   -0.03    0.33
 -10   3   8    0.24    0.19
 -10   3   8    0.09    0.48
  -9  -3   8    0.84    0.43
   9  -3  -8    1.63    0.59
  -9  -3   8    1.53    0.26
   9  -3  -8    2.02    0.50
   9   3  -8    1.12    0.31
  -9   3   8    0.87    0.44
  -8  -3   8    0.83    0.37
   8  -3  -8    0.57    0.46
   8  -3  -8    0.41    0.39
   8  -3  -8    0.59    0.37
  -8  -3   8    1.80    0.49
  -8  -3   8    0.87    0.15
  -8   3   8    1.59    0.37
   8   3  -8    1.09    0.25
  -8   3   8    1.24    0.22
  -7  -3   8    2.75    0.22
  -7  -3   8    2.00    0.47
  -7  -3   8    3.90    0.60
   7  -3  -8    2.65    0.47
   7  -3  -8    2.08    0.46
  -7   3   8    3.41    0.27
   7   3  -8    2.14    0.34
  -7   3   8    3.27    0.50
  -6  -3   8    3.84    0.48
  -6  -3   8    2.87    0.56
  -6  -3   8    2.92    0.17
  -6  -3   8    3.65    0.34
   6  -3  -8    3.97    0.46
  -6  -3   8    3.07    0.21
   6  -3  -8    3.14    0.53
   6  -3  -8    3.47    0.61
   6   3  -8    3.40    0.29
  -6   3   8    3.33    0.47
  -6   3   8    2.78    0.24
  -5  -3   8    1.81    0.13
  -5  -3   8    1.61    0.25
   5  -3  -8    1.96    0.35
  -5  -3   8    1.57    0.35
   5  -3  -8    1.85    0.42
  -5   3   8    2.16    0.18
  -5   3   8    2.26    0.40
   5   3  -8    1.63    0.35
   5   3  -8    1.53    0.20
   4  -3  -8   18.56    0.75
   4  -3  -8   16.19    1.08
   4  -3  -8   16.75    1.05
  -4  -3   8   17.42    0.61
   4  -3  -8   17.46    0.91
  -4  -3   8   17.42    0.66
  -4  -3   8   16.63    0.67
  -4  -3   8   17.04    1.00
   4   3  -8   17.29    0.61
  -4   3   8   18.57    0.90
   4   3  -8   17.13    0.96
  -4   3   8   16.93    0.68
   3  -3  -8    6.78    0.70
  -3  -3   8    7.24    0.39
   3  -3  -8    8.03    0.52
  -3  -3   8    8.10    0.35
   3  -3  -8    7.41    0.52
   3  -3  -8    8.04    0.35
  -3  -3   8    6.72    0.55
  -3   3   8    7.52    0.70
   3   3  -8    7.64    0.71
   3   3  -8    7.68    0.60
  -3   3   8    7.41    0.56
   3   3  -8    8.47    0.61
  -3   3   8    7.54    0.46
  -2  -3   8    3.19    0.40
   2  -3  -8    2.55    0.49
  -2  -3   8    2.95    0.21
  -2  -3   8    3.03    0.27
   2  -3  -8    2.90    0.35
   2  -3  -8    2.48    0.29
   2   3  -8    3.48    0.48
  -2   3   8    2.80    0.31
  -2   3   8    3.45    0.37
  -2   3   8    3.12    0.46
   2   3  -8    3.07    0.36
   2   3  -8    2.73    0.50
   1  -3  -8    0.13    0.12
  -1  -3   8    0.17    0.09
  -1  -3   8    0.25    0.13
   1  -3  -8    0.14    0.26
  -1  -3   8    0.41    0.18
   1  -3  -8    0.33    0.18
  -1   3   8    0.22    0.23
   1   3  -8    0.31    0.16
   1   3  -8   -0.26    0.32
  -1   3   8    0.09    0.11
  -1   3   8    0.13    0.17
   1   3  -8    0.32    0.24
   0  -3   8    5.13    0.41
   0  -3  -8    3.75    0.47
   0  -3  -8    4.93    0.21
   0  -3  -8    4.89    0.24
   0  -3  -8    3.93    0.38
   0  -3  -8    4.48    0.37
   0  -3   8    4.47    0.30
   0  -3  -8    4.14    0.32
   0  -3   8    3.78    0.52
   0   3  -8    4.94    0.40
   0   3   8    3.41    0.47
   0   3   8    4.54    0.38
   0   3  -8    3.81    0.69
   1  -3   8    2.24    0.40
  -1  -3  -8    2.19    0.21
   1  -3   8    2.10    0.28
  -1  -3  -8    1.66    0.19
   1  -3   8    2.16    0.23
  -1  -3  -8    2.06    0.34
  -1  -3  -8    2.17    0.30
   1  -3   8    2.68    0.30
  -1  -3  -8    1.78    0.36
  -1  -3  -8    2.13    0.23
  -1   3  -8    2.51    0.55
   1   3   8    1.84    0.29
  -1   3  -8    2.00    0.30
   1   3   8    2.09    0.38
  -2  -3  -8    0.50    0.16
  -2  -3  -8    0.16    0.19
  -2  -3  -8    0.38    0.11
   2  -3   8    0.45    0.16
  -2  -3  -8    0.28    0.12
   2  -3   8    0.72    0.15
   2  -3   8    0.84    0.29
  -2  -3  -8    0.37    0.15
   2  -3   8    0.61    0.12
  -2  -3  -8    0.71    0.24
   2  -3   8    0.50    0.17
  -2   3  -8    0.32    0.09
   2   3   8    0.17    0.24
  -2   3  -8    0.38    0.16
  -2   3  -8    0.35    0.40
   2   3   8    0.32    0.14
  -3  -3  -8    6.80    0.48
   3  -3   8    7.42    0.55
   3  -3   8    7.21    0.37
  -3  -3  -8    7.31    0.54
  -3  -3  -8    6.81    0.45
   3  -3   8    7.47    0.65
  -3  -3  -8    7.88    0.47
   3  -3   8    7.54    0.45
  -3   3  -8    7.51    0.43
   3   3   8    7.43    0.40
   3   3   8    7.66    0.65
  -3   3  -8    8.14    0.56
   4  -3   8    2.57    0.45
   4  -3   8    2.12    0.31
  -4  -3  -8    2.25    0.19
   4  -3   8    2.64    0.27
  -4  -3  -8    2.79    0.26
   4  -3   8    2.57    0.34
  -4  -3  -8    2.34    0.22
  -4  -3  -8    2.75    0.33
  -4   3  -8    2.46    0.33
   4   3   8    3.23    0.50
   4   3   8    2.21    0.43
  -4   3  -8    2.20    0.40
   5  -3   8    4.17    0.40
   5  -3   8    4.99    0.48
  -5  -3  -8    5.12    0.47
   5  -3   8    5.50    0.39
   5  -3   8    4.71    0.68
  -5   3  -8    4.98    0.57
   5   3   8    4.39    0.59
  -5   3  -8    4.38    0.44
   5   3   8    4.88    0.44
   5   3   8    4.00    0.58
  -6  -3  -8    0.87    0.25
   6  -3   8    0.95    0.21
   6  -3   8    1.10    0.42
   6  -3   8    0.75    0.22
   6  -3   8    0.69    0.24
   6   3   8    0.68    0.22
  -6   3  -8    1.02    0.38
   6   3   8    0.57    0.34
  -6   3  -8    1.50    0.33
  -7  -3  -8    2.13    0.43
   7  -3   8    2.49    0.44
   7  -3   8    1.83    0.33
   7  -3   8    2.31    0.42
  -7   3  -8    1.21    0.26
   7   3   8    1.45    0.43
   8  -3   8    0.59    0.29
  -8  -3  -8    0.50    0.31
   8   3   8    0.44    0.41
  -8   3  -8    0.31    0.26
   8  -4  -8    4.89    0.80
  -8  -4   8    3.34    0.28
  -8  -4   8    3.79    0.84
   8  -4  -8    2.50    0.67
  -8   4   8    2.44    0.53
   8   4  -8    2.60    0.41
   7  -4  -8    0.92    0.44
  -7  -4   8    1.03    0.18
   7  -4  -8    1.40    0.54
  -7  -4   8    1.21    0.42
   7   4  -8    0.66    0.19
  -7   4   8    0.69    0.40
  -7   4   8    0.80    0.19
  -6  -4   8    1.76    0.46
   6  -4  -8    1.52    0.38
  -6  -4   8    1.35    0.14
   6  -4  -8    1.47    0.51
  -6  -4   8    1.33    0.18
   6   4  -8    1.02    0.18
  -6   4   8    1.14    0.20
  -6   4   8    0.95    0.39
  -5  -4   8    6.98    0.34
   5  -4  -8    4.56    0.82
  -5  -4   8    6.06    0.73
   5  -4  -8    6.29    0.54
   5  -4  -8    7.13    0.70
  -5  -4   8    5.89    0.78
  -5  -4   8    6.94    0.37
  -5   4   8    6.90    0.39
   5   4  -8    6.95    0.34
  -5   4   8    5.44    0.67
  -4  -4   8    5.89    0.33
   4  -4  -8    6.81    0.42
   4  -4  -8    5.08    0.59
   4  -4  -8    6.23    0.79
  -4  -4   8    5.65    0.40
  -4  -4   8    6.12    0.68
   4   4  -8    4.91    0.83
  -4   4   8    6.92    0.63
  -4   4   8    6.10    0.34
   3  -4  -8   19.33    1.28
  -3  -4   8   19.43    0.75
   3  -4  -8   20.10    1.00
  -3  -4   8   20.28    0.90
   3  -4  -8   19.08    0.80
   3   4  -8   19.03    1.31
   3   4  -8   18.38    1.10
  -3   4   8   21.12    1.04
  -3   4   8   18.64    0.79
  -2  -4   8    2.57    0.35
  -2  -4   8    3.00    0.26
   2  -4  -8    2.65    0.36
   2  -4  -8    2.47    0.22
   2  -4  -8    1.73    0.48
   2   4  -8    2.67    0.64
   2   4  -8    2.55    0.45
   1  -4  -8    0.34    0.15
   1  -4  -8    0.34    0.09
  -1  -4   8    0.26    0.12
   1  -4  -8    0.48    0.30
  -1  -4   8    0.37    0.20
   1   4  -8    0.36    0.21
  -1   4   8    0.65    0.39
  -1   4   8    0.55    0.24
   1   4  -8    0.56    0.51
   0  -4  -8    2.61    0.21
   0  -4   8    2.97    0.31
   0  -4  -8    3.11    0.32
   0  -4  -8    2.18    0.27
   0  -4  -8    3.67    0.52
   0  -4   8    2.48    0.39
   0   4  -8    3.37    0.42
   0   4   8    2.31    0.47
   0   4   8    2.58    0.41
  -1  -4  -8    1.91    0.35
   1  -4   8    1.88    0.29
   1  -4   8    1.23    0.31
  -1  -4  -8    1.57    0.25
  -1  -4  -8    1.26    0.20
  -1   4  -8    1.29    0.29
   1   4   8    1.50    0.29
  -2  -4  -8    1.07    0.21
  -2  -4  -8    0.70    0.16
  -2  -4  -8    1.24    0.31
   2  -4   8    0.82    0.28
  -2  -4  -8    0.82    0.20
   2  -4   8    0.82    0.20
   2   4   8    0.78    0.23
  -2   4  -8    0.59    0.22
   2   4   8    0.31    0.32
  -3  -4  -8    0.49    0.14
   3  -4   8    0.48    0.26
  -3  -4  -8    0.56    0.25
  -3  -4  -8    0.47    0.20
  -3  -4  -8    0.66    0.29
   3  -4   8    0.43    0.12
  -3  -4  -8    0.41    0.18
   3  -4   8    0.55    0.20
  -3   4  -8    0.24    0.20
   3   4   8    0.13    0.33
  -3   4  -8    0.47    0.13
  -4  -4  -8    0.41    0.16
   4  -4   8    0.62    0.16
   4  -4   8    0.61    0.28
   4  -4   8    0.34    0.22
  -4  -4  -8    0.36    0.26
  -4  -4  -8    0.30    0.15
  -4  -4  -8    0.32    0.27
  -4   4  -8    0.29    0.21
   4   4   8    0.73    0.41
   5  -4   8   -0.01    0.25
   5  -4   8    1.01    0.21
  -5  -4  -8    0.20    0.36
   5  -4   8    0.90    0.29
  -5  -4  -8    0.46    0.11
  -5  -4  -8    0.27    0.18
  -5  -4  -8   -0.07    0.24
  -5   4  -8    0.55    0.22
   5   4   8    0.16    0.40
   6  -4   8   -0.09    0.27
   6  -4   8    0.51    0.22
  -6  -4  -8    0.44    0.27
   6  -4   8    0.32    0.34
   6   4   8   -0.58    0.44
  -6   4  -8   -0.10    0.22
   7  -4   8    1.85    0.40
  -7  -4  -8    1.74    0.41
   7  -4   8    2.44    0.40
   7   4   8    1.04    0.56
  -7   4  -8    1.72    0.36
   7   4   8    1.08    0.30
   6  -5  -8   -0.05    0.42
  -6  -5   8    0.48    0.12
   6  -5  -8    1.56    0.69
  -6  -5   8    0.27    0.48
  -6   5   8   -0.32    0.44
  -5  -5   8   -0.23    0.41
   5  -5  -8    0.47    0.38
   5  -5  -8    0.43    0.59
  -5  -5   8    0.07    0.21
  -5  -5   8   -0.04    0.14
  -5   5   8    0.22    0.40
  -4  -5   8    1.06    0.19
   4  -5  -8    1.29    0.39
  -4  -5   8    0.80    0.43
   4  -5  -8    1.16    0.61
  -4  -5   8    0.95    0.28
  -4   5   8    0.68    0.40
  -3  -5   8    2.50    0.31
   3  -5  -8    2.09    0.64
  -3  -5   8    2.10    0.35
   3  -5  -8    2.32    0.41
   3   5  -8    2.16    0.42
  -3   5   8    2.39    0.45
  -2  -5   8    4.44    0.54
   2  -5  -8    3.64    0.42
   2  -5  -8    3.81    0.69
   2  -5  -8    3.87    0.53
  -2  -5   8    3.21    0.37
  -2   5   8    4.79    0.67
   2   5  -8    4.29    0.61
   1  -5  -8    0.09    0.21
  -1  -5   8    0.47    0.27
   1  -5  -8    0.08    0.20
  -1  -5   8    0.06    0.18
   1  -5  -8    0.72    0.47
   1   5  -8    0.38    0.26
  -1   5   8    0.35    0.32
   0  -5  -8    3.71    0.43
   0  -5   8    3.05    0.54
   0  -5  -8    3.49    0.43
   0  -5   8    4.21    0.41
   0  -5  -8    3.09    0.62
   0   5  -8    2.79    0.55
   0   5   8    3.10    0.46
  -1  -5  -8   -0.37    0.49
  -1  -5  -8    0.61    0.25
  -1  -5  -8    0.83    0.20
   1  -5   8    0.89    0.23
   1  -5   8    0.97    0.33
   1   5   8    1.47    0.31
  -1   5  -8    1.00    0.30
  -2  -5  -8    0.44    0.25
   2  -5   8    0.46    0.24
   2  -5   8    0.78    0.35
  -2  -5  -8    0.56    0.20
  -2   5  -8    0.49    0.26
   2   5   8    0.77    0.51
  -3  -5  -8    0.38    0.20
   3  -5   8    0.34    0.38
  -3  -5  -8    0.81    0.28
   3  -5   8    0.31    0.28
   3   5   8    0.23    0.52
  -3   5  -8    0.37    0.29
   4  -5   8    2.76    0.41
  -4  -5  -8    3.64    0.63
  -4  -5  -8    3.40    0.41
   4  -5   8    2.18    0.46
  -4  -5  -8    2.28    0.39
   4   5   8    3.39    0.68
  -5  -5  -8   -0.12    0.18
   5  -5   8    0.47    0.42
   5  -5   8   -0.28    0.35
  -5  -5  -8   -0.53    0.32
   5   5   8    0.53    0.59
  -5   5  -8   -0.32    0.29
   2  -6  -8    0.38    0.38
  -2  -6   8    0.65    0.40
  -2   6   8    0.14    0.44
  -1  -6   8    0.28    0.28
   1  -6  -8    0.48    0.34
   1  -6  -8   -0.57    0.75
  -1  -6   8    0.14    0.41
  -1   6   8   -0.57    0.41
   1   6  -8    0.02    0.43
   0  -6   8   -0.05    0.43
   0  -6  -8    1.26    0.75
   0  -6  -8    0.69    0.31
   0  -6   8    0.14    0.33
   0   6   8    0.12    0.42
   0   6  -8    0.22    0.39
  -1  -6  -8    1.79    0.79
  -1  -6  -8    1.86    0.37
   1  -6   8    1.36    0.49
 -11   0   9    0.38    0.37
  11   0  -9    1.53    0.51
 -11   0   9   -0.06    0.34
  10   0  -9    1.57    0.44
 -10   0   9    2.65    0.48
 -10   0   9    2.82    0.52
   9   0  -9   -0.05    0.29
  -9   0   9    0.06    0.21
   8   0  -9   15.55    1.01
   8   0  -9   17.00    1.05
  -8   0   9   16.82    0.79
  -8   0   9   18.10    0.98
   8   0  -9   16.19    0.58
   8   0  -9   15.40    0.74
   7   0  -9    0.02    0.18
   7   0  -9   -0.13    0.20
  -7   0   9   -0.03    0.22
  -7   0   9   -0.01    0.14
   7   0  -9   -0.04    0.08
  -6   0   9    0.87    0.20
   6   0  -9    0.81    0.13
  -6   0   9    1.33    0.28
  -6   0   9    1.21    0.21
  -6   0   9    1.30    0.26
   6   0  -9    0.90    0.14
  -6   0   9    0.75    0.19
  -5   0   9    8.83    0.52
   5   0  -9    9.48    0.57
  -5   0   9    8.40    0.43
  -5   0   9    9.49    0.57
   5   0  -9    8.95    0.38
  -5   0   9    8.78    0.51
   5   0  -9    9.37    0.37
  -5   0   9    9.47    0.57
  -4   0   9   18.96    0.75
  -4   0   9   18.55    0.81
  -4   0   9   17.94    0.82
   4   0  -9   19.85    0.86
  -4   0   9   18.10    0.69
  -4   0   9   18.87    0.87
   4   0  -9   18.63    0.67
   4   0  -9   17.50    0.61
   3   0  -9    0.46    0.14
  -3   0   9    0.37    0.10
  -3   0   9    0.49    0.11
   3   0  -9    0.47    0.09
  -3   0   9    0.28    0.10
  -3   0   9    0.32    0.11
  -3   0   9    0.33    0.12
   2   0  -9    0.40    0.09
  -2   0   9    0.27    0.09
   2   0  -9    0.38    0.09
  -2   0   9    0.20    0.10
  -2   0   9    0.31    0.07
  -2   0   9    0.18    0.07
   2   0  -9    0.21    0.10
   2   0  -9    0.33    0.07
   1   0  -9   11.59    0.39
   1   0  -9   11.84    0.52
   1   0  -9   10.27    0.45
  -1   0   9   11.43    0.41
  -1   0   9   12.46    0.48
  -1   0   9    9.70    0.48
   1   0  -9   10.29    0.47
   0   0  -9   10.75    0.39
   0   0  -9   11.11    0.47
   0   0  -9   11.07    0.45
   0   0   9   11.18    0.48
   0   0  -9   10.75    0.50
   0   0   9   11.16    0.39
   0   0  -9   11.04    0.48
   0   0   9   11.12    0.47
   1   0   9   10.49    0.45
  -1   0  -9   10.37    0.42
   1   0   9    9.58    0.49
  -1   0  -9    9.71    0.47
  -1   0  -9   10.38    0.47
  -1   0  -9   10.48    0.39
  -1   0  -9   10.12    0.48
   1   0   9   10.49    0.36
   2   0   9   14.50    0.58
  -2   0  -9   12.95    0.60
   2   0   9   12.79    0.64
  -2   0  -9   12.91    0.50
  -2   0  -9   15.01    0.66
   2   0   9   14.08    0.44
  -2   0  -9   14.00    0.64
   2   0   9   14.60    0.57
  -3   0  -9    0.19    0.15
  -3   0  -9    0.15    0.07
  -3   0  -9    0.15    0.16
   3   0   9    0.15    0.04
   3   0   9    0.12    0.13
   3   0   9    0.18    0.09
  -4   0  -9    0.51    0.23
  -4   0  -9    0.14    0.19
   4   0   9    0.34    0.18
   4   0   9    0.41    0.11
   4   0   9    0.36    0.06
   4   0   9    0.52    0.12
   4   0   9    0.42    0.10
   5   0   9    5.24    0.51
   5   0   9    4.45    0.34
  -5   0  -9    4.14    0.55
  -5   0  -9    4.07    0.55
  -5   0  -9    5.38    0.35
   5   0   9    4.27    0.28
   6   0   9    1.77    0.27
  -6   0  -9    1.36    0.23
   6   0   9    1.59    0.20
   7   0   9    0.11    0.12
   7   0   9   -0.12    0.15
  -7   0  -9   -0.09    0.13
  -8   0  -9    0.18    0.18
   8   0   9    0.34    0.21
  -9   0  -9    0.55    0.26
   9   0   9    0.63    0.28
   9   0   9    0.94    0.23
  10   0   9    0.47    0.26
  10   0   9   -0.44    0.31
 -10   0  -9   -0.18    0.29
 -11  -1   9    2.29    0.38
  11  -1  -9    0.61    0.49
 -11  -1   9    1.52    0.43
 -11   1   9    1.94    0.46
 -11   1   9    1.68    0.37
  11   1  -9    2.06    0.50
  10  -1  -9    1.73    0.45
 -10  -1   9    1.04    0.26
 -10  -1   9    0.98    0.38
  10   1  -9    0.64    0.36
 -10   1   9    1.18    0.36
 -10   1   9    0.91    0.28
   9  -1  -9    1.69    0.42
  -9  -1   9    1.48    0.36
   9  -1  -9    2.70    0.52
  -9  -1   9    1.68    0.26
  -9   1   9    1.34    0.30
  -9   1   9    1.43    0.29
   9   1  -9    0.99    0.39
   8  -1  -9    1.42    0.38
  -8  -1   9    1.10    0.21
  -8  -1   9    0.82    0.30
   8  -1  -9    1.07    0.27
   8  -1  -9    0.94    0.31
   8  -1  -9    1.12    0.28
  -8   1   9    0.87    0.24
  -8   1   9    0.84    0.20
   7  -1  -9    0.35    0.24
   7  -1  -9    0.37    0.22
   7  -1  -9    0.02    0.24
  -7  -1   9    0.66    0.29
  -7  -1   9    0.40    0.30
   7  -1  -9    0.37    0.23
  -7  -1   9    0.08    0.21
   7   1  -9    0.34    0.20
  -7   1   9    0.36    0.16
  -7   1   9    0.32    0.19
  -6  -1   9    2.72    0.21
   6  -1  -9    2.48    0.41
   6  -1  -9    2.25    0.33
  -6  -1   9    2.39    0.40
  -6  -1   9    2.10    0.40
  -6  -1   9    2.32    0.38
   6  -1  -9    1.95    0.35
   6  -1  -9    2.32    0.35
  -6   1   9    2.24    0.36
  -6   1   9    2.26    0.26
   6   1  -9    2.09    0.25
   6   1  -9    1.94    0.22
  -6   1   9    2.17    0.29
  -5  -1   9   15.70    0.58
   5  -1  -9   14.50    0.56
   5  -1  -9   15.16    0.68
  -5  -1   9   16.00    0.86
  -5  -1   9   14.46    0.63
   5  -1  -9   15.82    0.82
  -5  -1   9   15.71    0.82
  -5  -1   9   15.06    0.70
   5   1  -9   14.89    0.64
  -5   1   9   15.06    0.72
  -5   1   9   14.87    0.82
  -5   1   9   15.14    0.70
   5   1  -9   15.66    0.75
  -5   1   9   15.55    0.71
   5   1  -9   15.42    0.58
   4  -1  -9    8.62    0.53
  -4  -1   9    8.75    0.52
   4  -1  -9    8.04    0.35
   4  -1  -9    7.95    0.45
  -4  -1   9    7.15    0.38
  -4  -1   9    8.44    0.56
  -4  -1   9    7.97    0.41
   4   1  -9    8.64    0.44
   4   1  -9    8.97    0.49
   4   1  -9    8.70    0.38
  -4   1   9    8.55    0.42
  -4   1   9    8.14    0.45
  -4   1   9    8.28    0.43
  -4   1   9    7.35    0.56
  -3  -1   9    0.42    0.09
   3  -1  -9    0.60    0.16
   3  -1  -9    0.75    0.16
  -3  -1   9    0.54    0.11
  -3  -1   9    0.60    0.09
  -3  -1   9    0.51    0.14
  -3  -1   9    0.53    0.14
   3  -1  -9    0.51    0.10
  -3   1   9    0.60    0.13
  -3   1   9    0.64    0.11
   3   1  -9    0.69    0.14
  -3   1   9    0.67    0.20
   3   1  -9    0.66    0.16
  -3   1   9    0.69    0.13
  -3   1   9    0.87    0.17
   3   1  -9    0.64    0.13
  -2  -1   9    9.29    0.34
   2  -1  -9    9.51    0.45
  -2  -1   9    9.50    0.36
  -2  -1   9    9.24    0.49
   2  -1  -9    9.30    0.35
   2  -1  -9    9.33    0.48
  -2  -1   9    9.60    0.39
  -2   1   9    8.85    0.42
  -2   1   9    8.94    0.34
  -2   1   9    9.65    0.56
   2   1  -9    8.83    0.40
  -2   1   9    8.94    0.44
  -2   1   9    8.83    0.37
   2   1  -9    9.01    0.49
   2   1  -9    8.46    0.51
   2   1  -9    9.52    0.43
   1  -1  -9   38.50    1.15
  -1  -1   9   38.40    1.15
  -1  -1   9   37.36    1.47
   1  -1  -9   40.39    1.35
   1  -1  -9   39.90    1.35
  -1  -1   9   37.72    1.30
  -1   1   9   40.02    1.31
   1   1  -9   38.69    1.44
   1   1  -9   37.40    1.24
   1   1  -9   37.42    1.52
   1   1  -9   40.05    1.28
  -1   1   9   38.73    1.27
   1   1  -9   37.54    1.24
  -1   1   9   39.16    1.49
   0  -1   9    8.80    0.32
   0  -1  -9    9.65    0.43
   0  -1  -9    9.47    0.42
   0  -1  -9    8.99    0.46
   0  -1   9    8.14    0.44
   0  -1  -9    8.45    0.38
   0  -1   9    9.50    0.39
   0  -1  -9    8.89    0.32
   0   1   9    9.21    0.41
   0   1  -9    9.79    0.36
   0   1  -9    9.55    0.39
   0   1  -9    8.41    0.41
   0   1   9    9.02    0.40
   0   1   9    9.00    0.51
   0   1  -9    8.72    0.48
   0   1  -9    9.83    0.55
   1  -1   9    5.54    0.34
  -1  -1  -9    5.21    0.28
  -1  -1  -9    6.66    0.33
  -1  -1  -9    6.84    0.34
  -1  -1  -9    6.04    0.23
   1  -1   9    6.00    0.24
   1  -1   9    7.25    0.31
  -1  -1  -9    7.50    0.41
  -1   1  -9    6.88    0.35
  -1   1  -9    5.14    0.36
   1   1   9    6.73    0.31
  -1   1  -9    6.64    0.48
  -1   1  -9    5.79    0.36
   1   1   9    6.35    0.40
  -1   1  -9    6.47    0.27
   1   1   9    5.68    0.34
  -2  -1  -9    2.14    0.12
   2  -1   9    2.37    0.18
  -2  -1  -9    1.76    0.28
  -2  -1  -9    1.79    0.19
   2  -1   9    2.05    0.24
  -2  -1  -9    2.25    0.18
  -2  -1  -9    1.88    0.15
   2  -1   9    1.98    0.12
   2  -1   9    1.91    0.16
  -2   1  -9    2.02    0.40
   2   1   9    1.79    0.23
   2   1   9    2.10    0.26
  -2   1  -9    2.12    0.26
   2   1   9    1.98    0.17
  -2   1  -9    2.22    0.22
  -3  -1  -9   29.20    1.20
   3  -1   9   30.25    1.08
  -3  -1  -9   28.06    1.08
   3  -1   9   30.45    1.06
   3  -1   9   29.49    0.90
   3  -1   9   29.27    1.25
   3  -1   9   29.90    1.07
  -3  -1  -9   30.23    1.16
  -3  -1  -9   27.57    0.88
   3   1   9   29.80    0.92
  -3   1  -9   31.45    1.23
   3   1   9   30.58    1.12
  -3   1  -9   29.64    1.18
  -3   1  -9   30.17    1.35
   3   1   9   32.78    1.23
   3   1   9   29.76    1.28
   4  -1   9    1.71    0.12
   4  -1   9    1.79    0.17
  -4  -1  -9    1.81    0.21
   4  -1   9    1.60    0.33
  -4  -1  -9    1.47    0.31
   4  -1   9    1.82    0.21
  -4  -1  -9    1.91    0.27
   4   1   9    1.19    0.28
  -4   1  -9    1.42    0.22
   4   1   9    2.07    0.24
  -4   1  -9    1.31    0.30
  -4   1  -9    1.69    0.41
   4   1   9    1.96    0.22
   5  -1   9    0.26    0.07
   5  -1   9    0.23    0.13
  -5  -1  -9    0.38    0.20
   5  -1   9    0.22    0.09
   5  -1   9    0.27    0.18
   5  -1   9    0.09    0.20
  -5   1  -9    0.57    0.27
   5   1   9    0.49    0.24
   5   1   9    0.27    0.14
   5   1   9    0.31    0.14
  -5   1  -9    0.38    0.13
  -6  -1  -9    0.22    0.13
   6  -1   9   -0.10    0.18
   6  -1   9    0.02    0.10
   6  -1   9    0.16    0.14
   6  -1   9   -0.08    0.06
   6   1   9    0.11    0.15
  -6   1  -9   -0.59    0.32
   6   1   9   -0.04    0.14
   6   1   9    0.46    0.32
  -6   1  -9    0.11    0.12
   7  -1   9    1.76    0.22
   7  -1   9    1.41    0.13
   7  -1   9    1.82    0.22
  -7  -1  -9    2.31    0.32
   7  -1   9    1.07    0.26
   7   1   9    2.37    0.32
   7   1   9    1.72    0.33
  -7   1  -9    1.57    0.31
   8  -1   9    0.79    0.18
  -8  -1  -9    0.88    0.22
   8  -1   9    0.77    0.28
   8   1   9    0.87    0.22
  -8   1  -9    0.91    0.21
   9  -1   9    0.28    0.17
  -9  -1  -9   -0.04    0.23
   9   1   9    0.39    0.26
  -9   1  -9    0.00    0.22
   9   1   9    0.11    0.24
 -10  -2   9    0.96    0.22
  10  -2  -9    0.50    0.50
  10  -2  -9    0.65    0.42
 -10  -2   9    1.79    0.46
  10   2  -9    0.46    0.36
 -10   2   9    0.72    0.23
 -10   2   9    1.09    0.39
  -9  -2   9    0.45    0.17
   9  -2  -9    0.68    0.41
   9  -2  -9    0.00    0.35
  -9  -2   9   -0.07    0.29
  -9   2   9    0.56    0.32
   9   2  -9    0.00    0.28
  -9   2   9    0.51    0.17
  -8  -2   9    0.38    0.13
   8  -2  -9    0.36    0.35
   8  -2  -9    0.10    0.39
  -8  -2   9    0.06    0.34
  -8  -2   9   -0.06    0.28
   8  -2  -9    0.91    0.37
   8  -2  -9   -0.43    0.30
  -8   2   9    0.18    0.25
  -8   2   9    0.40    0.17
   8   2  -9    0.44    0.22
   7  -2  -9    8.50    0.75
   7  -2  -9    8.82    0.75
   7  -2  -9    8.47    0.73
  -7  -2   9    7.94    0.66
  -7  -2   9    9.04    0.41
   7  -2  -9    9.32    0.68
  -7  -2   9    8.33    0.77
  -7   2   9    9.08    0.64
  -7   2   9    9.21    0.48
  -6  -2   9    0.28    0.20
  -6  -2   9    0.48    0.26
   6  -2  -9    0.19    0.30
   6  -2  -9    0.66    0.29
   6  -2  -9    0.19    0.20
  -6  -2   9    0.34    0.12
  -6   2   9    0.20    0.19
  -6   2   9    0.45    0.10
   6   2  -9    0.46    0.19
   6   2  -9    0.17    0.16
  -5  -2   9    0.24    0.07
   5  -2  -9    0.30    0.27
  -5  -2   9    0.20    0.07
  -5  -2   9    0.32    0.21
   5  -2  -9    0.20    0.15
   5  -2  -9    0.15    0.19
  -5  -2   9    0.31    0.16
  -5  -2   9    0.05    0.20
  -5   2   9   -0.01    0.16
  -5   2   9    0.25    0.07
  -5   2   9    0.35    0.19
   5   2  -9    0.45    0.24
   5   2  -9    0.27    0.21
   5   2  -9    0.28    0.14
  -4  -2   9   10.35    0.69
  -4  -2   9   10.69    0.42
   4  -2  -9   11.01    0.50
  -4  -2   9   10.64    0.47
   4  -2  -9   10.86    0.67
  -4  -2   9   10.61    0.66
  -4  -2   9   11.00    0.41
   4  -2  -9   10.48    0.66
  -4   2   9   11.40    0.63
   4   2  -9    9.94    0.56
   4   2  -9   10.96    0.50
  -4   2   9   10.48    0.56
  -4   2   9   11.19    0.42
  -3  -2   9   36.12    1.18
  -3  -2   9   34.13    1.46
   3  -2  -9   35.23    1.16
  -3  -2   9   34.82    1.11
  -3  -2   9   35.54    1.08
   3  -2  -9   34.90    1.40
   3  -2  -9   35.04    1.38
   3   2  -9   33.89    1.24
   3   2  -9   35.58    1.54
   3   2  -9   34.97    1.42
   3   2  -9   33.99    1.19
  -3   2   9   35.44    1.57
  -3   2   9   35.28    1.26
   2  -2  -9   16.42    0.79
   2  -2  -9   16.10    0.62
  -2  -2   9   16.08    0.80
  -2  -2   9   16.86    0.62
  -2   2   9   16.08    0.67
   2   2  -9   16.14    0.83
   2   2  -9   15.39    0.71
  -2   2   9   16.55    0.92
   2   2  -9   16.21    0.87
  -2   2   9   16.75    0.74
   1  -2  -9    1.06    0.18
  -1  -2   9    1.25    0.12
   1  -2  -9    0.80    0.21
   1  -2  -9    1.21    0.19
  -1  -2   9    1.14    0.14
  -1  -2   9    1.03    0.23
  -1   2   9    1.10    0.19
  -1   2   9    1.78    0.35
  -1   2   9    0.86    0.17
   1   2  -9    1.13    0.21
   1   2  -9    1.46    0.33
   1   2  -9    1.27    0.24
   0  -2   9   39.88    1.44
   0  -2   9   42.25    1.61
   0  -2  -9   38.21    1.46
   0  -2  -9   39.91    1.46
   0  -2  -9   40.57    1.49
   0  -2  -9   41.29    1.27
   0  -2   9   41.78    1.27
   0   2   9   40.28    1.39
   0   2  -9   42.84    1.45
   0   2  -9   43.66    1.68
   0   2  -9   38.92    1.69
  -1  -2  -9    0.90    0.17
  -1  -2  -9    1.35    0.18
  -1  -2  -9    1.03    0.10
  -1  -2  -9    1.15    0.16
  -1  -2  -9    0.94    0.19
   1  -2   9    1.05    0.18
   1  -2   9    1.20    0.14
  -1   2  -9    0.83    0.18
   1   2   9    1.24    0.26
   1   2   9    1.54    0.21
  -1   2  -9    1.19    0.33
  -1   2  -9    1.29    0.10
  -1   2  -9    1.10    0.24
   1   2   9    1.25    0.16
  -1   2  -9    1.08    0.18
  -2  -2  -9   27.67    1.12
   2  -2   9   27.74    0.93
   2  -2   9   29.00    1.09
  -2  -2  -9   27.47    0.85
  -2  -2  -9   27.15    1.06
  -2  -2  -9   28.84    1.04
   2  -2   9   27.27    1.11
   2  -2   9   27.55    1.16
   2  -2   9   29.11    0.93
  -2  -2  -9   28.23    1.04
  -2   2  -9   27.58    1.38
   2   2   9   26.00    1.13
   2   2   9   29.93    1.27
  -2   2  -9   27.67    1.02
  -2   2  -9   26.46    1.20
   2   2   9   28.93    0.97
  -3  -2  -9    4.75    0.30
  -3  -2  -9    4.30    0.31
   3  -2   9    5.23    0.35
  -3  -2  -9    4.36    0.18
   3  -2   9    4.69    0.40
   3  -2   9    4.94    0.28
  -3  -2  -9    5.04    0.31
   3  -2   9    5.15    0.27
   3  -2   9    4.95    0.48
  -3  -2  -9    4.78    0.49
  -3   2  -9    4.50    0.43
   3   2   9    4.95    0.47
  -3   2  -9    4.56    0.37
  -3   2  -9    4.30    0.64
   3   2   9    4.30    0.41
  -4  -2  -9   12.06    0.57
  -4  -2  -9   12.86    0.63
   4  -2   9   13.05    0.52
   4  -2   9   12.79    0.56
   4  -2   9   12.61    0.72
   4  -2   9   12.23    0.62
   4   2   9   12.52    0.74
  -4   2  -9   14.02    0.72
   4   2   9   13.40    0.79
  -4   2  -9   11.71    0.72
   4   2   9   12.55    0.64
   5  -2   9    1.72    0.26
   5  -2   9    1.47    0.21
   5  -2   9    1.77    0.34
   5  -2   9    1.62    0.29
  -5   2  -9    2.05    0.30
   5   2   9    1.97    0.36
  -5   2  -9    1.34    0.37
   5   2   9    1.83    0.38
   6  -2   9    3.30    0.28
   6  -2   9    3.71    0.34
  -6  -2  -9    3.22    0.37
   6  -2   9    4.21    0.39
   6  -2   9    3.30    0.43
   6   2   9    4.81    0.72
  -6   2  -9    3.74    0.40
  -6   2  -9    2.97    0.50
   6   2   9    3.37    0.35
   7  -2   9    1.67    0.25
  -7  -2  -9    1.04    0.26
  -7   2  -9    1.02    0.24
   7   2   9    0.82    0.23
   7   2   9    1.26    0.34
   8  -2   9    1.04    0.27
  -8  -2  -9    0.54    0.25
   8  -2   9    0.42    0.18
  -8   2  -9    0.36    0.23
   8   2   9    0.48    0.35
   8   2   9    0.35    0.23
  -9  -2  -9    1.18    0.34
   9  -2   9    0.92    0.22
   9   2   9    0.95    0.31
   9   2   9    0.70    0.40
  -9   2  -9    0.70    0.30
 -10  -3   9    0.12    0.44
 -10  -3   9    0.84    0.24
 -10   3   9    0.36    0.50
  10   3  -9    1.15    0.37
  -9  -3   9    2.05    0.29
   9  -3  -9    2.78    0.62
   9  -3  -9    4.26    0.82
  -9  -3   9    1.64    0.51
  -9   3   9    2.64    0.32
   9   3  -9    2.04    0.36
  -9   3   9    2.57    0.46
  -8  -3   9    0.91    0.16
  -8  -3   9    1.21    0.39
   8  -3  -9    1.36    0.39
   8  -3  -9    2.09    0.50
  -8   3   9    0.79    0.36
  -8   3   9    1.06    0.20
   8   3  -9    1.10    0.25
   7  -3  -9    1.40    0.40
  -7  -3   9    1.12    0.17
  -7  -3   9    0.64    0.33
   7  -3  -9    0.98    0.32
   7  -3  -9    0.48    0.42
  -7  -3   9    0.45    0.39
  -7   3   9    0.93    0.16
  -7   3   9    1.25    0.34
   7   3  -9    1.00    0.22
   6  -3  -9   11.89    0.94
  -6  -3   9    9.82    0.42
   6  -3  -9   10.56    0.65
  -6  -3   9    9.86    0.62
  -6  -3   9    9.92    0.86
  -6  -3   9    9.44    0.60
   6  -3  -9   11.09    0.79
  -6   3   9   10.96    0.75
  -6   3   9   10.47    0.49
   6   3  -9   10.64    0.52
  -5  -3   9    5.40    0.40
  -5  -3   9    4.48    0.60
  -5  -3   9    5.13    0.26
  -5  -3   9    4.93    0.23
   5  -3  -9    5.41    0.76
   5  -3  -9    5.29    0.56
   5  -3  -9    5.46    0.39
  -5   3   9    5.13    0.27
  -5   3   9    5.78    0.54
   5   3  -9    4.86    0.30
   4  -3  -9    0.90    0.25
   4  -3  -9    0.96    0.35
   4  -3  -9    0.78    0.16
  -4  -3   9    0.86    0.13
  -4  -3   9    1.11    0.17
   4   3  -9    0.82    0.36
  -3  -3   9    1.14    0.14
  -3  -3   9    1.56    0.17
   3  -3  -9    2.03    0.35
   3  -3  -9    1.05    0.25
   3   3  -9    1.20    0.40
  -3   3   9    1.84    0.33
   3   3  -9    1.34    0.29
  -3   3   9    1.31    0.37
  -2  -3   9   28.53    1.08
   2  -3  -9   28.20    1.17
  -2  -3   9   28.23    1.27
   2  -3  -9   27.99    1.06
  -2  -3   9   28.87    0.95
   2  -3  -9   28.51    1.34
   2   3  -9   26.11    1.38
   2   3  -9   27.66    1.33
  -2   3   9   27.35    1.42
  -2   3   9   29.37    1.19
  -1  -3   9    6.61    0.34
  -1  -3   9    5.90    0.47
   1  -3  -9    6.02    0.49
   1  -3  -9    6.69    0.59
   1  -3  -9    6.13    0.42
   1  -3  -9    5.94    0.44
   1   3  -9    5.98    0.57
   1   3  -9    6.55    0.51
   1   3  -9    6.47    0.78
  -1   3   9    5.66    0.62
   0  -3   9    0.17    0.15
   0  -3   9    0.24    0.30
   0  -3  -9    0.02    0.24
   0  -3  -9    0.14    0.17
   0  -3  -9    0.18    0.09
   0  -3  -9   -0.17    0.17
   0  -3   9    0.11    0.11
   0  -3   9    0.36    0.14
   0   3  -9    0.44    0.39
   0   3  -9    0.30    0.15
   0   3   9    0.13    0.17
   0   3   9   -0.07    0.24
   1  -3   9    0.89    0.15
   1  -3   9    0.87    0.20
  -1  -3  -9    0.88    0.20
   1  -3   9    0.32    0.30
  -1  -3  -9    1.26    0.17
  -1  -3  -9    0.72    0.17
   1   3   9    0.91    0.30
  -1   3  -9    1.01    0.48
   1   3   9    0.76    0.19
  -1   3  -9    0.96    0.23
   2  -3   9    3.82    0.38
  -2  -3  -9    4.29    0.28
  -2  -3  -9    4.28    0.33
   2  -3   9    5.19    0.66
   2  -3   9    4.41    0.31
  -2  -3  -9    3.59    0.33
   2   3   9    4.64    0.37
   2   3   9    4.50    0.56
  -2   3  -9    3.70    0.41
  -3  -3  -9    0.85    0.16
   3  -3   9    0.83    0.12
   3  -3   9    0.27    0.35
   3  -3   9    1.19    0.26
   3  -3   9    0.57    0.16
  -3  -3  -9    0.75    0.16
  -3  -3  -9    0.68    0.22
   3   3   9    1.26    0.35
   3   3   9    0.87    0.16
  -3   3  -9    0.90    0.19
  -3   3  -9    0.59    0.22
  -4  -3  -9    0.07    0.10
  -4  -3  -9    0.15    0.10
   4  -3   9   -0.10    0.18
  -4  -3  -9    0.20    0.14
   4  -3   9    0.14    0.12
   4  -3   9    0.25    0.37
   4  -3   9    0.14    0.15
   4   3   9    0.05    0.27
  -4   3  -9   -0.16    0.22
   4   3   9    0.23    0.22
  -4   3  -9   -0.03    0.15
  -5  -3  -9    3.59    0.39
   5  -3   9    4.22    0.69
   5  -3   9    3.18    0.41
   5  -3   9    3.28    0.36
   5  -3   9    3.09    0.35
   5   3   9    3.32    0.56
  -5   3  -9    3.11    0.57
   5   3   9    2.87    0.59
  -5   3  -9    3.45    0.41
   5   3   9    3.72    0.39
   6  -3   9    0.64    0.22
  -6  -3  -9    0.38    0.21
   6  -3   9    0.44    0.19
   6  -3   9    0.54    0.21
  -6   3  -9    0.44    0.39
   6   3   9    0.14    0.21
   6   3   9    0.39    0.37
  -6   3  -9    0.29    0.20
   7  -3   9   -0.23    0.24
   7  -3   9    0.06    0.25
  -7  -3  -9    0.21    0.26
   7  -3   9    0.19    0.23
   7   3   9    0.15    0.27
   7   3   9   -0.07    0.40
  -7   3  -9    0.22    0.22
   8  -3   9    0.25    0.30
   8  -3   9    0.34    0.26
  -8  -3  -9    0.08    0.31
   8   3   9    0.17    0.47
  -8   3  -9    0.14    0.24
  -8  -4   9    0.72    0.50
   8  -4  -9    0.61    0.49
   8  -4  -9    0.53    0.66
  -8  -4   9    0.82    0.16
  -8   4   9    0.42    0.51
   7  -4  -9    0.03    0.44
  -7  -4   9    1.05    0.16
  -7  -4   9    1.72    0.49
   7  -4  -9    0.77    0.56
  -7   4   9    1.30    0.52
   6  -4  -9    0.22    0.50
  -6  -4   9    0.56    0.11
  -6  -4   9    0.70    0.39
  -6  -4   9    0.43    0.09
   6  -4  -9    0.15    0.35
  -6   4   9    0.56    0.39
  -5  -4   9    3.12    0.59
  -5  -4   9    3.26    0.23
   5  -4  -9    3.90    0.76
   5  -4  -9    3.63    0.58
  -5  -4   9    2.72    0.24
  -5   4   9    3.35    0.25
  -5   4   9    2.26    0.45
   4  -4  -9    1.97    0.36
  -4  -4   9    1.45    0.19
  -4  -4   9    1.75    0.24
   4  -4  -9    2.28    0.28
   4  -4  -9    1.63    0.43
  -4  -4   9    1.53    0.37
   4   4  -9    1.76    0.57
  -4   4   9    1.45    0.35
   3  -4  -9   12.59    0.77
  -3  -4   9   11.46    0.51
  -3  -4   9   12.95    0.64
   3  -4  -9   10.99    1.02
  -3   4   9   12.84    0.81
   3   4  -9   11.40    0.84
   3   4  -9   10.58    1.10
  -2  -4   9    0.94    0.18
   2  -4  -9    1.06    0.23
  -2  -4   9    1.63    0.31
  -2   4   9    0.70    0.39
   2   4  -9    0.95    0.57
  -2   4   9    1.62    0.32
   2   4  -9    0.96    0.26
   1  -4  -9    2.27    0.34
  -1  -4   9    1.64    0.23
  -1  -4   9    1.80    0.34
   1   4  -9    1.42    0.29
  -1   4   9    1.39    0.41
  -1   4   9    2.64    0.44
   0  -4  -9    4.50    0.23
   0  -4   9    4.25    0.35
   0  -4  -9    4.73    0.39
   0  -4  -9    4.65    0.31
   0  -4  -9    3.81    0.53
   0   4   9    5.09    0.72
   0   4   9    4.39    0.49
   0   4  -9    4.86    0.50
  -1  -4  -9    6.02    0.38
  -1  -4  -9    6.88    0.37
   1  -4   9    6.69    0.45
   1  -4   9    7.46    0.56
  -1  -4  -9    6.31    0.57
  -1  -4  -9    6.14    0.45
  -1   4  -9    6.41    0.57
   1   4   9    6.75    0.74
   1   4   9    7.22    0.55
  -2  -4  -9    1.61    0.31
   2  -4   9    1.48    0.29
   2  -4   9    1.28    0.25
  -2  -4  -9    1.19    0.30
  -2  -4  -9    1.09    0.21
  -2  -4  -9    0.94    0.19
   2   4   9    1.05    0.27
  -2   4  -9    1.31    0.33
   2   4   9    0.69    0.36
  -3  -4  -9    0.43    0.19
  -3  -4  -9    0.56    0.24
   3  -4   9    0.93    0.29
   3  -4   9    0.55    0.20
  -3  -4  -9    0.76    0.27
  -3  -4  -9    0.63    0.16
  -3   4  -9    0.61    0.22
   3   4   9    0.41    0.39
   4  -4   9    0.52    0.30
  -4  -4  -9    0.38    0.28
  -4  -4  -9    0.69    0.18
  -4  -4  -9    0.96    0.26
   4  -4   9    0.69    0.14
  -4  -4  -9    0.26    0.18
   4  -4   9    0.53    0.23
   4   4   9    0.16    0.39
   5  -4   9    0.13    0.19
   5  -4   9    0.05    0.31
  -5  -4  -9   -0.08    0.18
   5  -4   9    0.21    0.24
  -5  -4  -9    0.02    0.24
  -5   4  -9   -0.09    0.24
   5   4   9   -0.30    0.44
   6  -4   9    0.61    0.32
   6  -4   9    0.19    0.28
  -6  -4  -9    0.30    0.28
  -6  -4  -9    0.90    0.26
   6   4   9   -0.68    0.48
  -6   4  -9    0.60    0.27
  -7  -4  -9    1.15    0.35
   7  -4   9    0.44    0.36
   7  -4   9    0.60    0.34
  -7  -4  -9    0.75    0.22
  -7   4  -9    0.73    0.33
   7   4   9    0.10    0.55
   6  -5  -9    3.54    0.65
  -6  -5   9    3.54    0.71
  -6  -5   9    3.21    0.29
   6  -5  -9    2.79    0.73
  -6   5   9    4.17    0.69
   5  -5  -9    0.37    0.43
  -5  -5   9    0.14    0.45
  -5  -5   9    0.02    0.13
   5  -5  -9   -0.30    0.63
  -5   5   9   -0.23    0.45
  -4  -5   9    1.10    0.27
   4  -5  -9    1.13    0.63
   4  -5  -9    0.75    0.38
  -4  -5   9    1.26    0.20
  -4  -5   9    0.70    0.45
  -4   5   9    1.87    0.49
   3  -5  -9    1.31    0.35
  -3  -5   9    1.12    0.20
   3  -5  -9    0.97    0.55
   3   5  -9    1.12    0.36
  -3   5   9    1.36    0.45
  -2  -5   9    1.74    0.30
   2  -5  -9    1.22    0.30
  -2  -5   9    1.68    0.33
   2  -5  -9    2.59    0.59
  -2   5   9    1.84    0.38
   2   5  -9    1.69    0.42
  -1  -5   9    0.57    0.28
   1  -5  -9    0.34    0.47
  -1  -5   9    0.31    0.18
   1  -5  -9    0.17    0.23
  -1   5   9    0.35    0.36
   1   5  -9    0.42    0.29
   0  -5   9    0.69    0.30
   0  -5  -9    0.59    0.22
   0  -5   9    0.61    0.21
   0  -5  -9   -0.34    0.47
   0   5  -9    0.19    0.33
   0   5   9    0.18    0.34
  -1  -5  -9    1.58    0.28
   1  -5   9    1.41    0.27
   1  -5   9    1.21    0.34
   1   5   9    0.80    0.35
   1   5   9    1.49    0.58
  -1   5  -9    1.51    0.34
  -2  -5  -9    0.25    0.20
   2  -5   9    0.03    0.24
   2  -5   9    0.53    0.32
   2   5   9    0.75    0.52
  -2   5  -9    0.29    0.27
  -3  -5  -9   -0.08    0.19
  -3  -5  -9   -0.07    0.25
   3  -5   9    0.25    0.26
   3  -5   9    0.52    0.38
   3   5   9   -0.26    0.57
  -3   5  -9   -0.02    0.30
   4  -5   9    1.95    0.36
   4  -5   9    1.99    0.45
  -4  -5  -9    2.32    0.41
  -4   5  -9    1.49    0.37
   4   5   9    3.13    0.71
  -5  -5  -9    0.35    0.23
   5  -5   9   -0.20    0.35
   5   5   9    0.44    0.65
  10   0 -10    3.88    0.58
 -10   0  10    4.53    0.54
 -10   0  10    3.72    0.60
   9   0 -10    1.22    0.35
  -9   0  10    0.59    0.26
  -9   0  10    0.83    0.25
  -8   0  10    1.40    0.30
  -8   0  10    1.28    0.27
   8   0 -10    1.70    0.17
  -8   0  10    1.40    0.41
   8   0 -10    1.65    0.34
   8   0 -10    1.77    0.34
   7   0 -10    3.62    0.50
  -7   0  10    2.71    0.53
  -7   0  10    2.89    0.47
   7   0 -10    2.35    0.36
  -7   0  10    2.70    0.31
  -6   0  10    0.09    0.15
  -6   0  10    0.25    0.21
  -6   0  10    0.68    0.21
   6   0 -10    0.26    0.21
  -6   0  10    0.32    0.20
  -6   0  10    0.53    0.14
   5   0 -10    1.09    0.15
  -5   0  10    1.02    0.21
  -5   0  10    1.04    0.22
   5   0 -10    1.26    0.16
  -5   0  10    1.51    0.27
  -5   0  10    1.40    0.20
   5   0 -10    1.01    0.21
  -5   0  10    1.45    0.25
  -4   0  10    3.40    0.29
   4   0 -10    2.82    0.21
   4   0 -10    2.75    0.19
  -4   0  10    3.01    0.24
   4   0 -10    3.15    0.33
  -4   0  10    3.41    0.33
  -4   0  10    2.35    0.25
  -4   0  10    2.40    0.29
  -3   0  10   43.50    1.35
  -3   0  10   42.03    1.42
  -3   0  10   41.69    1.65
  -3   0  10   40.46    1.58
   3   0 -10   44.43    1.42
  -3   0  10   40.59    1.55
   3   0 -10   43.33    1.54
   3   0 -10   42.34    1.27
   2   0 -10    1.15    0.17
  -2   0  10    1.52    0.15
   2   0 -10    1.39    0.20
   2   0 -10    1.28    0.13
  -2   0  10    1.42    0.20
  -2   0  10    1.25    0.15
  -2   0  10    1.51    0.16
   2   0 -10    1.53    0.16
   1   0 -10    0.42    0.12
   1   0 -10    0.24    0.07
   1   0 -10    0.23    0.09
   1   0 -10    0.35    0.09
  -1   0  10    0.40    0.10
  -1   0  10    0.27    0.08
   1   0 -10    0.37    0.09
   0   0 -10    8.58    0.42
   0   0  10    8.54    0.42
   0   0  10    8.31    0.33
   0   0 -10    8.13    0.34
   0   0 -10    8.94    0.43
   0   0 -10    7.64    0.40
   0   0  10    7.75    0.38
   0   0 -10    8.62    0.38
  -1   0 -10   11.65    0.57
  -1   0 -10   11.45    0.56
  -1   0 -10   12.85    0.47
   1   0  10   12.90    0.57
  -1   0 -10   11.77    0.49
   1   0  10   11.44    0.53
  -1   0 -10   14.42    0.58
   1   0  10   12.67    0.43
   2   0  10    0.81    0.17
  -2   0 -10    0.89    0.15
  -2   0 -10    0.98    0.20
   2   0  10    1.04    0.10
  -2   0 -10    1.28    0.18
   2   0  10    0.97    0.15
   2   0  10    0.86    0.16
  -2   0 -10    1.10    0.22
  -3   0 -10    0.07    0.17
   3   0  10    0.21    0.10
   3   0  10    0.12    0.05
  -3   0 -10    0.01    0.08
   3   0  10    0.10    0.08
  -3   0 -10   -0.05    0.16
  -3   0 -10    0.11    0.11
   3   0  10    0.06    0.14
  -4   0 -10    9.70    0.47
   4   0  10    8.34    0.60
   4   0  10    8.60    0.31
  -4   0 -10    8.17    0.63
  -4   0 -10    7.84    0.60
   4   0  10    8.33    0.42
   4   0  10    8.51    0.39
   5   0  10    3.56    0.26
   5   0  10    3.20    0.30
   5   0  10    2.95    0.49
  -5   0 -10    2.86    0.28
  -5   0 -10    3.35    0.58
   6   0  10    1.02    0.19
  -7   0 -10    1.86    0.31
   7   0  10    1.95    0.25
   7   0  10    1.70    0.29
  -8   0 -10    0.38    0.20
   8   0  10    0.27    0.18
   8   0  10   -0.07    0.21
  -9   0 -10    0.23    0.24
   9   0  10    0.12    0.25
   9   0  10    0.10    0.22
 -11  -1  10    2.56    0.43
 -11  -1  10    1.65    0.46
 -11   1  10    2.60    0.54
 -11   1  10    2.67    0.57
  11   1 -10    2.78    0.56
 -10  -1  10    2.00    0.45
  10  -1 -10    1.10    0.48
 -10  -1  10    1.25    0.31
 -10   1  10    1.66    0.37
 -10   1  10    1.50    0.33
   9  -1 -10    0.73    0.34
   9  -1 -10    0.28    0.33
  -9  -1  10    0.57    0.22
  -9  -1  10    0.97    0.34
   9   1 -10    0.47    0.32
  -9   1  10    0.77    0.31
  -9   1  10    0.26    0.21
   8  -1 -10    3.00    0.45
   8  -1 -10    4.22    0.61
  -8  -1  10    3.77    0.54
  -8  -1  10    3.53    0.33
   8  -1 -10    3.86    0.59
   8  -1 -10    3.54    0.40
  -8   1  10    3.24    0.38
   8   1 -10    3.57    0.51
  -8   1  10    3.29    0.47
  -7  -1  10    9.48    0.74
   7  -1 -10   10.90    0.73
   7  -1 -10    9.71    0.68
   7  -1 -10   10.16    0.55
  -7  -1  10    9.78    0.69
   7  -1 -10   11.35    0.78
  -7  -1  10    9.72    0.50
  -7  -1  10    8.46    0.75
   7   1 -10   10.65    0.53
  -7   1  10    9.40    0.60
   7   1 -10    9.50    0.70
   7   1 -10   10.55    0.49
  -7   1  10   10.76    0.63
  -6  -1  10   10.35    0.49
  -6  -1  10   10.65    0.74
  -6  -1  10   11.17    0.63
   6  -1 -10   11.02    0.74
  -6  -1  10   10.72    0.54
  -6  -1  10   10.01    0.70
   6  -1 -10   10.45    0.55
  -6   1  10   10.53    0.72
   6   1 -10   10.11    0.52
   6   1 -10   10.20    0.65
  -6   1  10    9.61    0.62
  -6   1  10   10.59    0.64
  -6   1  10   10.70    0.57
  -5  -1  10    6.46    0.51
  -5  -1  10    6.54    0.32
  -5  -1  10    6.09    0.37
   5  -1 -10    6.20    0.41
   5  -1 -10    6.50    0.54
  -5  -1  10    6.71    0.52
   5  -1 -10    5.86    0.30
  -5  -1  10    6.03    0.40
   5   1 -10    6.07    0.35
  -5   1  10    5.88    0.41
  -5   1  10    5.72    0.37
  -5   1  10    5.42    0.43
   5   1 -10    5.55    0.45
  -5   1  10    6.04    0.53
  -4  -1  10    7.34    0.53
  -4  -1  10    7.06    0.37
  -4  -1  10    6.17    0.36
   4  -1 -10    7.07    0.41
   4  -1 -10    7.16    0.57
  -4  -1  10    7.40    0.32
  -4  -1  10    7.40    0.49
   4  -1 -10    7.16    0.32
  -4   1  10    6.50    0.41
   4   1 -10    7.35    0.37
   4   1 -10    6.45    0.41
  -4   1  10    6.96    0.37
  -4   1  10    6.64    0.43
   4   1 -10    7.02    0.45
  -4   1  10    7.29    0.54
  -4   1  10    7.07    0.37
   3  -1 -10   57.27    1.72
   3  -1 -10   59.62    2.06
  -3  -1  10   56.97    2.19
  -3  -1  10   59.36    1.85
  -3  -1  10   59.63    1.95
   3  -1 -10   58.97    1.97
  -3  -1  10   57.20    2.26
  -3   1  10   58.78    2.19
   3   1 -10   60.64    1.79
   3   1 -10   54.57    2.01
  -3   1  10   57.01    1.87
  -3   1  10   57.45    2.08
   3   1 -10   60.20    1.97
  -3   1  10   57.09    2.05
  -3   1  10   56.72    1.92
  -2  -1  10   12.33    0.45
  -2  -1  10   12.65    0.43
  -2  -1  10   11.93    0.49
   2  -1 -10   11.99    0.53
   2  -1 -10   11.95    0.58
  -2  -1  10   12.83    0.60
   2  -1 -10   11.51    0.43
   2   1 -10   12.15    0.64
  -2   1  10   12.09    0.67
  -2   1  10   11.40    0.52
  -2   1  10   12.59    0.45
   2   1 -10   12.24    0.51
  -2   1  10   12.17    0.55
  -2   1  10   12.44    0.48
   2   1 -10   11.70    0.61
   2   1 -10   12.21    0.53
   1  -1 -10    4.02    0.29
  -1  -1  10    3.63    0.22
   1  -1 -10    3.59    0.26
   1  -1 -10    3.72    0.31
  -1  -1  10    4.38    0.30
  -1  -1  10    3.99    0.19
   1  -1 -10    3.70    0.19
   1   1 -10    3.76    0.24
  -1   1  10    3.99    0.20
   1   1 -10    3.61    0.35
   1   1 -10    4.11    0.24
  -1   1  10    3.76    0.35
  -1   1  10    3.65    0.27
   1   1 -10    4.82    0.33
  -1   1  10    4.03    0.19
   0  -1  10    0.68    0.13
   0  -1 -10    0.74    0.14
   0  -1 -10    0.55    0.12
   0  -1 -10    0.75    0.10
   0  -1  10    0.88    0.08
   0  -1  10    0.89    0.11
   0  -1 -10    0.75    0.12
   0   1  10    0.70    0.13
   0   1  10    0.77    0.14
   0   1 -10    0.65    0.14
   0   1 -10    0.36    0.20
   0   1 -10    0.61    0.15
   0   1 -10    0.70    0.12
   0   1 -10    0.66    0.11
   0   1  10    0.50    0.16
  -1  -1 -10    3.05    0.24
  -1  -1 -10    2.36    0.29
   1  -1  10    2.63    0.20
   1  -1  10    3.02    0.25
  -1  -1 -10    2.99    0.23
  -1  -1 -10    3.33    0.20
   1  -1  10    3.02    0.15
  -1   1 -10    3.11    0.27
   1   1  10    2.69    0.21
  -1   1 -10    2.46    0.25
  -1   1 -10    2.32    0.37
   1   1  10    3.13    0.24
  -1   1 -10    3.03    0.18
  -1   1 -10    3.26    0.30
   2  -1  10    3.75    0.25
  -2  -1 -10    4.02    0.38
  -2  -1 -10    4.50    0.19
  -2  -1 -10    4.11    0.28
   2  -1  10    4.46    0.34
   2  -1  10    3.80    0.25
   2  -1  10    4.60    0.19
  -2  -1 -10    4.00    0.29
  -2   1 -10    4.99    0.37
  -2   1 -10    4.03    0.36
   2   1  10    3.95    0.33
   2   1  10    4.34    0.25
  -2   1 -10    5.11    0.35
  -2   1 -10    3.60    0.47
  -3  -1 -10    0.04    0.07
  -3  -1 -10    0.10    0.20
   3  -1  10    0.02    0.14
   3  -1  10   -0.05    0.17
  -3  -1 -10    0.09    0.12
   3  -1  10    0.12    0.04
  -3  -1 -10    0.18    0.08
   3  -1  10    0.10    0.07
   3  -1  10   -0.06    0.08
  -3   1 -10    0.02    0.19
   3   1  10    0.17    0.12
   3   1  10   -0.11    0.14
  -3   1 -10    0.24    0.11
   3   1  10    0.12    0.10
   3   1  10    0.04    0.10
  -3   1 -10   -0.16    0.31
   4  -1  10    1.34    0.25
   4  -1  10    1.53    0.11
  -4  -1 -10    1.29    0.33
  -4  -1 -10    1.36    0.19
   4  -1  10    1.57    0.22
  -4  -1 -10    1.70    0.30
   4  -1  10    1.66    0.36
   4  -1  10    1.50    0.17
  -4   1 -10    1.95    0.25
  -4   1 -10    1.43    0.33
   4   1  10    1.88    0.25
   4   1  10    1.04    0.29
  -5  -1 -10    1.13    0.20
   5  -1  10    0.88    0.16
   5  -1  10    0.63    0.16
   5  -1  10    0.80    0.09
   5   1  10    0.40    0.15
  -5   1 -10    0.71    0.18
   5   1  10    0.81    0.27
  -5   1 -10    0.61    0.32
   5   1  10    0.92    0.19
   6  -1  10    0.57    0.17
   6  -1  10    0.48    0.07
   6  -1  10    0.56    0.22
  -6  -1 -10    0.35    0.15
   6  -1  10    0.52    0.14
  -6   1 -10    0.60    0.16
   6   1  10    0.64    0.19
   6   1  10    0.32    0.16
  -7  -1 -10    0.20    0.18
   7  -1  10    0.04    0.13
   7  -1  10    0.17    0.19
  -7   1 -10    0.55    0.20
   7   1  10    0.05    0.19
  -8  -1 -10    0.05    0.20
   8  -1  10   -0.02    0.24
   8  -1  10    0.16    0.16
   8   1  10   -0.10    0.22
  -8   1 -10    0.41    0.20
   9  -1  10    0.15    0.19
  -9  -1 -10   -0.03    0.25
   9  -1  10    0.09    0.29
  -9   1 -10    0.40    0.24
   9   1  10    0.42    0.32
   9   1  10   -0.03    0.29
  10  -2 -10    0.17    0.44
 -10  -2  10    0.30    0.21
 -10  -2  10   -0.18    0.39
  10   2 -10    0.10    0.37
 -10   2  10    0.44    0.41
 -10   2  10    0.31    0.22
  -9  -2  10    2.62    0.35
   9  -2 -10    2.35    0.52
  -9  -2  10    2.07    0.47
   9  -2 -10    2.62    0.50
  -9   2  10    2.91    0.35
  -9   2  10    2.48    0.47
   9   2 -10    3.34    0.53
  -8  -2  10    2.11    0.26
   8  -2 -10    1.92    0.46
  -8  -2  10    1.79    0.44
   8  -2 -10    1.59    0.41
   8  -2 -10    1.47    0.45
  -8  -2  10    1.49    0.36
   8  -2 -10    1.57    0.42
   8   2 -10    2.07    0.36
  -8   2  10    1.81    0.29
  -8   2  10    1.58    0.34
  -7  -2  10    2.03    0.36
  -7  -2  10    2.23    0.22
  -7  -2  10    2.62    0.57
   7  -2 -10    2.36    0.47
   7  -2 -10    2.03    0.44
   7  -2 -10    3.16    0.47
   7  -2 -10    2.52    0.45
  -7   2  10    2.42    0.24
  -7   2  10    1.75    0.31
  -6  -2  10    1.38    0.17
   6  -2 -10    1.74    0.38
  -6  -2  10    1.91    0.39
   6  -2 -10    1.16    0.36
   6  -2 -10    1.62    0.32
   6  -2 -10    2.61    0.49
  -6  -2  10    1.88    0.29
  -6   2  10    1.52    0.18
  -6   2  10    1.59    0.30
   6   2 -10    1.75    0.32
   6   2 -10    2.02    0.31
  -5  -2  10    2.48    0.19
  -5  -2  10    2.31    0.28
  -5  -2  10    1.91    0.33
   5  -2 -10    2.15    0.39
   5  -2 -10    3.00    0.43
  -5  -2  10    2.39    0.44
   5   2 -10    2.40    0.29
   5   2 -10    2.66    0.46
  -5   2  10    2.47    0.16
  -5   2  10    2.52    0.50
  -5   2  10    2.46    0.27
  -5   2  10    2.60    0.40
  -4  -2  10   12.70    0.48
  -4  -2  10   11.82    0.76
   4  -2 -10   11.85    0.53
   4  -2 -10   13.27    0.75
   4  -2 -10   12.25    0.72
  -4  -2  10   12.41    0.45
  -4  -2  10   11.97    0.72
  -4  -2  10   12.40    0.49
   4   2 -10   11.55    0.55
  -4   2  10   12.20    0.82
  -4   2  10   11.22    0.60
   4   2 -10   11.68    0.72
  -4   2  10   12.32    0.67
  -3  -2  10   10.96    0.41
   3  -2 -10   10.64    0.49
   3  -2 -10   10.67    0.64
  -3  -2  10   10.77    0.39
  -3  -2  10   11.76    0.66
  -3  -2  10   10.62    0.43
   3  -2 -10   10.62    0.63
  -3   2  10   10.23    0.53
   3   2 -10   11.13    0.72
  -3   2  10   10.42    0.60
  -3   2  10   10.63    0.75
   3   2 -10   10.43    0.59
   2  -2 -10   25.85    1.06
   2  -2 -10   25.18    0.87
  -2  -2  10   26.23    0.91
  -2  -2  10   25.05    1.11
  -2  -2  10   26.09    0.82
   2  -2 -10   24.98    1.05
  -2   2  10   26.59    1.03
   2   2 -10   24.57    1.18
   2   2 -10   24.04    0.99
  -2   2  10   26.75    1.27
   2   2 -10   25.58    1.19
  -2   2  10   25.30    0.97
  -1  -2  10    5.69    0.41
   1  -2 -10    6.03    0.32
   1  -2 -10    5.74    0.39
  -1  -2  10    6.16    0.28
  -1  -2  10    6.21    0.31
   1  -2 -10    5.49    0.43
   1  -2 -10    5.89    0.43
  -1   2  10    6.04    0.54
   1   2 -10    5.49    0.59
   1   2 -10    6.05    0.45
  -1   2  10    6.64    0.42
   1   2 -10    6.16    0.45
   0  -2 -10    2.70    0.24
   0  -2  10    3.33    0.32
   0  -2 -10    1.92    0.29
   0  -2 -10    2.47    0.31
   0  -2 -10    2.66    0.22
   0  -2  10    2.98    0.18
   0   2  10    2.22    0.37
   0   2 -10    2.14    0.40
   0   2  10    2.68    0.28
   0   2 -10    2.58    0.41
  -1  -2 -10    1.56    0.25
  -1  -2 -10    2.04    0.17
  -1  -2 -10    2.00    0.35
   1  -2  10    2.34    0.21
   1  -2  10    2.05    0.16
  -1  -2 -10    2.16    0.22
   1  -2  10    2.04    0.25
  -1  -2 -10    2.14    0.14
  -1   2 -10    2.40    0.15
  -1   2 -10    2.49    0.28
   1   2  10    2.48    0.27
  -1   2 -10    2.10    0.37
  -1   2 -10    2.16    0.23
   1   2  10    1.93    0.35
   1   2  10    2.25    0.20
  -1   2 -10    1.64    0.39
   2  -2  10   12.14    0.47
  -2  -2 -10   11.80    0.40
   2  -2  10   12.05    0.63
   2  -2  10   11.77    0.46
   2  -2  10   11.73    0.56
  -2  -2 -10   11.17    0.65
   2  -2  10   11.82    0.70
  -2  -2 -10   12.09    0.56
  -2  -2 -10   10.62    0.54
  -2  -2 -10   12.40    0.50
   2   2  10   12.48    0.62
  -2   2 -10   12.15    0.92
   2   2  10   12.21    0.54
   2   2  10   12.37    0.74
  -2   2 -10   12.84    0.68
  -2   2 -10   11.56    0.58
   3  -2  10    1.28    0.20
   3  -2  10    1.55    0.17
  -3  -2 -10    1.23    0.09
   3  -2  10    1.15    0.16
   3  -2  10    1.58    0.34
   3  -2  10    1.17    0.24
  -3  -2 -10    0.87    0.19
  -3  -2 -10    1.71    0.25
  -3  -2 -10    1.46    0.18
  -3   2 -10    1.57    0.26
   3   2  10    1.22    0.28
  -3   2 -10    1.27    0.27
   3   2  10    1.08    0.19
   3   2  10    1.32    0.26
   4  -2  10    1.35    0.22
  -4  -2 -10    1.16    0.20
   4  -2  10    1.25    0.31
   4  -2  10    1.10    0.17
   4  -2  10    1.44    0.20
  -4   2 -10    1.37    0.33
   4   2  10    1.12    0.29
   4   2  10    1.54    0.25
   4   2  10    1.36    0.31
   5  -2  10    2.08    0.28
  -5  -2 -10    2.00    0.29
   5  -2  10    2.62    0.28
   5  -2  10    2.38    0.22
   5  -2  10    2.14    0.38
   5   2  10    2.98    0.60
   5   2  10    2.06    0.36
  -5   2 -10    2.34    0.44
  -5   2 -10    2.44    0.33
   5   2  10    2.45    0.44
   6  -2  10    1.79    0.28
   6  -2  10    2.41    0.43
   6  -2  10    1.58    0.23
  -6  -2 -10    1.62    0.32
   6  -2  10    2.48    0.33
   6   2  10    2.48    0.43
  -6   2 -10    2.04    0.35
  -6   2 -10    1.67    0.48
   7  -2  10    0.76    0.25
   7  -2  10    0.93    0.20
   7  -2  10    0.82    0.15
  -7  -2 -10    0.71    0.23
  -7   2 -10    1.29    0.28
   7   2  10    1.04    0.34
  -8  -2 -10    0.25    0.23
   8  -2  10    0.12    0.17
   8  -2  10   -0.31    0.27
   8   2  10    0.47    0.39
   8   2  10   -0.10    0.23
  -9  -3  10   -0.05    0.16
   9  -3 -10    0.49    0.57
   9  -3 -10    0.02    0.50
  -9  -3  10   -0.68    0.42
   9   3 -10    0.31    0.29
  -9   3  10    0.05    0.42
  -8  -3  10    0.29    0.14
   8  -3 -10    0.57    0.40
   8  -3 -10   -0.13    0.47
  -8  -3  10    0.51    0.43
   8   3 -10    0.68    0.23
  -8   3  10    0.68    0.15
  -8   3  10    0.86    0.39
   7  -3 -10    1.28    0.48
  -7  -3  10    0.98    0.14
  -7  -3  10    0.73    0.40
   7  -3 -10    0.78    0.37
  -7   3  10    0.88    0.19
  -7   3  10    1.41    0.34
   7   3 -10    1.16    0.22
  -6  -3  10    3.70    0.63
  -6  -3  10    3.39    0.24
  -6  -3  10    3.48    0.44
  -6  -3  10    3.58    0.21
   6  -3 -10    4.25    0.72
   6  -3 -10    3.23    0.41
   6  -3 -10    3.22    0.60
   6   3 -10    3.42    0.32
  -6   3  10    3.49    0.24
   6   3 -10    3.11    0.54
  -6   3  10    4.32    0.54
   5  -3 -10    0.45    0.25
   5  -3 -10    0.17    0.12
  -5  -3  10    0.16    0.07
  -5  -3  10    0.23    0.27
  -5  -3  10    0.27    0.15
  -5  -3  10    0.11    0.08
   5   3 -10   -0.04    0.10
  -5   3  10    0.21    0.09
  -5   3  10    0.45    0.26
   5   3 -10    0.35    0.39
   4  -3 -10    1.24    0.28
  -4  -3  10    1.47    0.14
  -4  -3  10    1.40    0.35
  -4  -3  10    1.33    0.15
   4   3 -10    1.56    0.46
  -4   3  10    1.39    0.29
  -3  -3  10    6.55    0.33
   3  -3 -10    5.64    0.51
  -3  -3  10    6.58    0.30
   3   3 -10    5.72    0.60
  -3   3  10    6.92    0.56
   3   3 -10    5.31    0.76
   2  -3 -10   11.80    0.60
  -2  -3  10   11.70    0.54
  -2   3  10   11.36    0.96
  -2   3  10   11.70    0.69
   2   3 -10   11.43    0.74
   2   3 -10   11.21    0.95
   1  -3 -10    7.08    0.46
   1  -3 -10    6.54    0.48
  -1  -3  10    6.73    0.42
  -1  -3  10    7.18    0.35
   1   3 -10    7.22    0.56
  -1   3  10    6.86    0.78
   1   3 -10    7.08    0.87
  -1   3  10    7.66    0.53
   0  -3  10    4.88    0.30
   0  -3  10    5.23    0.37
   0  -3 -10    4.68    0.38
   0   3 -10    6.14    0.85
   0   3  10    4.82    0.46
   0   3 -10    5.58    0.47
  -1  -3 -10    2.24    0.29
  -1  -3 -10    2.34    0.15
   1  -3  10    2.31    0.45
   1  -3  10    3.09    0.31
  -1  -3 -10    2.21    0.28
  -1  -3 -10    2.19    0.17
   1  -3  10    1.96    0.22
   1   3  10    2.58    0.35
  -2  -3 -10    0.86    0.15
   2  -3  10    0.70    0.19
   2  -3  10    0.75    0.15
  -2  -3 -10    0.77    0.17
   2  -3  10    0.82    0.37
  -2  -3 -10    0.75    0.14
  -2  -3 -10    0.82    0.17
   2   3  10    0.50    0.18
   2   3  10    0.98    0.31
  -2   3 -10    0.73    0.21
  -3  -3 -10    2.05    0.24
   3  -3  10    1.73    0.18
   3  -3  10    2.02    0.27
  -3  -3 -10    2.03    0.24
   3  -3  10    2.53    0.31
  -3  -3 -10    2.09    0.28
  -3  -3 -10    2.52    0.40
   3  -3  10    1.92    0.46
   3   3  10    1.75    0.28
  -3   3 -10    1.59    0.31
  -3   3 -10    2.51    0.35
   3   3  10    1.78    0.39
  -4  -3 -10    1.91    0.13
   4  -3  10    1.88    0.27
   4  -3  10    1.84    0.32
  -4  -3 -10    1.22    0.20
  -4  -3 -10    1.67    0.29
   4  -3  10    1.34    0.22
   4   3  10    1.93    0.34
  -4   3 -10    1.49    0.31
  -4   3 -10    1.53    0.31
   4   3  10    1.94    0.44
  -5  -3 -10    0.38    0.15
   5  -3  10   -0.01    0.20
   5  -3  10    0.04    0.17
   5  -3  10    0.16    0.15
  -5  -3 -10    0.01    0.18
  -5   3 -10   -0.02    0.19
  -5   3 -10   -0.18    0.31
   5   3  10    0.16    0.32
   5   3  10   -0.41    0.35
   6  -3  10    2.22    0.37
   6  -3  10    2.04    0.30
  -6  -3 -10    1.91    0.31
   6  -3  10    2.03    0.28
   6   3  10    2.00    0.48
   6   3  10    1.94    0.37
  -6   3 -10    2.38    0.44
  -7  -3 -10    0.30    0.26
   7  -3  10    0.19    0.23
  -7   3 -10    0.05    0.24
   7   3  10   -0.27    0.27
   7   3  10   -0.30    0.43
   8  -3  10    0.72    0.34
   8  -3  10   -0.18    0.24
  -8  -3 -10    0.45    0.30
   8   3  10    0.08    0.50
  -8  -4  10    1.17    0.52
  -8  -4  10    0.58    0.16
   8  -4 -10    0.59    0.52
  -8   4  10    0.78    0.56
  -7  -4  10    0.83    0.45
   7  -4 -10    0.80    0.58
  -7  -4  10    0.60    0.14
  -7   4  10    1.01    0.47
  -6  -4  10    0.51    0.38
  -6  -4  10    0.26    0.11
   6  -4 -10   -0.35    0.51
   6  -4 -10    0.12    0.40
  -6   4  10    0.14    0.39
  -5  -4  10    1.21    0.44
   5  -4 -10    1.30    0.36
   5  -4 -10    1.38    0.51
  -5  -4  10    1.19    0.17
  -5  -4  10    1.39    0.17
  -5   4  10    1.03    0.40
  -4  -4  10    1.71    0.39
   4  -4 -10    1.96    0.38
  -4  -4  10    1.68    0.24
  -4  -4  10    1.67    0.20
   4  -4 -10    1.80    0.54
  -4   4  10    1.87    0.44
   4   4 -10    1.92    0.66
  -3  -4  10    0.50    0.16
  -3  -4  10    0.46    0.12
   3  -4 -10   -0.56    0.43
   3  -4 -10    0.31    0.19
  -3   4  10    0.22    0.30
   3   4 -10    0.15    0.27
   3   4 -10    0.35    0.59
  -2  -4  10    0.86    0.21
   2  -4 -10    1.17    0.25
  -2  -4  10    0.82    0.15
  -2   4  10    1.08    0.32
   2   4 -10    0.00    0.60
  -2   4  10    1.33    0.43
   2   4 -10    0.80    0.29
  -1  -4  10    3.46    0.30
   1  -4 -10    3.60    0.40
  -1   4  10    4.30    0.71
   1   4 -10    3.47    0.51
   0  -4  10   -0.12    0.13
   0  -4  10    0.12    0.19
   0  -4 -10    0.42    0.29
   0  -4 -10    0.08    0.16
   0   4  10    0.45    0.40
   0   4 -10    0.27    0.23
   0   4  10   -0.36    0.25
  -1  -4 -10    1.06    0.31
   1  -4  10    1.12    0.26
  -1  -4 -10    0.87    0.19
   1  -4  10    1.22    0.20
  -1  -4 -10    0.93    0.18
   1   4  10    0.81    0.40
  -1   4 -10    1.14    0.28
   1   4  10    1.47    0.29
  -2  -4 -10    2.05    0.25
   2  -4  10    2.06    0.41
   2  -4  10    2.01    0.28
  -2  -4 -10    1.80    0.32
  -2  -4 -10    2.02    0.33
   2   4  10    2.09    0.49
  -2   4 -10    1.47    0.32
  -3  -4 -10    0.23    0.16
  -3  -4 -10    0.40    0.17
   3  -4  10    0.60    0.28
   3  -4  10    0.51    0.20
   3   4  10    0.10    0.44
   3   4  10    0.51    0.22
  -3   4 -10    0.69    0.22
  -4  -4 -10    0.02    0.17
   4  -4  10    0.59    0.28
  -4  -4 -10    0.96    0.20
  -4  -4 -10    0.47    0.20
   4  -4  10    0.08    0.22
   4   4  10   -0.02    0.43
  -4   4 -10    0.29    0.23
  -5  -4 -10    0.18    0.23
  -5  -4 -10    0.07    0.20
   5  -4  10    0.45    0.25
   5  -4  10   -0.26    0.29
   5   4  10   -0.32    0.49
  -5   4 -10   -0.23    0.25
   6  -4  10    0.31    0.32
   6  -4  10    0.36    0.28
  -6  -4 -10    0.15    0.29
   6   4  10   -0.44    0.51
  -6   4 -10    0.25    0.28
  -5  -5  10    0.45    0.50
  -5  -5  10    0.49    0.13
   5  -5 -10   -0.92    0.67
   5  -5 -10    0.22    0.42
  -5   5  10    0.86    0.46
  -4  -5  10    0.51    0.21
   4  -5 -10   -0.39    0.38
  -4  -5  10    0.18    0.15
   4  -5 -10    0.64    0.61
  -4  -5  10    0.07    0.40
  -4   5  10    0.39    0.45
   3  -5 -10    0.67    0.32
  -3  -5  10    0.48    0.25
   3  -5 -10    0.38    0.57
  -3  -5  10    0.18    0.16
  -3   5  10   -0.02    0.41
   3   5 -10    0.32    0.37
  -2  -5  10   -0.18    0.16
   2  -5 -10   -0.07    0.28
  -2  -5  10    0.02    0.26
   2  -5 -10   -0.39    0.53
   2   5 -10    0.14    0.35
  -2   5  10    0.02    0.38
   1  -5 -10    3.06    0.51
  -1  -5  10    3.27    0.52
  -1  -5  10    3.73    0.34
  -1   5  10    3.43    0.52
   1   5 -10    3.49    0.62
   0  -5 -10    0.88    0.24
   0  -5  10    0.60    0.32
   0  -5 -10    0.95    0.62
   0  -5  10    0.74    0.21
   0   5  10    1.06    0.61
   0   5 -10    0.47    0.36
   1  -5  10    0.81    0.34
  -1  -5 -10    0.84    0.23
   1  -5  10    0.63    0.23
   1   5  10    0.99    0.60
   1   5  10    0.19    0.33
  -1   5 -10    1.09    0.34
  -2  -5 -10    0.50    0.22
   2  -5  10    0.67    0.37
   2  -5  10    0.37    0.26
   2   5  10    0.59    0.59
  -3  -5 -10    0.33    0.23
   3  -5  10    0.56    0.26
   3  -5  10    0.89    0.37
  -3   5 -10    0.72    0.32
   3   5  10    0.78    0.59
   4  -5  10    0.44    0.40
   4  -5  10    0.06    0.29
  -4  -5 -10    0.08    0.24
   4   5  10    0.85    0.65
 -10   0  11    4.54    0.58
 -10   0  11    3.78    0.62
  10   0 -11    2.67    0.51
  -9   0  11   -0.32    0.24
  -9   0  11    0.17    0.23
   9   0 -11    0.88    0.35
  -8   0  11    3.70    0.49
   8   0 -11    3.25    0.43
   8   0 -11    3.68    0.59
  -8   0  11    3.08    0.66
  -8   0  11    3.26    0.41
   7   0 -11    2.49    0.48
  -7   0  11    1.83    0.38
   7   0 -11    1.60    0.19
  -7   0  11    1.31    0.33
  -7   0  11    1.76    0.30
  -6   0  11   49.02    1.89
  -6   0  11   48.89    1.98
   6   0 -11   50.21    1.64
   6   0 -11   51.38    1.96
  -6   0  11   50.62    2.04
  -6   0  11   47.80    1.67
  -6   0  11   49.61    1.78
  -5   0  11    0.22    0.17
  -5   0  11   -0.07    0.13
  -5   0  11   -0.04    0.11
  -5   0  11   -0.14    0.13
  -5   0  11    0.09    0.17
   5   0 -11    0.11    0.09
   5   0 -11    0.06    0.19
   4   0 -11    0.13    0.08
  -4   0  11    0.36    0.11
  -4   0  11   -0.05    0.14
  -4   0  11    0.16    0.12
   4   0 -11    0.18    0.16
   4   0 -11    0.13    0.09
  -4   0  11    0.26    0.12
  -4   0  11    0.07    0.15
  -3   0  11    0.20    0.14
  -3   0  11    0.71    0.17
  -3   0  11    0.42    0.11
   3   0 -11    0.49    0.10
   3   0 -11    0.41    0.15
  -3   0  11    0.56    0.13
   3   0 -11    0.36    0.10
  -2   0  11    4.29    0.26
   2   0 -11    3.39    0.29
  -2   0  11    4.60    0.27
  -2   0  11    3.49    0.25
   2   0 -11    4.00    0.32
   2   0 -11    4.51    0.27
  -2   0  11    4.89    0.34
   2   0 -11    4.01    0.22
   1   0 -11   15.27    0.63
   1   0 -11   14.82    0.53
   1   0 -11   14.39    0.67
  -1   0  11   15.50    0.55
  -1   0  11   15.13    0.67
   1   0 -11   15.51    0.63
   1   0 -11   14.89    0.63
  -1   0  11   14.46    0.61
   0   0  11    1.49    0.14
   0   0 -11    1.32    0.17
   0   0 -11    1.61    0.17
   0   0  11    1.24    0.16
   0   0 -11    1.40    0.18
   0   0 -11    1.56    0.23
   0   0 -11    1.21    0.21
   1   0  11    0.08    0.09
  -1   0 -11    0.14    0.13
  -1   0 -11   -0.07    0.13
   1   0  11    0.07    0.09
  -1   0 -11    0.04    0.11
   1   0  11    0.04    0.06
  -1   0 -11    0.02    0.08
  -1   0 -11    0.16    0.07
  -2   0 -11    0.42    0.13
  -2   0 -11    0.32    0.11
  -2   0 -11    0.16    0.17
  -2   0 -11    0.23    0.17
   2   0  11    0.24    0.09
   2   0  11    0.34    0.15
  -2   0 -11    0.12    0.08
   2   0  11    0.35    0.07
  -3   0 -11    0.32    0.22
  -3   0 -11    0.63    0.24
   3   0  11    0.40    0.17
   3   0  11    0.64    0.11
   3   0  11    0.33    0.12
  -3   0 -11    0.61    0.15
   3   0  11    0.48    0.13
  -3   0 -11    0.53    0.13
  -4   0 -11    6.65    0.42
  -4   0 -11    6.38    0.62
   4   0  11    4.91    0.54
   4   0  11    5.82    0.36
   4   0  11    7.57    0.42
   5   0  11    0.78    0.29
  -5   0 -11    0.42    0.14
   5   0  11    0.63    0.15
   5   0  11    0.31    0.15
  -6   0 -11    1.59    0.29
   6   0  11    1.19    0.21
   6   0  11    0.95    0.21
  -7   0 -11    1.03    0.22
   7   0  11    1.70    0.29
   7   0  11    1.21    0.26
   8   0  11    0.52    0.22
   8   0  11    0.48    0.23
  -8   0 -11    0.41    0.22
  -9   0 -11   -0.13    0.25
   9   0  11    0.00    0.25
   9   0  11    0.00    0.27
  10  -1 -11    0.91    0.46
 -10  -1  11    1.17    0.43
 -10  -1  11    0.48    0.26
  10   1 -11    0.45    0.45
 -10   1  11    0.66    0.35
 -10   1  11    1.04    0.31
  -9  -1  11    0.61    0.22
   9  -1 -11    0.10    0.37
  -9  -1  11    0.95    0.35
   9  -1 -11    1.15    0.36
  -9   1  11    0.39    0.22
  -9   1  11    0.74    0.29
   8  -1 -11    0.39    0.23
  -8  -1  11    0.17    0.15
   8  -1 -11   -0.30    0.32
   8  -1 -11    0.20    0.34
  -8  -1  11   -0.18    0.23
  -8   1  11    0.18    0.33
  -8   1  11    0.12    0.16
  -8   1  11    0.24    0.23
   7  -1 -11    8.69    0.72
  -7  -1  11    9.62    0.51
  -7  -1  11    9.03    0.76
   7  -1 -11   10.81    0.79
  -7  -1  11   10.09    0.53
  -7  -1  11    9.88    0.68
   7  -1 -11   10.02    0.54
   7   1 -11    9.58    0.54
  -7   1  11    9.28    0.59
  -7   1  11    9.78    0.63
   7   1 -11   10.22    0.71
  -7   1  11   10.41    0.73
   6  -1 -11    7.44    0.46
  -6  -1  11    6.99    0.47
  -6  -1  11    8.21    0.67
  -6  -1  11    7.71    0.64
  -6  -1  11    7.43    0.51
   6  -1 -11    8.00    0.65
  -6  -1  11    8.14    0.41
  -6   1  11    7.79    0.53
   6   1 -11    8.04    0.59
  -6   1  11    8.14    0.65
  -6   1  11    7.37    0.53
  -6   1  11    7.84    0.48
   5  -1 -11   19.90    0.81
  -5  -1  11   19.50    1.03
   5  -1 -11   20.59    1.01
  -5  -1  11   18.47    0.95
  -5  -1  11   20.20    0.73
  -5  -1  11   19.86    0.83
  -5  -1  11   19.41    0.80
   5   1 -11   21.04    0.92
  -5   1  11   18.65    0.84
  -5   1  11   19.29    0.85
  -5   1  11   19.37    0.86
   5   1 -11   19.06    0.83
  -5   1  11   20.18    1.04
  -5   1  11   18.18    0.84
  -4  -1  11    7.35    0.33
  -4  -1  11    6.60    0.36
  -4  -1  11    6.52    0.53
   4  -1 -11    7.40    0.54
  -4  -1  11    7.01    0.49
   4  -1 -11    6.71    0.40
  -4  -1  11    6.68    0.39
   4  -1 -11    6.69    0.32
  -4   1  11    7.15    0.36
  -4   1  11    6.44    0.36
   4   1 -11    7.44    0.39
  -4   1  11    6.80    0.42
  -4   1  11    6.95    0.57
   4   1 -11    6.52    0.44
  -4   1  11    6.59    0.44
   4   1 -11    6.90    0.46
  -3  -1  11   22.22    0.73
   3  -1 -11   20.87    0.71
   3  -1 -11   22.00    0.85
   3  -1 -11   22.54    0.98
  -3  -1  11   20.56    0.95
  -3  -1  11   22.89    0.84
  -3  -1  11   21.18    1.01
  -3  -1  11   22.62    0.77
  -3   1  11   20.55    0.85
  -3   1  11   19.88    0.79
  -3   1  11   22.79    1.06
   3   1 -11   22.20    0.80
   3   1 -11   21.46    0.92
  -3   1  11   21.40    0.84
  -3   1  11   19.90    0.83
   3   1 -11   22.55    0.89
   2  -1 -11   11.20    0.43
   2  -1 -11   11.74    0.53
   2  -1 -11   12.29    0.60
  -2  -1  11   10.86    0.58
  -2  -1  11   12.30    0.51
   2   1 -11   11.65    0.63
  -2   1  11   11.76    0.53
   2   1 -11   11.04    0.63
  -2   1  11   11.51    0.44
   2   1 -11   13.32    0.56
   2   1 -11   12.74    0.50
  -2   1  11   11.02    0.48
  -2   1  11   13.42    0.74
   2   1 -11   12.48    0.54
  -2   1  11   11.11    0.55
   1  -1 -11   12.35    0.43
  -1  -1  11   11.74    0.50
   1  -1 -11   11.92    0.60
  -1  -1  11   12.59    0.43
  -1  -1  11   11.97    0.58
   1  -1 -11   11.31    0.53
   1  -1 -11   11.80    0.57
   1   1 -11   11.54    0.50
   1   1 -11   12.47    0.63
  -1   1  11   11.43    0.53
  -1   1  11   11.63    0.47
  -1   1  11   11.17    0.68
   1   1 -11   12.54    0.55
   1   1 -11   11.12    0.64
   1   1 -11   12.48    0.50
   0  -1  11   19.34    0.81
   0  -1 -11   18.86    0.60
   0  -1 -11   19.14    0.75
   0  -1  11   19.01    0.61
   0  -1 -11   19.38    0.81
   0  -1 -11   18.85    0.75
   0   1  11   18.09    0.71
   0   1 -11   16.77    0.90
   0   1 -11   19.83    0.73
   0   1 -11   19.45    0.68
   0   1 -11   18.88    0.75
   0   1  11   17.97    0.75
   0   1 -11   20.34    0.88
   0   1  11   17.33    0.87
   1  -1  11   26.37    0.98
   1  -1  11   26.88    1.09
  -1  -1 -11   27.49    0.82
  -1  -1 -11   28.01    1.03
  -1  -1 -11   28.59    1.00
   1  -1  11   27.82    0.83
  -1  -1 -11   26.80    0.99
  -1  -1 -11   26.46    1.06
  -1   1 -11   26.49    0.99
  -1   1 -11   28.10    0.92
   1   1  11   26.60    1.13
   1   1  11   25.54    0.92
  -1   1 -11   24.88    1.20
   1   1  11   25.37    1.07
  -1   1 -11   24.99    1.00
  -1   1 -11   28.59    1.15
  -2  -1 -11   17.53    0.71
   2  -1  11   16.66    0.68
  -2  -1 -11   17.38    0.56
   2  -1  11   17.20    0.80
  -2  -1 -11   16.61    0.71
  -2  -1 -11   17.83    0.70
   2  -1  11   16.95    0.54
  -2  -1 -11   16.68    0.80
   2   1  11   16.54    0.63
   2   1  11   17.88    0.82
  -2   1 -11   16.87    0.74
  -2   1 -11   18.27    0.64
   2   1  11   14.99    0.78
  -2   1 -11   17.84    0.80
  -2   1 -11   16.95    0.77
  -2   1 -11   15.26    0.94
  -3  -1 -11    0.18    0.23
  -3  -1 -11    0.37    0.09
   3  -1  11    0.51    0.08
   3  -1  11    0.27    0.18
  -3  -1 -11    0.36    0.10
   3  -1  11    0.24    0.22
   3  -1  11    0.31    0.11
  -3  -1 -11    0.35    0.10
   3  -1  11    0.18    0.09
   3   1  11    0.33    0.16
  -3   1 -11    0.30    0.13
   3   1  11    0.10    0.18
  -3   1 -11    0.48    0.23
   4  -1  11    3.77    0.43
   4  -1  11    4.39    0.18
   4  -1  11    4.28    0.32
   4  -1  11    3.76    0.47
  -4  -1 -11    4.52    0.30
   4  -1  11    3.60    0.28
   4   1  11    3.13    0.51
  -4   1 -11    4.59    0.38
   4   1  11    3.85    0.37
  -4   1 -11    5.26    0.60
   5  -1  11    3.86    0.17
   5  -1  11    3.53    0.42
   5  -1  11    3.27    0.28
   5  -1  11    3.57    0.33
  -5  -1 -11    4.00    0.32
   5   1  11    4.54    0.58
   5   1  11    4.30    0.38
  -5   1 -11    3.08    0.50
  -6  -1 -11    1.51    0.29
   6  -1  11    1.55    0.22
   6  -1  11    2.30    0.32
   6  -1  11    2.04    0.11
  -6   1 -11    1.66    0.32
   6   1  11    1.74    0.27
  -7  -1 -11    0.53    0.21
   7  -1  11    1.34    0.25
   7  -1  11    0.84    0.24
  -7   1 -11    0.79    0.23
   7   1  11    1.09    0.26
   8  -1  11    0.89    0.26
   8  -1  11    0.86    0.20
   8   1  11    1.00    0.32
   8   1  11    0.33    0.24
  10  -2 -11    2.47    0.63
 -10  -2  11    1.53    0.49
 -10   2  11    3.07    0.52
  10   2 -11    2.20    0.50
   9  -2 -11    1.52    0.48
  -9  -2  11    0.82    0.41
   9  -2 -11    1.43    0.46
  -9  -2  11    1.42    0.27
  -9   2  11    1.15    0.22
   9   2 -11    1.39    0.36
  -9   2  11    1.26    0.44
   8  -2 -11    1.35    0.40
  -8  -2  11    2.49    0.28
   8  -2 -11    1.56    0.45
  -8  -2  11    1.53    0.43
  -8  -2  11    1.80    0.45
   8   2 -11    1.94    0.33
  -8   2  11    1.78    0.36
  -8   2  11    2.15    0.28
   7  -2 -11    0.11    0.23
  -7  -2  11    0.19    0.31
  -7  -2  11    0.33    0.12
  -7  -2  11    0.16    0.26
   7  -2 -11    0.36    0.33
   7  -2 -11    0.48    0.38
   7  -2 -11    0.56    0.37
  -7   2  11    0.46    0.12
  -7   2  11   -0.12    0.26
  -6  -2  11    8.95    0.45
   6  -2 -11    9.57    0.70
  -6  -2  11    9.58    0.55
  -6  -2  11    8.81    0.41
   6  -2 -11   10.26    0.78
   6  -2 -11    7.97    0.81
  -6   2  11    9.09    0.42
  -6   2  11    9.76    0.56
   6   2 -11    9.38    0.66
  -6   2  11    8.84    0.64
   6   2 -11    9.09    0.57
  -5  -2  11   14.91    0.94
  -5  -2  11   15.33    0.56
  -5  -2  11   14.98    0.64
   5  -2 -11   16.51    0.93
  -5  -2  11   14.63    0.61
   5  -2 -11   14.28    0.83
  -5   2  11   15.91    0.83
   5   2 -11   14.94    0.72
  -5   2  11   15.91    1.00
  -5   2  11   14.97    0.63
   5   2 -11   15.17    0.85
  -4  -2  11    2.73    0.43
   4  -2 -11    3.75    0.45
   4  -2 -11    3.16    0.43
  -4  -2  11    3.33    0.23
  -4  -2  11    3.62    0.22
  -4  -2  11    2.72    0.44
   4   2 -11    3.93    0.30
  -4   2  11    3.81    0.40
   4   2 -11    2.88    0.52
  -4   2  11    3.00    0.52
  -3  -2  11    3.52    0.38
  -3  -2  11    3.08    0.20
   3  -2 -11    2.66    0.37
  -3  -2  11    3.31    0.19
  -3  -2  11    3.10    0.17
   3  -2 -11    2.89    0.26
   3  -2 -11    2.78    0.40
   3   2 -11    2.52    0.37
  -3   2  11    2.50    0.50
  -3   2  11    3.37    0.33
   3   2 -11    2.56    0.43
  -3   2  11    3.12    0.37
  -2  -2  11    9.99    0.61
  -2  -2  11   10.88    0.40
  -2  -2  11   10.95    0.45
   2  -2 -11   11.01    0.61
   2  -2 -11   10.63    0.59
   2  -2 -11   10.69    0.46
   2   2 -11   10.21    0.64
  -2   2  11   10.62    0.59
  -2   2  11   11.25    0.77
  -2   2  11   10.57    0.54
   2   2 -11   10.89    0.78
   2   2 -11    9.25    0.58
  -1  -2  11   22.93    0.74
   1  -2 -11   23.50    0.96
   1  -2 -11   22.32    0.77
   1  -2 -11   22.71    0.95
   1  -2 -11   22.40    0.97
  -1  -2  11   22.16    1.01
  -1   2  11   23.38    0.93
   1   2 -11   22.74    1.18
  -1   2  11   23.43    1.17
   1   2 -11   20.91    0.95
   1   2 -11   22.86    1.08
   0  -2  11    4.85    0.28
   0  -2 -11    4.52    0.33
   0  -2 -11    3.53    0.39
   0  -2 -11    4.27    0.35
   0  -2 -11    4.27    0.24
   0  -2  11    4.20    0.22
   0  -2  11    4.07    0.36
   0   2  11    5.12    0.37
   0   2 -11    3.07    0.47
   0   2 -11    3.74    0.39
   0   2  11    4.93    0.50
   0   2 -11    3.85    0.62
   1  -2  11    9.97    0.56
  -1  -2 -11   10.46    0.51
  -1  -2 -11    9.61    0.60
  -1  -2 -11    9.91    0.40
  -1  -2 -11   10.18    0.37
   1  -2  11    9.73    0.46
  -1   2 -11    9.17    0.61
   1   2  11    9.18    0.44
  -1   2 -11    8.94    0.46
   1   2  11   10.36    0.52
  -1   2 -11   11.05    0.61
  -1   2 -11    7.56    0.80
   1   2  11   10.21    0.68
   2  -2  11    4.89    0.32
  -2  -2 -11    5.35    0.27
  -2  -2 -11    5.01    0.34
   2  -2  11    4.88    0.40
  -2  -2 -11    4.33    0.23
   2  -2  11    4.53    0.52
  -2   2 -11    5.08    0.24
  -2   2 -11    5.31    0.41
   2   2  11    5.91    0.36
  -2   2 -11    4.90    0.41
   2   2  11    5.19    0.51
   2   2  11    4.70    0.39
   3  -2  11    1.99    0.18
  -3  -2 -11    2.08    0.12
   3  -2  11    2.30    0.23
  -3  -2 -11    2.02    0.19
  -3  -2 -11    1.42    0.26
   3  -2  11    2.25    0.38
   3   2  11    2.17    0.38
  -3   2 -11    2.10    0.32
  -3   2 -11    2.33    0.43
   3   2  11    1.69    0.24
   3   2  11    2.32    0.39
   4  -2  11    2.15    0.24
   4  -2  11    2.35    0.25
  -4  -2 -11    3.04    0.27
   4  -2  11    2.52    0.21
   4  -2  11    2.24    0.38
  -4  -2 -11    3.29    0.28
  -4   2 -11    3.39    0.37
   4   2  11    2.25    0.38
  -4   2 -11    2.52    0.39
   4   2  11    2.94    0.52
   5  -2  11    0.06    0.10
   5  -2  11    0.07    0.34
   5  -2  11    0.27    0.14
   5  -2  11   -0.09    0.13
   5   2  11   -0.08    0.18
  -5   2 -11   -0.03    0.35
   5   2  11    0.04    0.28
  -5   2 -11    0.45    0.19
   5   2  11   -0.06    0.32
   6  -2  11    1.10    0.15
  -6  -2 -11    0.92    0.21
   6  -2  11    1.13    0.20
   6  -2  11    1.14    0.21
   6   2  11    1.02    0.36
  -6   2 -11    0.92    0.23
   6   2  11    0.65    0.27
  -6   2 -11    0.36    0.48
  -7  -2 -11    0.58    0.23
   7  -2  11    0.40    0.22
   7  -2  11    0.90    0.20
   7   2  11    0.57    0.37
  -7   2 -11    0.80    0.26
   8  -2  11   -0.09    0.19
   8  -2  11   -0.02    0.28
  -8  -2 -11   -0.02    0.25
   8   2  11   -0.06    0.41
   9  -3 -11    1.16    0.62
  -9  -3  11    0.23    0.46
  -9  -3  11    0.07    0.17
  -9   3  11    0.19    0.46
   8  -3 -11    0.00    0.52
  -8  -3  11    0.24    0.39
   8  -3 -11    0.52    0.44
  -8  -3  11    0.13    0.13
  -8   3  11    0.36    0.38
   8   3 -11    0.24    0.24
  -7  -3  11    1.92    0.48
   7  -3 -11    0.28    0.41
   7  -3 -11    1.42    0.51
  -7  -3  11    1.24    0.20
  -7   3  11    1.78    0.40
   7   3 -11    1.16    0.22
  -6  -3  11    0.14    0.09
   6  -3 -11    0.05    0.31
  -6  -3  11    0.00    0.31
  -6  -3  11    0.13    0.10
   6  -3 -11    0.63    0.41
   6   3 -11   -0.19    0.14
  -6   3  11    0.05    0.08
  -6   3  11    0.01    0.27
   5  -3 -11   -0.21    0.36
  -5  -3  11    0.42    0.13
   5  -3 -11    0.10    0.27
  -5  -3  11    0.33    0.09
  -5  -3  11    0.13    0.29
  -5  -3  11    0.21    0.08
   5   3 -11    0.11    0.10
   5   3 -11    0.28    0.43
  -5   3  11    0.78    0.26
   4  -3 -11    3.42    0.49
  -4  -3  11    2.67    0.20
  -4  -3  11    3.55    0.56
  -4  -3  11    3.14    0.21
  -4   3  11    4.30    0.48
   4   3 -11    3.36    0.61
  -4   3  11    2.73    0.52
  -3  -3  11    3.89    0.23
   3  -3 -11    2.60    0.43
  -3  -3  11    4.13    0.24
  -3   3  11    3.66    0.61
   3   3 -11    4.02    0.80
   3   3 -11    3.06    0.47
  -2  -3  11    5.36    0.32
   2  -3 -11    4.55    0.41
  -2  -3  11    4.57    0.26
   2  -3 -11    5.17    0.45
  -2   3  11    6.17    0.51
  -2   3  11    4.68    0.65
   2   3 -11    5.70    0.87
   1  -3 -11    3.81    0.37
  -1  -3  11    3.56    0.25
   1  -3 -11    4.06    0.37
  -1  -3  11    3.83    0.30
  -1   3  11    3.46    0.59
   1   3 -11    4.47    0.86
  -1   3  11    3.74    0.46
   0  -3 -11   11.73    0.61
   0  -3 -11   11.09    0.54
   0  -3  11   11.04    0.56
   0   3  11   10.92    0.87
   0   3 -11   11.36    0.75
   1  -3  11    0.38    0.12
   1  -3  11    0.59    0.16
  -1  -3 -11    0.56    0.18
  -1  -3 -11    0.30    0.12
  -1   3 -11    0.46    0.19
   1   3  11    0.34    0.20
   1   3  11    0.48    0.29
   2  -3  11    2.15    0.22
  -2  -3 -11    2.30    0.29
  -2  -3 -11    1.37    0.18
   2  -3  11    2.06    0.29
  -2  -3 -11    1.37    0.26
  -2  -3 -11    1.59    0.16
   2   3  11    1.66    0.27
  -3  -3 -11    1.23    0.20
  -3  -3 -11    1.82    0.22
   3  -3  11    1.82    0.18
  -3  -3 -11    1.99    0.40
   3  -3  11    1.90    0.30
   3  -3  11    1.67    0.24
  -3  -3 -11    1.80    0.19
  -3   3 -11    1.40    0.27
   3   3  11    1.83    0.45
   3   3  11    1.56    0.22
  -3   3 -11    1.75    0.25
   4  -3  11    0.25    0.17
   4  -3  11    0.01    0.14
  -4  -3 -11    0.08    0.14
   4  -3  11   -0.14    0.11
  -4  -3 -11    0.01    0.15
   4   3  11   -0.23    0.35
   4   3  11    0.13    0.26
  -4   3 -11    0.03    0.19
  -5  -3 -11    1.24    0.24
   5  -3  11    0.89    0.23
  -5  -3 -11    0.65    0.19
   5  -3  11    0.79    0.17
   5   3  11    0.33    0.38
  -5   3 -11    0.46    0.24
   6  -3  11    0.86    0.24
   6  -3  11    0.82    0.22
   6   3  11    1.08    0.29
   6   3  11    1.73    0.47
  -6   3 -11    0.98    0.27
   7  -3  11    0.28    0.25
   7  -3  11    0.08    0.24
  -7  -3 -11    0.22    0.27
   7   3  11    0.12    0.49
   7   3  11    0.30    0.32
  -7   3 -11    0.24    0.30
   7  -4 -11   -0.20    0.45
   7  -4 -11    0.18    0.63
  -7  -4  11    0.51    0.48
  -7  -4  11    0.60    0.14
  -7   4  11    1.25    0.48
   6  -4 -11    0.54    0.42
  -6  -4  11    1.21    0.46
   6  -4 -11    1.19    0.60
  -6  -4  11    0.82    0.14
  -6   4  11    1.42    0.45
  -5  -4  11    0.79    0.41
  -5  -4  11    0.87    0.16
   5  -4 -11    1.34    0.54
   5  -4 -11    1.82    0.46
  -5  -4  11    0.97    0.15
  -5   4  11    1.19    0.42
  -4  -4  11    0.43    0.11
  -4  -4  11    0.27    0.33
   4  -4 -11    0.18    0.30
   4  -4 -11   -0.81    0.46
  -4  -4  11    0.14    0.11
  -4   4  11    0.48    0.37
  -3  -4  11    0.41    0.12
  -3  -4  11    0.44    0.16
   3  -4 -11    0.29    0.25
   3   4 -11    0.12    0.65
   3   4 -11    0.68    0.30
  -3   4  11    1.21    0.53
  -3   4  11    0.56    0.32
  -2  -4  11    1.30    0.21
   2  -4 -11    2.19    0.42
  -2  -4  11    1.67    0.30
  -2   4  11    1.52    0.33
   2   4 -11    1.57    0.34
  -2   4  11    1.40    0.52
   1  -4 -11    8.17    0.59
  -1  -4  11    7.77    0.43
  -1  -4  11    8.82    0.54
   1   4 -11    8.98    0.70
  -1   4  11    8.64    0.90
  -1   4  11    8.75    0.69
   0  -4  11    0.12    0.20
   0  -4 -11    0.24    0.19
   0  -4  11    0.08    0.14
   0   4  11    0.52    0.42
   0   4  11    0.19    0.27
   0   4 -11    0.32    0.25
   1  -4  11    1.65    0.28
   1  -4  11    2.14    0.37
  -1  -4 -11    2.12    0.34
  -1  -4 -11    2.42    0.34
   1   4  11    2.46    0.53
   1   4  11    2.85    0.49
   2  -4  11    0.29    0.17
   2  -4  11   -0.01    0.23
  -2  -4 -11    0.19    0.25
  -2  -4 -11    0.30    0.12
  -2  -4 -11    0.19    0.16
  -2   4 -11    0.24    0.24
   2   4  11    0.02    0.42
   3  -4  11    0.78    0.27
   3  -4  11    0.89    0.22
  -3  -4 -11    1.06    0.22
  -3  -4 -11    0.90    0.18
   3   4  11    0.74    0.46
   3   4  11    0.85    0.25
  -3   4 -11    1.20    0.28
   4  -4  11    0.22    0.26
  -4  -4 -11    0.18    0.19
  -4  -4 -11    0.00    0.20
   4   4  11   -0.89    0.50
   5  -4  11    0.63    0.30
   5  -4  11    0.21    0.24
  -5  -4 -11    0.02    0.21
  -5   4 -11    0.31    0.30
  -5  -5  11    1.37    0.21
   5  -5 -11    1.20    0.80
   5  -5 -11    2.42    0.59
  -5   5  11    1.30    0.52
  -4  -5  11    1.20    0.54
  -4  -5  11    1.34    0.20
   4  -5 -11    1.12    0.73
   4  -5 -11    1.26    0.43
  -4  -5  11    2.11    0.34
  -4   5  11    2.18    0.53
  -3  -5  11    0.10    0.23
  -3  -5  11   -0.09    0.16
   3  -5 -11    0.63    0.34
   3  -5 -11   -0.29    0.60
   3   5 -11   -0.13    0.39
  -3   5  11    0.20    0.44
   2  -5 -11    0.11    0.31
   2  -5 -11   -0.14    0.62
  -2  -5  11    0.22    0.25
  -2  -5  11    0.43    0.17
  -2   5  11    0.42    0.38
   2   5 -11    0.21    0.38
   1  -5 -11   -0.48    0.55
   1  -5 -11    0.50    0.26
  -1  -5  11    0.26    0.19
  -1  -5  11    0.13    0.28
   1   5 -11    0.79    0.37
  -1   5  11    0.34    0.38
   0  -5 -11    0.76    0.25
   0  -5  11    0.48    0.30
   0  -5  11    0.36    0.19
   0   5  11    0.11    0.65
   0   5 -11   -0.06    0.35
   0   5  11    0.33    0.39
  -1  -5 -11    0.88    0.26
   1  -5  11    0.71    0.33
   1  -5  11    0.62    0.24
   1   5  11    0.82    0.68
   1   5  11    0.37    0.36
  -1   5 -11    0.74    0.33
  -2  -5 -11    0.25    0.24
   2  -5  11    0.55    0.36
   2   5  11    0.80    0.36
   2   5  11    1.29    0.63
  -2   5 -11    0.87    0.36
   3  -5  11   -0.21    0.27
   3  -5  11    0.31    0.38
  -3  -5 -11    0.19    0.23
  -3   5 -11    0.20    0.41
   3   5  11    1.06    0.67
 -10   0  12    0.73    0.34
 -10   0  12    0.07    0.33
  -9   0  12    0.02    0.26
  -9   0  12   -0.24    0.25
   9   0 -12   -0.58    0.35
   8   0 -12    1.01    0.30
  -8   0  12    0.83    0.29
   8   0 -12    1.33    0.38
  -8   0  12    0.59    0.41
  -8   0  12    1.08    0.25
  -7   0  12    4.77    0.52
  -7   0  12    5.32    0.58
  -7   0  12    5.00    0.42
   7   0 -12    4.66    0.30
  -7   0  12    5.90    0.53
  -6   0  12    9.53    0.59
  -6   0  12    9.90    0.64
   6   0 -12    9.77    0.71
  -6   0  12    8.71    0.65
  -6   0  12   10.51    0.66
   6   0 -12    9.75    0.44
  -6   0  12   10.21    0.54
  -5   0  12    3.99    0.43
  -5   0  12    4.16    0.42
   5   0 -12    4.12    0.48
  -5   0  12    3.90    0.36
  -5   0  12    4.56    0.40
   5   0 -12    3.92    0.27
  -4   0  12    9.52    0.46
  -4   0  12    9.03    0.46
  -4   0  12    9.65    0.58
  -4   0  12    8.04    0.56
   4   0 -12    9.23    0.42
   4   0 -12    9.07    0.59
   4   0 -12    8.05    0.38
  -4   0  12    8.88    0.50
  -3   0  12    0.49    0.18
   3   0 -12    0.47    0.11
   3   0 -12    0.51    0.12
  -3   0  12    0.66    0.13
  -3   0  12    0.66    0.17
   3   0 -12    0.47    0.17
  -3   0  12    0.73    0.14
  -3   0  12    0.81    0.14
  -2   0  12    0.07    0.10
   2   0 -12    0.34    0.10
   2   0 -12    0.29    0.13
   2   0 -12    0.11    0.14
   2   0 -12    0.32    0.12
   1   0 -12   17.06    0.76
  -1   0  12   19.72    0.78
  -1   0  12   19.80    0.69
  -1   0  12   18.59    0.82
   1   0 -12   20.63    0.79
   1   0 -12   18.99    0.67
   1   0 -12   19.94    0.84
   1   0 -12   18.27    0.78
   0   0 -12    1.78    0.20
   0   0  12    1.70    0.19
   0   0 -12    1.82    0.21
   0   0  12    1.71    0.17
   0   0 -12    1.40    0.20
   0   0  12    1.19    0.21
   0   0 -12    1.37    0.26
  -1   0 -12    1.88    0.23
  -1   0 -12    1.49    0.25
  -1   0 -12    1.33    0.20
  -1   0 -12    1.63    0.29
   1   0  12    1.53    0.16
   1   0  12    1.79    0.21
  -1   0 -12    1.65    0.18
   1   0  12    1.57    0.23
  -2   0 -12    5.98    0.37
   2   0  12    6.31    0.38
  -2   0 -12    5.85    0.49
  -2   0 -12    6.37    0.39
   2   0  12    5.93    0.28
  -2   0 -12    6.06    0.34
   2   0  12    6.21    0.46
   3   0  12    4.41    0.36
  -3   0 -12    5.72    0.37
   3   0  12    4.77    0.46
   3   0  12    4.66    0.24
  -3   0 -12    4.16    0.51
  -4   0 -12    5.49    0.64
   4   0  12    4.85    0.23
   4   0  12    5.12    0.36
   4   0  12    3.96    0.55
   4   0  12    5.59    0.42
   4   0  12    5.56    0.36
  -4   0 -12    4.78    0.38
   5   0  12    0.81    0.17
  -5   0 -12    0.60    0.18
   6   0  12   -0.23    0.18
   6   0  12    0.00    0.15
  -6   0 -12    0.30    0.17
  -7   0 -12    0.34    0.19
   7   0  12    0.05    0.20
   7   0  12   -0.01    0.19
  -8   0 -12    1.37    0.29
   8   0  12    0.69    0.28
   8   0  12    1.04    0.28
  10  -1 -12   -0.24    0.48
 -10  -1  12    0.46    0.43
 -10  -1  12    0.30    0.28
 -10   1  12    0.81    0.35
 -10   1  12    0.47    0.29
   9  -1 -12    2.46    0.49
  -9  -1  12    2.47    0.43
  -9   1  12    1.75    0.31
  -9   1  12    1.53    0.36
   8  -1 -12    2.54    0.48
  -8  -1  12    1.31    0.35
  -8   1  12    1.80    0.29
  -8   1  12    2.23    0.36
   8   1 -12    1.81    0.41
   7  -1 -12    0.92    0.22
  -7  -1  12    1.18    0.25
   7  -1 -12    1.40    0.32
  -7  -1  12    1.03    0.29
  -7  -1  12    1.09    0.19
  -7  -1  12    0.71    0.31
   7   1 -12    1.25    0.29
  -7   1  12    0.73    0.20
  -7   1  12    0.48    0.27
  -7   1  12    0.97    0.25
   6  -1 -12    1.44    0.24
  -6  -1  12    1.62    0.32
   6  -1 -12    0.79    0.31
  -6  -1  12    1.21    0.26
  -6  -1  12    1.65    0.24
  -6  -1  12    1.37    0.30
  -6  -1  12    1.50    0.35
   6   1 -12    1.18    0.27
  -6   1  12    1.10    0.24
  -6   1  12    1.33    0.25
  -6   1  12    1.18    0.26
  -5  -1  12    4.16    0.34
  -5  -1  12    4.05    0.37
   5  -1 -12    4.71    0.36
  -5  -1  12    4.64    0.47
   5  -1 -12    4.49    0.53
  -5  -1  12    4.99    0.30
   5   1 -12    4.16    0.42
  -5   1  12    4.49    0.43
  -5   1  12    3.99    0.38
  -5   1  12    4.83    0.34
  -5   1  12    3.86    0.59
   5   1 -12    4.99    0.46
  -4  -1  12    0.28    0.11
  -4  -1  12    0.33    0.14
   4  -1 -12    0.22    0.15
   4  -1 -12    0.30    0.18
  -4  -1  12    0.22    0.08
  -4  -1  12    0.03    0.18
  -4  -1  12    0.30    0.19
  -4   1  12    0.12    0.13
   4   1 -12    0.30    0.17
  -4   1  12    0.35    0.16
  -4   1  12    0.32    0.10
   4   1 -12    0.26    0.19
  -4   1  12    0.36    0.24
   3  -1 -12   11.96    0.65
  -3  -1  12   11.34    0.68
  -3  -1  12   11.33    0.61
   3  -1 -12   10.88    0.44
  -3  -1  12   11.59    0.53
  -3  -1  12   11.15    0.46
   3  -1 -12   11.27    0.53
  -3  -1  12   12.09    0.45
   3   1 -12   11.24    0.53
  -3   1  12   11.36    0.71
  -3   1  12   11.35    0.54
  -3   1  12   10.74    0.57
   3   1 -12   11.30    0.59
  -3   1  12   11.04    0.44
   3   1 -12   10.76    0.62
  -3   1  12   10.13    0.48
  -2  -1  12    2.21    0.22
  -2  -1  12    2.37    0.17
   2  -1 -12    2.62    0.31
   2  -1 -12    2.34    0.26
  -2  -1  12    2.36    0.27
   2  -1 -12    2.13    0.18
   2   1 -12    2.47    0.23
  -2   1  12    2.69    0.38
  -2   1  12    2.32    0.14
   2   1 -12    2.66    0.28
   2   1 -12    2.16    0.38
   2   1 -12    2.52    0.30
   2   1 -12    2.38    0.29
  -2   1  12    1.82    0.26
   1  -1 -12    0.55    0.15
   1  -1 -12    0.85    0.12
   1  -1 -12    0.93    0.20
  -1  -1  12    1.01    0.12
  -1  -1  12    0.79    0.15
  -1  -1  12    1.12    0.21
  -1   1  12    0.97    0.13
   1   1 -12    1.09    0.20
   1   1 -12    0.67    0.23
  -1   1  12    1.30    0.20
  -1   1  12    0.99    0.25
   1   1 -12    1.33    0.26
   1   1 -12    0.96    0.15
   0  -1  12    4.94    0.23
   0  -1  12    4.61    0.33
   0  -1 -12    5.27    0.35
   0  -1  12    5.07    0.29
   0  -1 -12    4.74    0.23
   0  -1 -12    5.40    0.34
   0  -1 -12    5.22    0.42
   0   1  12    4.76    0.33
   0   1 -12    5.17    0.29
   0   1 -12    4.64    0.37
   0   1  12    4.62    0.30
   0   1  12    5.02    0.43
   0   1 -12    4.30    0.37
   0   1 -12    4.45    0.51
   0   1 -12    5.14    0.35
  -1  -1 -12    1.53    0.18
  -1  -1 -12    1.80    0.21
  -1  -1 -12    1.41    0.25
   1  -1  12    1.66    0.13
   1  -1  12    1.97    0.25
  -1  -1 -12    1.80    0.16
   1  -1  12    1.54    0.18
   1   1  12    2.02    0.31
   1   1  12    1.73    0.23
  -1   1 -12    1.65    0.17
  -1   1 -12    1.22    0.25
  -1   1 -12    2.26    0.34
  -1   1 -12    1.51    0.23
  -1   1 -12    1.21    0.34
  -2  -1 -12    4.78    0.26
   2  -1  12    4.44    0.39
  -2  -1 -12    4.73    0.30
   2  -1  12    5.18    0.22
   2  -1  12    5.19    0.31
  -2  -1 -12    4.93    0.33
  -2  -1 -12    5.10    0.49
  -2   1 -12    4.94    0.27
  -2   1 -12    5.31    0.46
   2   1  12    4.29    0.40
  -2   1 -12    5.20    0.45
   2   1  12    5.11    0.43
   2   1  12    4.21    0.30
   3  -1  12    0.50    0.25
  -3  -1 -12    0.57    0.13
   3  -1  12    0.91    0.15
  -3  -1 -12    0.71    0.16
  -3  -1 -12    0.77    0.14
   3  -1  12    0.44    0.20
  -3  -1 -12    0.94    0.34
   3  -1  12    0.65    0.15
   3  -1  12    0.84    0.10
   3   1  12    0.65    0.21
   3   1  12    0.77    0.14
  -3   1 -12    0.72    0.18
  -3   1 -12    0.67    0.27
   3   1  12    0.36    0.22
   4  -1  12    4.20    0.19
   4  -1  12    3.82    0.29
   4  -1  12    4.10    0.48
  -4  -1 -12    4.55    0.31
  -4   1 -12    4.92    0.66
   4   1  12    4.17    0.40
  -4   1 -12    4.92    0.41
   5  -1  12    0.28    0.16
   5  -1  12    0.68    0.10
   5  -1  12    0.64    0.27
   5  -1  12    0.68    0.14
  -5   1 -12    0.38    0.42
   5   1  12    0.36    0.20
   5   1  12    1.08    0.34
  -5   1 -12    0.33    0.17
   5   1  12    0.88    0.22
   6  -1  12    0.41    0.20
  -6  -1 -12    0.54    0.18
   6  -1  12    0.86    0.18
   6   1  12    0.88    0.23
  -6   1 -12    0.63    0.22
   7  -1  12    0.51    0.24
   7  -1  12    0.68    0.19
  -7  -1 -12    0.60    0.22
  -7   1 -12    0.40    0.25
   7   1  12    0.63    0.28
  -8  -1 -12    1.14    0.28
   8  -1  12    0.66    0.24
   8  -1  12    1.20    0.28
   8   1  12    0.27    0.27
  -8   1 -12    0.59    0.28
   8   1  12    0.91    0.37
  -9  -2  12    0.20    0.22
  -9  -2  12   -0.53    0.37
   9  -2 -12    0.68    0.49
   9  -2 -12   -0.02    0.50
  -9   2  12    0.41    0.37
   9   2 -12    0.16    0.35
   8  -2 -12    0.98    0.41
  -8  -2  12    1.11    0.21
  -8  -2  12    1.49    0.43
  -8   2  12    1.44    0.26
  -8   2  12    1.37    0.39
   8   2 -12    0.81    0.30
   7  -2 -12    0.91    0.41
   7  -2 -12    0.96    0.37
  -7  -2  12    0.55    0.26
  -7  -2  12    0.64    0.16
  -7  -2  12    1.01    0.37
  -7   2  12    0.78    0.14
  -7   2  12    0.70    0.30
  -6  -2  12    5.76    0.45
   6  -2 -12    6.88    0.69
  -6  -2  12    5.92    0.33
  -6  -2  12    6.15    0.68
  -6  -2  12    5.14    0.38
  -6   2  12    6.52    0.30
   6   2 -12    5.13    0.49
  -6   2  12    6.16    0.77
  -6   2  12    6.22    0.58
   6   2 -12    6.81    0.67
  -6   2  12    6.60    0.41
  -5  -2  12    2.76    0.25
   5  -2 -12    3.02    0.52
  -5  -2  12    2.55    0.27
  -5  -2  12    2.87    0.50
  -5  -2  12    2.49    0.20
  -5   2  12    3.15    0.54
   5   2 -12    2.83    0.57
   5   2 -12    2.34    0.35
  -5   2  12    2.52    0.43
   4  -2 -12    1.25    0.27
  -4  -2  12    1.76    0.19
  -4  -2  12    1.26    0.32
  -4  -2  12    2.40    0.44
  -4  -2  12    1.72    0.16
  -4  -2  12    1.36    0.17
   4   2 -12    2.07    0.42
  -4   2  12    1.04    0.32
  -4   2  12    1.92    0.35
   3  -2 -12    2.22    0.25
   3  -2 -12    2.42    0.36
  -3  -2  12    2.51    0.19
  -3  -2  12    2.37    0.38
  -3   2  12    2.23    0.41
   3   2 -12    2.54    0.20
   3   2 -12    2.05    0.44
  -3   2  12    2.17    0.36
   3   2 -12    1.69    0.36
  -2  -2  12   16.37    0.82
  -2  -2  12   16.30    0.57
   2  -2 -12   16.36    0.79
   2  -2 -12   15.44    0.60
  -2  -2  12   15.34    0.65
  -2   2  12   16.52    1.00
   2   2 -12   17.74    0.90
   2   2 -12   15.16    0.99
  -2   2  12   16.97    0.80
   1  -2 -12    8.38    0.38
   1  -2 -12    9.10    0.52
  -1  -2  12    8.28    0.53
  -1  -2  12    9.11    0.35
  -1  -2  12    8.59    0.41
   1   2 -12    8.23    0.62
   1   2 -12    8.34    0.80
   1   2 -12    8.71    0.60
  -1   2  12    8.21    0.70
   0  -2  12    0.94    0.15
   0  -2  12    0.98    0.12
   0  -2 -12    0.79    0.17
   0  -2 -12    1.05    0.17
   0  -2  12    1.07    0.21
   0   2 -12    0.83    0.31
   0   2 -12    1.05    0.22
   0   2 -12    0.99    0.43
   0   2  12    0.90    0.21
  -1  -2 -12    3.61    0.31
   1  -2  12    3.24    0.19
   1  -2  12    3.58    0.25
  -1  -2 -12    2.78    0.19
  -1  -2 -12    2.97    0.19
   1  -2  12    2.95    0.33
   1   2  12    3.29    0.46
  -1   2 -12    3.23    0.36
  -1   2 -12    3.51    0.19
   1   2  12    2.71    0.23
  -1   2 -12    3.14    0.51
  -1   2 -12    4.10    0.33
   1   2  12    3.47    0.34
   2  -2  12    0.47    0.10
   2  -2  12    0.68    0.32
   2  -2  12    0.51    0.13
  -2  -2 -12    0.42    0.08
  -2  -2 -12    0.46    0.10
  -2  -2 -12    0.56    0.14
  -2   2 -12    0.47    0.09
   2   2  12    0.57    0.17
   2   2  12    0.48    0.26
  -2   2 -12   -0.04    0.21
  -2   2 -12    0.28    0.16
   2   2  12    0.76    0.19
  -3  -2 -12    2.97    0.17
  -3  -2 -12    3.16    0.31
   3  -2  12    2.70    0.25
   3  -2  12    2.70    0.25
   3  -2  12    2.94    0.20
   3  -2  12    3.96    0.65
  -3  -2 -12    3.14    0.24
  -3   2 -12    2.71    0.37
   3   2  12    3.69    0.47
   3   2  12    2.98    0.28
   3   2  12    3.03    0.48
  -3   2 -12    2.84    0.49
  -4  -2 -12    0.43    0.13
  -4  -2 -12    0.62    0.18
   4  -2  12    0.20    0.35
   4  -2  12    0.31    0.13
   4   2  12    0.37    0.30
  -4   2 -12    0.14    0.18
  -4   2 -12    0.40    0.34
   4   2  12    0.32    0.28
   5  -2  12   -0.06    0.09
   5  -2  12    0.27    0.38
  -5  -2 -12    0.06    0.14
   5  -2  12   -0.03    0.13
   5  -2  12   -0.04    0.15
   5   2  12    0.11    0.37
  -5   2 -12    0.14    0.42
  -5   2 -12    0.28    0.22
   5   2  12    0.14    0.19
   5   2  12    0.21    0.30
   6  -2  12    0.89    0.13
   6  -2  12    1.16    0.23
   6  -2  12    1.15    0.22
   6   2  12    0.79    0.38
   6   2  12    0.80    0.27
   7  -2  12    0.98    0.26
   7  -2  12    0.51    0.18
  -7  -2 -12    0.68    0.23
   7   2  12    0.21    0.42
   7   2  12    0.73    0.33
  -7   2 -12    0.42    0.29
   8  -3 -12    1.34    0.61
  -8  -3  12    1.19    0.49
   8  -3 -12    1.61    0.50
  -8  -3  12    0.92    0.18
  -8   3  12    1.91    0.43
   7  -3 -12    0.91    0.53
  -7  -3  12    1.21    0.18
   7  -3 -12    0.50    0.46
  -6  -3  12    1.47    0.20
   6  -3 -12    1.25    0.47
   6  -3 -12    1.49    0.43
  -6  -3  12    1.91    0.21
  -6  -3  12    1.31    0.42
  -6   3  12    2.27    0.43
  -5  -3  12    0.31    0.10
  -5  -3  12    0.57    0.11
  -5  -3  12    0.15    0.32
   5  -3 -12    0.57    0.31
  -5   3  12    1.00    0.47
  -5   3  12    0.79    0.30
   5   3 -12    0.47    0.55
  -4  -3  12    3.62    0.57
   4  -3 -12    3.04    0.49
  -4  -3  12    2.81    0.21
  -4  -3  12    2.99    0.21
  -4   3  12    4.11    0.51
  -4   3  12    3.84    0.69
   4   3 -12    2.12    0.61
   3  -3 -12    1.51    0.31
  -3  -3  12    1.86    0.18
  -3  -3  12    1.49    0.17
  -3   3  12    1.74    0.33
   3   3 -12    2.34    0.62
   3   3 -12    1.19    0.30
  -3   3  12    1.49    0.39
   2  -3 -12    0.07    0.17
  -2  -3  12    0.13    0.08
  -2  -3  12    0.08    0.09
   2   3 -12    0.18    0.20
  -2   3  12   -0.58    0.34
  -2   3  12    0.28    0.23
   2   3 -12    0.69    0.52
   1  -3 -12    2.13    0.34
  -1  -3  12    2.52    0.24
  -1  -3  12    2.33    0.20
   1  -3 -12    3.05    0.37
  -1   3  12    1.75    0.46
  -1   3  12    2.60    0.39
   1   3 -12    2.63    0.42
   0  -3  12    1.01    0.17
   0  -3 -12    1.08    0.22
   0  -3  12    1.16    0.21
   0  -3 -12    0.85    0.20
   0   3  12    1.29    0.26
   0   3  12    1.26    0.39
   0   3 -12    0.75    0.24
  -1  -3 -12    0.16    0.14
   1  -3  12    0.19    0.11
  -1  -3 -12    0.30    0.16
   1  -3  12    0.04    0.12
   1   3  12    0.43    0.35
   1   3  12    0.20    0.23
  -1   3 -12    0.36    0.20
  -2  -3 -12    0.07    0.12
  -2  -3 -12    0.01    0.14
   2  -3  12    0.01    0.14
  -2  -3 -12    0.18    0.15
   2  -3  12    0.01    0.11
   2   3  12    0.27    0.33
   2   3  12   -0.10    0.20
  -2   3 -12    0.33    0.19
  -3  -3 -12    1.10    0.19
  -3  -3 -12    1.90    0.29
   3  -3  12    1.42    0.21
   3  -3  12    1.49    0.29
   3   3  12    1.39    0.43
  -3   3 -12    1.58    0.31
  -3   3 -12    1.56    0.16
   4  -3  12    0.30    0.16
  -4  -3 -12    0.42    0.15
   4  -3  12    0.04    0.17
  -4  -3 -12    0.45    0.19
   4   3  12    0.04    0.39
  -5  -3 -12    1.51    0.32
   5  -3  12    1.24    0.21
   5  -3  12    1.65    0.28
   5  -3  12    1.47    0.26
   5   3  12    1.32    0.45
  -5   3 -12    1.33    0.33
   6  -3  12   -0.14    0.18
   6  -3  12   -0.38    0.21
  -6   3 -12   -0.02    0.27
   6   3  12   -0.20    0.46
  -7  -4  12    0.02    0.49
   7  -4 -12    0.29    0.55
   7  -4 -12   -0.16    0.67
  -7  -4  12    0.33    0.14
  -7   4  12    0.97    0.53
  -6  -4  12    2.37    0.56
   6  -4 -12    2.36    0.53
  -6  -4  12    2.27    0.25
   6  -4 -12    1.73    0.63
   5  -4 -12    0.49    0.52
  -5  -4  12    0.45    0.40
  -5  -4  12    0.37    0.13
   5  -4 -12    0.98    0.43
  -5   4  12    1.50    0.46
  -4  -4  12    0.30    0.12
  -4  -4  12    0.32    0.12
   4  -4 -12    0.39    0.32
  -4  -4  12    0.73    0.39
  -4   4  12    0.31    0.38
  -3  -4  12    2.26    0.21
  -3  -4  12    2.18    0.27
   3  -4 -12    2.61    0.43
  -3   4  12    2.07    0.43
  -3   4  12    2.91    0.63
   3   4 -12    2.04    0.45
   2  -4 -12    2.84    0.45
  -2  -4  12    1.82    0.29
  -2  -4  12    2.12    0.25
  -2   4  12    2.73    0.61
  -2   4  12    1.78    0.40
   2   4 -12    2.70    0.54
  -1  -4  12    1.62    0.30
   1  -4 -12    1.04    0.22
  -1  -4  12    0.88    0.17
  -1   4  12    1.34    0.51
   1   4 -12    1.31    0.29
  -1   4  12    1.12    0.34
   0  -4 -12   -0.03    0.19
   0  -4  12    0.04    0.17
   0  -4  12    0.02    0.13
   0   4  12   -0.14    0.42
   0   4 -12    0.15    0.25
  -1  -4 -12    0.88    0.22
   1  -4  12    0.61    0.24
   1  -4  12    0.55    0.18
  -1  -4 -12    0.64    0.28
  -1   4 -12    1.05    0.31
   1   4  12   -0.27    0.44
   1   4  12    0.71    0.29
   2  -4  12    0.48    0.18
   2  -4  12   -0.08    0.23
  -2  -4 -12    0.21    0.20
  -2   4 -12    0.41    0.27
   2   4  12   -0.51    0.27
   2   4  12   -0.29    0.46
   3  -4  12   -0.17    0.19
  -3  -4 -12    0.04    0.19
   3  -4  12    0.25    0.26
  -3   4 -12    0.57    0.32
   3   4  12   -0.16    0.48
   4  -4  12    0.05    0.25
  -4  -4 -12    0.20    0.21
   4  -4  12    0.10    0.21
   4   4  12   -0.24    0.54
  -4   4 -12   -0.21    0.27
   5  -4  12    0.76    0.26
   5  -4  12    0.88    0.30
   5   4  12    0.14    0.61
  -5   4 -12    0.88    0.34
  -4   5  12    0.66    0.48
   3  -5 -12    1.81    0.42
  -3  -5  12    1.66    0.23
   3  -5 -12    2.11    0.74
  -3  -5  12    2.20    0.39
   3   5 -12    1.78    0.49
  -3   5  12    1.27    0.52
   2  -5 -12   -0.47    0.68
  -2  -5  12    0.45    0.18
   2  -5 -12    0.60    0.35
  -2  -5  12    0.62    0.26
  -2   5  12   -0.04    0.47
   2   5 -12    0.58    0.41
   1  -5 -12   -0.13    0.29
  -1  -5  12    0.04    0.18
  -1  -5  12    0.35    0.26
  -1   5  12    0.22    0.42
  -1   5  12    0.87    0.75
   1   5 -12    0.52    0.37
   0  -5  12   -0.20    0.20
   0  -5  12    0.04    0.27
   0  -5 -12    0.61    0.27
   0   5  12    0.76    0.74
   0   5  12   -0.30    0.41
   0   5 -12   -0.45    0.39
   1  -5  12    0.42    0.32
  -1  -5 -12    0.20    0.27
   1  -5  12    0.67    0.22
   1   5  12   -0.57    0.37
   1   5  12    0.27    0.70
  -1   5 -12    0.18    0.37
   2  -5  12   -0.11    0.32
   2   5  12    0.89    0.73
 -10   0  13    0.66    0.35
 -10   0  13    0.13    0.35
  10   0 -13   -0.23    0.46
   9   0 -13    0.16    0.40
  -9   0  13    0.12    0.28
  -9   0  13   -0.43    0.28
  -8   0  13    3.09    0.44
   8   0 -13    1.94    0.43
   8   0 -13    2.22    0.41
  -8   0  13    2.78    0.51
   7   0 -13    0.47    0.31
  -7   0  13    0.16    0.19
  -7   0  13    0.68    0.24
   7   0 -13    0.24    0.16
  -7   0  13    0.25    0.30
  -7   0  13    0.29    0.27
   6   0 -13    0.47    0.25
  -6   0  13    0.30    0.22
  -6   0  13    0.14    0.27
  -6   0  13    0.38    0.20
   6   0 -13    0.29    0.15
  -6   0  13    0.47    0.23
  -6   0  13    0.59    0.16
  -5   0  13    3.48    0.41
   5   0 -13    2.56    0.45
   5   0 -13    2.78    0.27
  -5   0  13    2.68    0.33
  -5   0  13    3.12    0.36
  -5   0  13    2.68    0.45
  -5   0  13    3.80    0.33
  -4   0  13    3.49    0.41
  -4   0  13    4.93    0.37
  -4   0  13    4.99    0.36
   4   0 -13    4.46    0.32
   3   0 -13    4.17    0.28
  -3   0  13    4.51    0.31
  -3   0  13    4.30    0.39
  -3   0  13    4.49    0.32
  -3   0  13    5.26    0.33
   3   0 -13    4.30    0.42
  -3   0  13    4.70    0.42
   3   0 -13    4.52    0.33
   2   0 -13   -0.05    0.14
   2   0 -13    0.09    0.13
   2   0 -13    0.18    0.15
  -2   0  13    0.14    0.11
   2   0 -13    0.20    0.16
  -2   0  13    0.20    0.15
   2   0 -13    0.08    0.11
  -2   0  13    0.21    0.09
   1   0 -13    2.88    0.27
   1   0 -13    3.32    0.33
   1   0 -13    3.71    0.30
   1   0 -13    2.82    0.25
  -1   0  13    2.56    0.23
  -1   0  13    3.62    0.32
   1   0 -13    3.92    0.35
   0   0  13    2.62    0.22
   0   0  13    2.80    0.27
   0   0  13    1.97    0.23
   0   0 -13    2.18    0.25
   0   0 -13    2.06    0.36
   0   0 -13    1.98    0.25
   0   0 -13    2.14    0.32
  -1   0 -13   16.27    0.65
   1   0  13   15.56    0.74
   1   0  13   15.79    0.59
   1   0  13   15.81    0.73
  -1   0 -13   15.73    0.73
  -1   0 -13   15.29    0.75
  -1   0 -13   15.72    0.65
  -2   0 -13    0.06    0.17
   2   0  13    0.09    0.12
   2   0  13   -0.06    0.17
  -2   0 -13   -0.01    0.11
   2   0  13   -0.01    0.09
  -2   0 -13   -0.07    0.22
   3   0  13    0.83    0.13
   3   0  13    0.85    0.18
  -3   0 -13    0.88    0.17
  -3   0 -13    0.58    0.20
   3   0  13    0.64    0.24
  -3   0 -13    0.77    0.31
   4   0  13    3.95    0.38
   4   0  13    2.51    0.53
   4   0  13    2.77    0.20
   4   0  13    3.14    0.31
  -4   0 -13    2.73    0.33
   4   0  13    3.25    0.38
   5   0  13    2.10    0.33
   5   0  13    2.40    0.32
  -6   0 -13   -0.07    0.19
   6   0  13    0.35    0.21
   7   0  13   -0.08    0.23
   7   0  13   -0.09    0.22
  -7   0 -13    0.42    0.22
   8   0  13    0.68    0.31
  -9  -1  13    2.79    0.42
  -9   1  13    1.80    0.42
   9   1 -13    1.56    0.41
  -9   1  13    1.95    0.43
   8  -1 -13    1.65    0.42
  -8  -1  13    1.22    0.38
  -8  -1  13    1.53    0.26
   8  -1 -13    1.78    0.44
  -8   1  13    1.34    0.26
   8   1 -13    0.66    0.37
  -8   1  13    1.66    0.33
   7  -1 -13    2.49    0.46
  -7  -1  13    3.15    0.33
   7  -1 -13    2.27    0.35
  -7  -1  13    2.09    0.36
  -7  -1  13    2.23    0.34
   7   1 -13    2.53    0.42
  -7   1  13    2.46    0.35
  -7   1  13    2.69    0.48
  -7   1  13    3.00    0.44
  -6  -1  13    0.44    0.27
  -6  -1  13    0.36    0.27
  -6  -1  13    0.31    0.14
   6  -1 -13   -0.14    0.30
  -6  -1  13    0.07    0.22
  -6  -1  13    0.06    0.19
   6  -1 -13    0.03    0.18
  -6   1  13    0.12    0.18
  -6   1  13    0.18    0.30
  -6   1  13    0.18    0.21
   6   1 -13    0.31    0.27
  -6   1  13    0.31    0.14
   6   1 -13    0.23    0.23
  -5  -1  13    1.48    0.25
   5  -1 -13    1.27    0.22
  -5  -1  13    1.32    0.20
   5  -1 -13    1.44    0.31
  -5  -1  13    1.01    0.32
  -5  -1  13    1.23    0.27
  -5   1  13    0.82    0.35
  -5   1  13    1.65    0.28
   5   1 -13    1.46    0.28
  -5   1  13    1.31    0.23
   5   1 -13    1.12    0.29
  -5   1  13    0.96    0.21
  -4  -1  13    5.20    0.53
  -4  -1  13    6.16    0.34
  -4  -1  13    6.10    0.48
   4  -1 -13    5.52    0.53
  -4  -1  13    5.71    0.34
   4  -1 -13    5.57    0.39
  -4  -1  13    5.91    0.41
  -4   1  13    6.59    0.61
   4   1 -13    5.50    0.52
   4   1 -13    5.92    0.45
  -4   1  13    5.62    0.29
  -4   1  13    5.13    0.32
  -4   1  13    4.90    0.41
   3  -1 -13    3.86    0.32
  -3  -1  13    4.78    0.38
  -3  -1  13    4.02    0.27
   3  -1 -13    4.81    0.44
  -3  -1  13    4.26    0.25
   3  -1 -13    3.88    0.26
  -3  -1  13    4.74    0.45
  -3   1  13    4.34    0.20
  -3   1  13    4.02    0.35
   3   1 -13    4.26    0.40
  -3   1  13    3.65    0.50
  -3   1  13    4.61    0.38
   3   1 -13    4.07    0.46
  -3   1  13    3.87    0.26
  -2  -1  13    0.52    0.10
   2  -1 -13    0.46    0.16
   2  -1 -13    0.21    0.10
   2  -1 -13    0.52    0.20
  -2  -1  13    0.56    0.13
  -2  -1  13    0.35    0.15
   2  -1 -13    0.41    0.17
  -2   1  13    0.32    0.07
  -2   1  13    0.73    0.18
   2   1 -13    0.50    0.16
   2   1 -13    0.33    0.17
   2   1 -13    0.19    0.17
  -2   1  13    0.57    0.23
   2   1 -13    0.39    0.25
  -1  -1  13   12.91    0.47
   1  -1 -13   12.24    0.46
   1  -1 -13   13.74    0.65
  -1  -1  13   12.68    0.62
  -1  -1  13   12.77    0.57
   1  -1 -13   11.46    0.64
  -1   1  13   12.10    0.52
   1   1 -13   12.46    0.61
   1   1 -13   13.23    0.58
  -1   1  13   12.63    0.75
  -1   1  13   11.98    0.53
   1   1 -13   11.54    0.76
   1   1 -13   12.55    0.55
   1   1 -13   12.78    0.69
   0  -1  13    1.37    0.22
   0  -1 -13    2.12    0.37
   0  -1  13    1.66    0.18
   0  -1  13    1.54    0.14
   0  -1 -13    1.31    0.17
   0  -1 -13    1.50    0.25
   0  -1 -13    1.48    0.18
   0   1  13    1.99    0.22
   0   1 -13    1.34    0.21
   0   1 -13    1.43    0.26
   0   1 -13    1.58    0.21
   0   1  13    1.70    0.23
   0   1 -13    1.23    0.26
   0   1  13    1.68    0.33
  -1  -1 -13    0.46    0.11
  -1  -1 -13    0.38    0.11
   1  -1  13    0.37    0.15
  -1  -1 -13    0.20    0.21
   1  -1  13    0.63    0.11
  -1  -1 -13    0.32    0.13
  -1   1 -13    0.22    0.18
  -1   1 -13    0.53    0.23
   1   1  13    0.27    0.18
   1   1  13    0.68    0.15
  -1   1 -13    0.37    0.09
   2  -1  13    0.86    0.15
   2  -1  13    0.84    0.21
  -2  -1 -13    1.20    0.30
  -2  -1 -13    0.79    0.15
  -2  -1 -13    0.97    0.15
  -2   1 -13    0.70    0.13
  -2   1 -13    0.68    0.19
   2   1  13    0.68    0.22
  -2   1 -13    0.74    0.26
   2   1  13    1.00    0.27
   2   1  13    0.99    0.18
  -2   1 -13    0.97    0.28
   3  -1  13    4.18    0.48
  -3  -1 -13    4.64    0.33
   3  -1  13    3.48    0.50
   3  -1  13    3.62    0.29
   3  -1  13    4.88    0.21
  -3  -1 -13    4.42    0.30
   3   1  13    3.87    0.44
  -3   1 -13    4.46    0.40
   3   1  13    3.93    0.50
   3   1  13    3.98    0.29
  -3   1 -13    3.93    0.56
   4  -1  13   -0.12    0.12
   4  -1  13    0.11    0.06
   4  -1  13    0.12    0.27
   4  -1  13   -0.21    0.14
  -4   1 -13    0.76    0.39
  -4   1 -13    0.15    0.18
   4   1  13    0.28    0.22
   4   1  13   -0.40    0.29
  -5  -1 -13    0.48    0.16
   5  -1  13    0.46    0.08
   5  -1  13    0.28    0.14
  -5   1 -13    0.14    0.20
   5   1  13    0.84    0.27
   5   1  13    0.32    0.21
   5   1  13    0.92    0.38
   6  -1  13   -0.21    0.16
  -6  -1 -13    0.13    0.19
   6   1  13    0.19    0.27
  -6   1 -13   -0.16    0.21
   6   1  13   -0.19    0.25
  -7   1 -13    2.18    0.48
   7   1  13    1.10    0.37
   7   1  13    1.09    0.35
  -9  -2  13   -0.04    0.43
   9  -2 -13    0.19    0.59
   9  -2 -13    1.00    0.53
  -9  -2  13    1.33    0.27
   9   2 -13    0.80    0.38
  -9   2  13    0.56    0.40
  -8  -2  13    0.25    0.18
   8  -2 -13   -0.71    0.46
  -8  -2  13    0.64    0.39
   8  -2 -13    0.72    0.42
  -8   2  13    0.19    0.37
   8   2 -13    0.49    0.31
  -7  -2  13    0.01    0.14
   7  -2 -13   -0.59    0.36
  -7  -2  13    0.46    0.35
   7  -2 -13   -0.20    0.41
   7   2 -13    0.03    0.25
  -7   2  13    0.24    0.30
  -6  -2  13    0.09    0.34
  -6  -2  13    0.86    0.15
   6  -2 -13    1.12    0.35
  -6  -2  13    0.75    0.20
  -6  -2  13    0.68    0.20
  -6   2  13    1.15    0.45
  -6   2  13    0.66    0.28
   6   2 -13    0.19    0.25
  -5  -2  13    1.35    0.24
  -5  -2  13    1.15    0.34
   5  -2 -13    1.86    0.36
  -5  -2  13    1.27    0.23
  -5  -2  13    1.16    0.16
  -5   2  13    1.34    0.28
  -5   2  13    1.55    0.41
   5   2 -13    1.46    0.43
  -4  -2  13    5.11    0.26
  -4  -2  13    4.64    0.57
  -4  -2  13    5.09    0.31
   4  -2 -13    5.02    0.55
  -4  -2  13    4.70    0.27
  -4   2  13    5.59    0.51
   4   2 -13    4.24    0.69
   4   2 -13    4.29    0.36
  -4   2  13    3.89    0.65
  -3  -2  13    0.55    0.10
  -3  -2  13    0.43    0.21
  -3  -2  13    0.39    0.11
   3  -2 -13    0.34    0.19
   3   2 -13    0.61    0.15
   3   2 -13    0.40    0.21
   3   2 -13    0.05    0.39
   3   2 -13    0.39    0.11
  -3   2  13    0.62    0.33
  -2  -2  13    0.22    0.08
   2  -2 -13    0.25    0.16
  -2  -2  13    0.05    0.19
   2  -2 -13    0.22    0.13
  -2  -2  13    0.27    0.11
   2   2 -13    0.33    0.19
  -2   2  13    0.65    0.30
   2   2 -13    0.67    0.43
  -2   2  13    0.40    0.19
  -1  -2  13    2.31    0.20
  -1  -2  13    1.65    0.34
   1  -2 -13    1.91    0.22
  -1  -2  13    2.42    0.17
  -1   2  13    2.33    0.34
  -1   2  13    1.91    0.43
   1   2 -13    2.14    0.36
   0  -2  13    4.61    0.23
   0  -2 -13    4.52    0.38
   0  -2 -13    3.74    0.25
   0  -2  13    4.12    0.39
   0   2  13    3.65    0.40
   0   2 -13    3.55    0.32
   0   2 -13    3.49    0.29
   0   2 -13    4.88    0.43
   0   2  13    4.43    0.52
   1  -2  13    0.83    0.15
  -1  -2 -13    0.92    0.18
  -1  -2 -13    0.71    0.12
   1  -2  13    0.92    0.13
   1   2  13    0.95    0.22
   1   2  13    0.92    0.28
  -1   2 -13    0.89    0.12
  -1   2 -13    0.85    0.33
  -1   2 -13    1.13    0.25
  -2  -2 -13    2.78    0.30
   2  -2  13    2.90    0.18
  -2  -2 -13    2.58    0.22
   2  -2  13    2.30    0.45
   2  -2  13    2.61    0.24
  -2  -2 -13    2.36    0.18
   2   2  13    2.05    0.33
   2   2  13    3.12    0.36
  -2   2 -13    2.76    0.19
   2   2  13    3.02    0.49
   3  -2  13    0.57    0.09
  -3  -2 -13    0.73    0.12
   3  -2  13    0.61    0.13
   3  -2  13    0.76    0.41
  -3  -2 -13    0.59    0.16
  -3  -2 -13    0.57    0.13
  -3   2 -13    0.31    0.21
  -3   2 -13    0.75    0.12
  -3   2 -13    0.70    0.32
   3   2  13    0.60    0.17
   3   2  13    0.98    0.28
   3   2  13    0.56    0.32
   4  -2  13    0.74    0.15
   4  -2  13    0.65    0.17
  -4  -2 -13    0.58    0.18
   4  -2  13    0.12    0.41
   4  -2  13    1.00    0.14
   4   2  13    0.64    0.31
  -4   2 -13    0.96    0.26
  -5  -2 -13    0.41    0.15
   5  -2  13   -0.02    0.14
   5  -2  13    0.27    0.09
   5   2  13    0.15    0.36
  -5   2 -13    0.24    0.22
   6  -2  13    0.18    0.18
  -6  -2 -13    0.81    0.23
   6  -2  13    0.35    0.21
  -6   2 -13    0.53    0.28
   6   2  13    0.13    0.26
   6   2  13    0.67    0.44
   7  -2  13    0.18    0.24
  -7  -2 -13    0.54    0.23
   7   2  13   -0.18    0.30
  -7   2 -13    0.84    0.32
   7   2  13    0.59    0.46
  -8  -3  13    1.65    0.55
   8  -3 -13    0.54    0.53
  -8  -3  13    0.82    0.19
   8  -3 -13    0.84    0.64
  -8   3  13    1.86    0.48
   7  -3 -13    0.39    0.54
   7  -3 -13   -0.39    0.45
  -7  -3  13    0.79    0.41
  -7   3  13    0.45    0.38
  -6  -3  13    2.10    0.24
  -6  -3  13    1.91    0.47
   6  -3 -13    3.10    0.52
  -6   3  13    2.38    0.46
  -5  -3  13    4.29    0.69
   5  -3 -13    3.86    0.66
  -5  -3  13    4.46    0.27
  -5  -3  13    4.61    0.30
  -5   3  13    4.55    0.63
  -5   3  13    4.85    0.87
   4  -3 -13    0.07    0.29
  -4  -3  13    0.30    0.10
  -4  -3  13    0.52    0.30
  -4  -3  13    0.22    0.10
  -4   3  13    0.50    0.45
   4   3 -13    0.88    0.60
  -4   3  13    0.35    0.28
  -3  -3  13    0.20    0.11
  -3  -3  13    0.46    0.10
   3  -3 -13    0.00    0.22
   3   3 -13    0.18    0.26
  -3   3  13    0.52    0.29
  -3   3  13    0.88    0.43
   3   3 -13    1.31    0.62
   2  -3 -13    8.64    0.58
  -2  -3  13    8.50    0.38
  -2  -3  13    8.71    0.42
   2   3 -13    9.36    0.70
  -2   3  13    6.65    0.86
  -2   3  13    9.02    0.67
  -1  -3  13    1.44    0.20
   1  -3 -13    2.19    0.35
  -1  -3  13    1.96    0.17
   1   3 -13    1.17    0.32
  -1   3  13    1.92    0.35
  -1   3  13    1.15    0.44
   0  -3  13    0.70    0.12
   0  -3 -13    0.62    0.20
   0  -3  13    0.72    0.16
   0  -3 -13    0.57    0.20
   0   3  13    1.00    0.42
   0   3  13    1.34    0.28
   0   3 -13    0.85    0.25
  -1  -3 -13    0.62    0.17
  -1  -3 -13    0.52    0.20
   1  -3  13    0.57    0.13
   1  -3  13    0.47    0.14
  -1   3 -13    0.39    0.25
   1   3  13    0.44    0.25
   1   3  13    1.11    0.38
  -2  -3 -13    1.08    0.16
   2  -3  13    1.24    0.17
   2  -3  13    1.18    0.21
  -2  -3 -13    1.01    0.21
   2   3  13    1.02    0.39
  -2   3 -13    1.14    0.28
   2   3  13    0.99    0.26
   3  -3  13    0.32    0.18
  -3  -3 -13    0.67    0.20
  -3  -3 -13    0.33    0.11
   3  -3  13    0.16    0.12
   3   3  13   -0.20    0.41
   4  -3  13   -0.09    0.18
   4  -3  13    0.13    0.14
  -4  -3 -13    0.24    0.14
  -4  -3 -13   -0.22    0.17
  -4   3 -13   -0.06    0.25
   4   3  13    0.16    0.44
  -5  -3 -13    0.32    0.21
   5  -3  13    0.17    0.19
   5  -3  13    0.25    0.16
   5   3  13    0.36    0.44
  -5   3 -13    0.27    0.28
   6  -3  13   -0.07    0.21
  -6  -3 -13   -0.46    0.27
   6   3  13   -0.59    0.51
  -6   3 -13    0.08    0.30
   6  -4 -13    0.13    0.47
   6  -4 -13    0.41    0.66
  -6  -4  13    0.24    0.46
  -6   4  13    1.30    0.52
  -5  -4  13   -0.01    0.41
  -5  -4  13    0.33    0.13
   5  -4 -13    0.33    0.40
   5  -4 -13    0.13    0.57
  -5   4  13    1.41    0.44
   4  -4 -13    5.29    1.01
  -4  -4  13    5.27    0.78
  -4  -4  13    3.93    0.31
  -4  -4  13    4.58    0.30
   4  -4 -13    4.40    0.71
  -4   4  13    6.00    1.08
  -4   4  13    6.78    0.82
  -3  -4  13    2.13    0.23
  -3  -4  13    2.68    0.26
   3  -4 -13    2.19    0.40
  -3   4  13    3.11    0.55
   3   4 -13    1.94    0.43
  -3   4  13    2.75    0.69
  -2  -4  13   -0.06    0.14
   2  -4 -13    0.06    0.24
  -2  -4  13    0.03    0.11
  -2   4  13    0.28    0.53
   2   4 -13    0.26    0.32
  -2   4  13   -0.20    0.33
   1  -4 -13    1.71    0.29
  -1  -4  13    2.12    0.24
  -1  -4  13    2.19    0.31
  -1   4  13    2.17    0.44
  -1   4  13    2.24    0.56
   1   4 -13    2.53    0.54
   0  -4  13    1.42    0.25
   0  -4  13    1.54    0.27
   0  -4 -13    1.31    0.32
   0   4  13    2.00    0.39
   0   4  13    2.00    0.58
   0   4 -13    2.12    0.44
   1  -4  13    0.20    0.16
  -1  -4 -13    0.52    0.21
   1  -4  13    0.37    0.22
  -1   4 -13    0.18    0.31
   1   4  13   -0.24    0.30
   1   4  13   -0.03    0.51
  -2  -4 -13    1.01    0.22
   2  -4  13    0.92    0.24
   2  -4  13    1.02    0.22
  -2   4 -13    0.51    0.34
   2   4  13    0.68    0.56
   3  -4  13    0.26    0.25
   3  -4  13    0.49    0.20
  -3  -4 -13    0.32    0.22
  -3   4 -13    0.10    0.31
  -4  -4 -13    0.14    0.23
   4  -4  13    0.10    0.21
   4  -4  13   -0.20    0.27
   4   4  13   -0.05    0.63
  -1  -5  13    0.72    0.22
  -9   0  14    0.04    0.31
  -9   0  14    0.25    0.31
   9   0 -14    0.82    0.44
   8   0 -14   -0.03    0.38
  -8   0  14    0.55    0.29
  -8   0  14    0.17    0.24
   7   0 -14    0.22    0.33
  -7   0  14    0.46    0.24
  -7   0  14    0.23    0.32
  -7   0  14    0.06    0.19
  -6   0  14    1.18    0.25
  -6   0  14    0.61    0.23
   6   0 -14    0.92    0.21
   6   0 -14    1.35    0.33
  -6   0  14    1.17    0.27
  -5   0  14    3.91    0.54
  -5   0  14    4.51    0.41
  -5   0  14    4.99    0.40
   5   0 -14    4.27    0.37
   5   0 -14    3.71    0.55
  -5   0  14    5.14    0.43
  -5   0  14    4.61    0.47
  -4   0  14    6.59    0.54
  -4   0  14    6.93    0.57
   4   0 -14    7.46    0.45
  -4   0  14    7.79    0.44
  -4   0  14    8.10    0.46
   4   0 -14    7.44    0.60
  -4   0  14    7.56    0.45
  -3   0  14    3.71    0.42
   3   0 -14    3.64    0.35
  -3   0  14    3.70    0.29
  -3   0  14    3.60    0.33
  -3   0  14    3.78    0.38
   2   0 -14    1.04    0.21
  -2   0  14    1.13    0.25
   2   0 -14    0.89    0.17
   2   0 -14    0.91    0.20
   2   0 -14    0.91    0.24
  -2   0  14    1.38    0.22
  -2   0  14    0.77    0.17
  -1   0  14    0.82    0.16
   1   0 -14    0.55    0.20
  -1   0  14    0.76    0.19
   1   0 -14    0.65    0.16
   1   0 -14    0.76    0.16
  -1   0  14    0.84    0.18
   1   0 -14    0.77    0.18
   0   0  14    2.12    0.28
   0   0  14    1.87    0.25
   0   0 -14    1.95    0.29
   0   0 -14    2.14    0.27
  -1   0 -14    1.09    0.22
   1   0  14    0.78    0.20
  -1   0 -14    0.56    0.24
  -1   0 -14    0.43    0.19
   1   0  14    0.52    0.18
  -1   0 -14    0.61    0.13
   1   0  14    0.70    0.13
  -2   0 -14    0.94    0.23
  -2   0 -14    0.78    0.30
   2   0  14    0.79    0.14
   2   0  14    1.28    0.23
   2   0  14    0.84    0.24
  -2   0 -14    0.74    0.18
  -2   0 -14    1.31    0.22
  -3   0 -14    0.76    0.24
   3   0  14    1.11    0.31
  -3   0 -14    0.65    0.16
   3   0  14    0.82    0.14
  -3   0 -14    0.21    0.32
   3   0  14    0.88    0.20
  -3   0 -14    0.86    0.19
  -4   0 -14    0.21    0.18
   4   0  14    0.24    0.18
  -5   0 -14    0.34    0.21
   5   0  14    0.23    0.24
   5   0  14    0.50    0.21
   6   0  14   -0.06    0.28
  -6   0 -14   -0.14    0.22
   6   0  14   -0.03    0.22
  -7   0 -14    0.03    0.26
   7   0  14    0.26    0.28
  -9  -1  14    0.71    0.25
  -9  -1  14    0.78    0.42
   9  -1 -14    0.73    0.51
  -9   1  14    0.07    0.36
   9   1 -14    0.19    0.43
  -8  -1  14    0.21    0.20
   8  -1 -14   -0.29    0.42
   8  -1 -14   -0.42    0.40
  -8  -1  14    0.04    0.30
  -8   1  14   -0.07    0.30
   7  -1 -14    0.85    0.37
  -7  -1  14    1.10    0.36
  -7  -1  14    2.09    0.33
  -7  -1  14    0.52    0.32
  -7   1  14    1.32    0.23
   7   1 -14    1.25    0.37
  -7   1  14    1.40    0.29
  -7   1  14    1.39    0.46
  -6  -1  14    5.24    0.46
  -6  -1  14    5.56    0.64
  -6  -1  14    5.25    0.61
   6  -1 -14    5.15    0.64
  -6  -1  14    4.61    0.51
  -6  -1  14    5.18    0.40
   6  -1 -14    4.62    0.42
   6   1 -14    4.96    0.57
  -6   1  14    5.51    0.38
   6   1 -14    4.72    0.59
  -6   1  14    5.45    0.52
  -6   1  14    4.60    0.68
   5  -1 -14    1.25    0.34
  -5  -1  14    0.85    0.33
  -5  -1  14    1.00    0.26
  -5  -1  14    1.57    0.23
  -5  -1  14    1.08    0.21
  -5   1  14    0.96    0.36
   5   1 -14    0.89    0.33
  -5   1  14    0.77    0.21
  -5   1  14    1.38    0.23
   5   1 -14    1.21    0.28
  -5   1  14    0.88    0.16
   4  -1 -14    3.14    0.47
  -4  -1  14    2.51    0.27
  -4  -1  14    3.16    0.26
  -4  -1  14    2.94    0.41
  -4  -1  14    2.20    0.38
  -4  -1  14    2.70    0.34
  -4   1  14    2.57    0.37
  -4   1  14    2.68    0.19
   4   1 -14    2.97    0.39
   4   1 -14    2.44    0.39
  -4   1  14    3.02    0.55
  -3  -1  14    1.15    0.18
   3  -1 -14    1.14    0.25
  -3  -1  14    1.00    0.25
  -3  -1  14    1.51    0.25
  -3  -1  14    0.97    0.23
   3   1 -14    0.99    0.20
  -3   1  14    0.71    0.30
   3   1 -14    1.04    0.22
   3   1 -14    0.91    0.32
   2  -1 -14    5.31    0.44
  -2  -1  14    5.10    0.28
   2  -1 -14    5.02    0.50
  -2  -1  14    4.69    0.35
   2  -1 -14    4.29    0.28
  -2  -1  14    4.68    0.38
   2   1 -14    5.28    0.40
   2   1 -14    5.20    0.46
   2   1 -14    5.74    0.38
   2   1 -14    4.29    0.55
  -2   1  14    5.16    0.41
  -1  -1  14    2.82    0.28
   1  -1 -14    3.71    0.35
  -1  -1  14    2.78    0.30
  -1  -1  14    2.96    0.21
   1  -1 -14    2.91    0.23
   1   1 -14    2.32    0.40
  -1   1  14    2.90    0.43
   1   1 -14    2.81    0.37
   1   1 -14    2.84    0.30
   1   1 -14    2.93    0.31
  -1   1  14    3.02    0.24
  -1   1  14    3.19    0.33
  -1   1  14    3.05    0.23
   0  -1  14    0.41    0.16
   0  -1  14    0.51    0.11
   0  -1 -14    0.59    0.24
   0  -1 -14    0.46    0.12
   0  -1 -14    0.44    0.16
   0  -1 -14    0.47    0.13
   0  -1  14    0.40    0.12
   0   1 -14    0.61    0.22
   0   1  14    0.60    0.18
   0   1 -14    0.67    0.14
   0   1 -14    0.38    0.18
   0   1  14    0.63    0.24
   1  -1  14    1.88    0.32
  -1  -1 -14    1.68    0.25
   1  -1  14    1.78    0.17
  -1  -1 -14    1.89    0.24
  -1  -1 -14    2.29    0.21
   1  -1  14    2.06    0.22
  -1   1 -14    1.59    0.22
   1   1  14    2.04    0.37
  -1   1 -14    1.33    0.27
  -1   1 -14    1.97    0.30
   1   1  14    1.92    0.28
  -1   1 -14    1.98    0.34
  -2  -1 -14    0.10    0.14
   2  -1  14    0.10    0.08
   2  -1  14    0.22    0.11
   2  -1  14    0.16    0.20
  -2  -1 -14    0.01    0.12
  -2   1 -14   -0.08    0.15
  -2   1 -14    0.33    0.28
   2   1  14   -0.03    0.20
  -2   1 -14    0.42    0.29
   2   1  14   -0.04    0.22
  -2   1 -14    0.17    0.11
   2   1  14    0.02    0.15
   3  -1  14    0.62    0.10
   3  -1  14    0.27    0.33
   3  -1  14    0.44    0.13
  -3  -1 -14    0.63    0.19
  -3  -1 -14    0.80    0.17
  -3  -1 -14    0.43    0.16
   3   1  14    0.95    0.17
  -3   1 -14    0.64    0.21
  -3   1 -14    0.59    0.34
   3   1  14    0.93    0.27
   3   1  14    0.31    0.28
   4  -1  14    0.23    0.08
   4  -1  14    0.26    0.15
  -4  -1 -14   -0.03    0.17
   4   1  14    0.31    0.28
  -4   1 -14    1.09    0.45
   4   1  14    0.61    0.39
  -4   1 -14    0.46    0.21
   5  -1  14    0.50    0.17
  -5  -1 -14    0.28    0.17
  -5  -1 -14   -0.07    0.17
   5   1  14    0.35    0.29
  -5   1 -14    0.12    0.23
  -6  -1 -14    0.19    0.20
   6  -1  14    0.18    0.19
   6   1  14   -0.23    0.26
  -6   1 -14    0.03    0.25
   6   1  14   -0.07    0.30
   7  -1  14    0.26    0.22
   7  -1  14    0.70    0.25
  -7  -1 -14    0.35    0.26
   7   1  14    0.21    0.36
   7   1  14    0.08    0.37
  -8  -2  14    0.66    0.44
   8  -2 -14    0.44    0.46
  -8  -2  14    0.12    0.20
   8  -2 -14    0.39    0.54
  -8   2  14   -0.06    0.40
  -7  -2  14    3.08    0.33
   7  -2 -14    2.04    0.49
  -7  -2  14    2.63    0.54
  -7   2  14    3.01    0.48
   7   2 -14    2.45    0.38
   6  -2 -14   -0.15    0.35
  -6  -2  14    0.54    0.22
  -6  -2  14   -0.41    0.32
  -6   2  14    0.26    0.46
   6   2 -14    0.07    0.26
  -6   2  14    0.45    0.29
  -5  -2  14    2.13    0.22
  -5  -2  14    2.07    0.41
   5  -2 -14    3.36    0.61
  -5  -2  14    2.41    0.31
  -5   2  14    2.65    0.52
   5   2 -14    2.49    0.56
  -5   2  14    1.92    0.38
  -4  -2  14    1.76    0.20
   4  -2 -14    2.88    0.51
  -4  -2  14    2.15    0.25
   4   2 -14    1.65    0.53
   4   2 -14    1.76    0.24
  -4   2  14    1.90    0.45
  -4   2  14    2.20    0.38
  -3  -2  14    0.92    0.16
   3  -2 -14    0.85    0.27
  -3  -2  14    1.16    0.19
   3   2 -14    1.29    0.51
   3   2 -14    0.91    0.15
  -3   2  14    0.91    0.39
  -3   2  14    0.81    0.26
   3   2 -14    0.77    0.25
   3   2 -14    1.53    0.26
  -2  -2  14    2.23    0.18
  -2  -2  14    2.37    0.22
   2  -2 -14    3.09    0.40
  -2   2  14    2.57    0.42
  -2   2  14    2.84    0.56
   2   2 -14    2.34    0.42
  -1  -2  14    1.21    0.15
   1  -2 -14    1.27    0.24
   1   2 -14    1.24    0.28
  -1   2  14    1.11    0.26
  -1   2  14    0.97    0.36
   0  -2 -14    0.99    0.20
   0  -2  14    1.16    0.18
   0  -2 -14    1.04    0.15
   0   2 -14    1.71    0.32
   0   2  14    1.44    0.35
   0   2  14    0.86    0.25
   0   2 -14    1.37    0.27
   1  -2  14    0.79    0.14
  -1  -2 -14    0.65    0.15
   1  -2  14    0.31    0.13
  -1  -2 -14    0.48    0.13
   1   2  14    0.24    0.20
  -1   2 -14    0.88    0.23
   1   2  14    1.42    0.37
  -1   2 -14    0.54    0.21
   2  -2  14    0.43    0.09
  -2  -2 -14    0.27    0.10
  -2  -2 -14    0.28    0.14
   2  -2  14    0.06    0.13
  -2  -2 -14    0.37    0.12
  -2   2 -14    0.39    0.11
   2   2  14    0.62    0.30
   2   2  14    0.16    0.20
   3  -2  14    0.09    0.42
   3  -2  14   -0.16    0.13
  -3  -2 -14    0.25    0.13
  -3  -2 -14    0.30    0.16
   3  -2  14    0.08    0.08
   3   2  14    0.17    0.31
   3   2  14   -0.01    0.18
  -3   2 -14    0.01    0.11
  -3   2 -14    0.29    0.22
  -4  -2 -14    0.10    0.14
   4  -2  14    0.20    0.09
  -4  -2 -14    0.07    0.18
  -4   2 -14    0.03    0.23
   4   2  14   -0.07    0.33
   5  -2  14    0.37    0.11
   5  -2  14   -0.13    0.17
   5  -2  14    0.23    0.20
  -5  -2 -14    0.42    0.17
   5   2  14    0.77    0.41
  -5   2 -14   -0.19    0.24
   7  -3 -14    0.31    0.50
   7  -3 -14    1.17    0.59
  -7  -3  14    0.11    0.15
  -7  -3  14    1.02    0.47
  -7   3  14   -0.38    0.42
  -6  -3  14    5.04    0.84
  -6  -3  14    4.26    0.31
   6  -3 -14    4.79    0.86
  -6   3  14    3.35    0.60
  -5  -3  14    0.14    0.12
  -5  -3  14   -0.39    0.34
  -5  -3  14   -0.02    0.14
   5  -3 -14    0.26    0.37
  -5   3  14   -0.55    0.34
  -5   3  14    0.40    0.55
   4  -3 -14    0.30    0.31
  -4  -3  14    0.28    0.12
  -4  -3  14    0.02    0.10
  -4  -3  14    0.23    0.34
  -4   3  14   -0.22    0.32
  -4   3  14    0.34    0.47
  -3  -3  14    0.06    0.10
  -3  -3  14    0.11    0.11
   3  -3 -14   -0.16    0.27
  -3   3  14    0.10    0.44
   3   3 -14   -0.01    0.28
  -3   3  14    0.61    0.30
  -2  -3  14    1.30    0.18
  -2  -3  14    0.81    0.16
   2  -3 -14    2.27    0.44
   2   3 -14    1.45    0.35
  -2   3  14    0.89    0.46
  -2   3  14    1.53    0.33
   1  -3 -14    1.14    0.23
  -1  -3  14    0.87    0.16
  -1  -3  14    0.82    0.13
  -1   3  14    0.66    0.45
   1   3 -14    0.84    0.28
   0  -3  14    0.26    0.10
   0  -3 -14    0.34    0.20
   0  -3  14    0.09    0.12
   0  -3 -14    0.36    0.19
   0   3  14   -0.03    0.39
   0   3  14    0.79    0.27
   0   3 -14    0.38    0.25
  -1  -3 -14   -0.07    0.15
   1  -3  14    0.16    0.09
  -1  -3 -14    0.21    0.18
   1  -3  14    0.15    0.14
  -1   3 -14    0.13    0.24
   1   3  14    0.08    0.41
   1   3  14    0.01    0.26
   2  -3  14    0.03    0.11
   2  -3  14    0.17    0.16
  -2  -3 -14    0.16    0.18
   2   3  14    0.19    0.26
   2   3  14    0.11    0.44
  -2   3 -14    0.00    0.26
  -3  -3 -14    0.07    0.17
   3  -3  14    0.37    0.18
   3  -3  14    0.07    0.13
  -3   3 -14    0.96    0.27
   3   3  14   -0.13    0.47
   4  -3  14   -0.24    0.18
  -4  -3 -14    0.36    0.21
   4  -3  14   -0.08    0.13
  -4   3 -14   -0.15    0.27
   4   3  14   -0.05    0.48
   5  -3  14   -0.29    0.20
   5  -3  14   -0.06    0.15
  -5  -3 -14   -0.23    0.23
  -5   3 -14   -0.33    0.31
   5   3  14   -0.50    0.50
  -5  -4  14    0.61    0.50
   5  -4 -14    0.24    0.44
  -5   4  14    1.67    0.51
  -4  -4  14    0.90    0.17
  -4  -4  14    1.04    0.46
  -4  -4  14    0.54    0.14
   4  -4 -14    0.61    0.39
  -4   4  14    1.88    0.45
  -4   4  14    0.50    0.65
  -3  -4  14    0.19    0.13
   3  -4 -14    0.24    0.33
  -3  -4  14    0.33    0.15
  -3   4  14    0.13    0.62
   3   4 -14    0.14    0.37
  -3   4  14    0.76    0.44
  -2  -4  14    0.79    0.17
   2  -4 -14    0.66    0.30
  -2  -4  14    0.83    0.16
  -2   4  14    1.22    0.61
   2   4 -14    0.99    0.39
  -2   4  14    0.53    0.42
  -1  -4  14    0.31    0.13
   1  -4 -14    0.95    0.30
  -1  -4  14    0.38    0.17
  -1   4  14    0.23    0.37
   1   4 -14    0.89    0.34
  -1   4  14    0.66    0.55
   0  -4  14   -0.10    0.14
   0  -4 -14   -0.21    0.26
   0  -4  14   -0.11    0.17
   0   4  14    0.13    0.53
   0   4 -14    0.22    0.34
   0   4  14    0.37    0.36
   1  -4  14    0.14    0.21
  -1  -4 -14    0.42    0.25
   1  -4  14   -0.29    0.15
   1   4  14   -0.35    0.35
  -1   4 -14   -0.04    0.33
   1   4  14   -0.59    0.54
   2  -4  14    0.61    0.19
   2  -4  14    0.72    0.25
  -2  -4 -14    0.39    0.24
  -2   4 -14    0.27    0.34
   2   4  14    0.12    0.59
   3  -4  14    0.19    0.18
  -3  -4 -14    0.24    0.27
   3  -4  14    0.25    0.25
  -3   4 -14   -0.02    0.36
   3   4  14   -0.95    0.66
   9   0 -15   -0.23    0.48
  -8   0  15    1.63    0.35
  -8   0  15    0.92    0.29
   8   0 -15    1.49    0.45
   7   0 -15    1.92    0.42
  -7   0  15    3.25    0.51
  -7   0  15    2.31    0.45
  -7   0  15    3.06    0.46
  -6   0  15    5.03    0.53
   6   0 -15    6.53    0.68
  -6   0  15    6.75    0.51
   6   0 -15    5.42    0.46
  -6   0  15    6.11    0.70
  -5   0  15    1.25    0.24
  -5   0  15    1.21    0.27
  -5   0  15    0.94    0.35
   5   0 -15    0.99    0.25
  -5   0  15    1.22    0.22
   4   0 -15    4.05    0.56
  -4   0  15    2.77    0.44
  -4   0  15    4.76    0.53
  -4   0  15    3.65    0.34
  -4   0  15    4.40    0.38
  -4   0  15    3.89    0.37
  -3   0  15    7.07    0.60
  -3   0  15    7.44    0.52
  -3   0  15    8.14    0.46
  -3   0  15    7.25    0.41
   3   0 -15    6.97    0.56
   3   0 -15    7.49    0.58
  -2   0  15    0.31    0.12
   2   0 -15    0.37    0.19
  -2   0  15    0.39    0.21
  -2   0  15    0.40    0.17
  -1   0  15    0.69    0.16
   1   0 -15    0.74    0.19
  -1   0  15    0.78    0.23
   1   0 -15    1.28    0.27
   1   0 -15    0.94    0.25
  -1   0  15    0.89    0.18
   1   0 -15    0.66    0.20
   0   0 -15    2.69    0.33
   0   0 -15    2.24    0.35
   0   0 -15    3.17    0.31
   0   0  15    2.75    0.27
   0   0  15    2.76    0.34
   0   0 -15    2.94    0.43
   0   0  15    2.62    0.31
  -1   0 -15    0.52    0.23
   1   0  15    0.26    0.19
   1   0  15    0.50    0.19
  -1   0 -15    0.23    0.28
  -1   0 -15    0.19    0.16
  -1   0 -15    0.25    0.13
   2   0  15    0.56    0.26
   2   0  15    0.59    0.14
   2   0  15    0.64    0.19
  -2   0 -15    0.53    0.34
  -2   0 -15    0.62    0.15
  -2   0 -15    0.54    0.25
   3   0  15   -0.07    0.28
   3   0  15    0.16    0.18
   3   0  15   -0.08    0.13
  -3   0 -15    0.06    0.18
   4   0  15    0.18    0.21
  -4   0 -15    0.10    0.21
   5   0  15    0.43    0.24
  -5   0 -15    0.10    0.24
   6   0  15    0.31    0.28
  -6   0 -15    0.05    0.26
   6   0  15    0.01    0.30
  -8  -1  15    0.28    0.25
  -8  -1  15   -0.32    0.32
   8   1 -15   -0.46    0.39
  -8   1  15    0.35    0.33
   7  -1 -15    0.56    0.40
  -7  -1  15    0.61    0.21
  -7  -1  15    0.36    0.34
   7   1 -15    0.82    0.35
  -7   1  15    0.94    0.31
  -6  -1  15    0.52    0.18
  -6  -1  15    0.68    0.25
  -6  -1  15    0.80    0.34
   6   1 -15    0.26    0.30
  -6   1  15    0.69    0.29
  -5  -1  15    5.55    0.53
  -5  -1  15    5.27    0.64
  -5  -1  15    6.52    0.61
  -5  -1  15    5.74    0.42
   5  -1 -15    5.99    0.75
  -5  -1  15    6.61    0.42
  -5   1  15    5.41    0.73
  -5   1  15    5.77    0.52
   5   1 -15    5.10    0.67
  -5   1  15    6.13    0.36
   4  -1 -15    7.08    0.63
  -4  -1  15    5.77    0.61
  -4  -1  15    6.53    0.41
  -4  -1  15    6.73    0.38
  -4  -1  15    5.80    0.52
  -4  -1  15    6.54    0.49
   4   1 -15    5.66    0.52
   4   1 -15    5.64    0.68
  -4   1  15    5.94    0.71
  -4   1  15    6.81    0.50
  -3  -1  15    1.85    0.23
  -3  -1  15    2.14    0.35
  -3  -1  15    2.51    0.43
  -3  -1  15    1.70    0.32
   3   1 -15    1.90    0.34
   3   1 -15    2.13    0.40
  -3   1  15    1.28    0.38
  -3   1  15    1.99    0.31
   2  -1 -15    2.21    0.39
  -2  -1  15    2.36    0.32
  -2  -1  15    1.94    0.22
  -2   1  15    1.97    0.34
   2   1 -15    2.28    0.34
   2   1 -15    2.42    0.37
  -2   1  15    3.14    0.48
   1  -1 -15    1.02    0.17
   1  -1 -15    1.77    0.32
  -1  -1  15    1.39    0.28
  -1  -1  15    1.44    0.24
   1   1 -15    0.99    0.21
  -1   1  15    1.11    0.31
  -1   1  15    1.29    0.23
   1   1 -15    1.44    0.25
   1   1 -15    1.52    0.29
   0  -1  15    1.81    0.25
   0  -1  15    1.64    0.19
   0  -1 -15    1.57    0.25
   0  -1  15    1.96    0.32
   0  -1 -15    1.86    0.22
   0   1 -15    1.98    0.27
   0   1  15    2.17    0.28
   0   1 -15    1.63    0.28
   0   1  15    1.82    0.27
   0   1  15    1.68    0.35
   0   1 -15    1.56    0.33
   1  -1  15    2.16    0.26
  -1  -1 -15    2.28    0.24
   1  -1  15    1.97    0.19
  -1  -1 -15    2.08    0.29
   1  -1  15    2.16    0.37
  -1  -1 -15    2.14    0.29
  -1   1 -15    2.31    0.35
   1   1  15    2.37    0.33
  -1   1 -15    1.73    0.40
  -1   1 -15    2.40    0.26
   1   1  15    1.82    0.36
   1   1  15    2.03    0.38
  -1   1 -15    1.80    0.33
  -2  -1 -15    2.27    0.29
  -2  -1 -15    2.63    0.33
   2  -1  15    2.70    0.20
  -2  -1 -15    2.10    0.31
   2  -1  15    2.56    0.28
  -2   1 -15    1.66    0.36
  -2   1 -15    2.16    0.26
   2   1  15    2.41    0.33
   2   1  15    2.70    0.45
  -2   1 -15    2.43    0.42
  -2   1 -15    3.75    0.59
   3  -1  15    0.19    0.10
  -3  -1 -15    0.13    0.16
   3  -1  15   -0.01    0.14
  -3  -1 -15    0.06    0.16
  -3   1 -15   -0.23    0.20
  -3   1 -15    0.38    0.40
   3   1  15    0.32    0.18
   3   1  15    0.43    0.26
  -3   1 -15   -0.07    0.13
   4  -1  15    0.56    0.18
  -4  -1 -15    0.39    0.20
   4  -1  15    0.49    0.11
  -4  -1 -15    0.55    0.19
  -4   1 -15    0.17    0.22
  -4   1 -15    0.08    0.17
   4   1  15    0.89    0.29
   5  -1  15    0.51    0.20
   5  -1  15   -0.31    0.23
  -5  -1 -15    0.21    0.23
   5   1  15    0.16    0.33
  -5   1 -15    0.18    0.28
   6  -1  15   -0.09    0.29
   6  -1  15    0.27    0.23
  -6  -1 -15   -0.24    0.24
  -6   1 -15    0.12    0.31
   6   1  15    0.55    0.37
   8  -2 -15    3.12    0.66
   8  -2 -15    2.27    0.59
  -8  -2  15    2.76    0.59
  -8   2  15    1.27    0.52
  -7  -2  15    0.24    0.42
  -7  -2  15    0.67    0.20
  -7   2  15   -0.25    0.36
  -7   2  15    0.12    0.59
  -6  -2  15    1.17    0.20
  -6  -2  15    0.58    0.39
   6  -2 -15    0.77    0.43
  -6  -2  15    1.03    0.28
  -6   2  15    1.28    0.50
  -6   2  15    1.46    0.37
  -5  -2  15    4.00    0.30
   5  -2 -15    5.42    0.73
  -5  -2  15    4.17    0.68
  -5  -2  15    4.48    0.42
  -5   2  15    4.59    0.79
  -5   2  15    4.40    0.59
   4  -2 -15    2.07    0.40
  -4  -2  15    1.49    0.21
  -4  -2  15    1.90    0.40
  -4  -2  15    1.84    0.28
  -4   2  15    1.29    0.50
   4   2 -15    1.25    0.24
  -4   2  15    1.68    0.35
   4   2 -15    1.15    0.58
  -3  -2  15    3.13    0.31
   3  -2 -15    4.73    0.52
  -3  -2  15    3.11    0.24
  -3   2  15    3.87    0.52
  -3   2  15    3.79    0.69
   3   2 -15    4.02    0.34
   3   2 -15    3.69    0.53
  -2  -2  15    2.44    0.26
   2  -2 -15    3.37    0.45
  -2  -2  15    3.12    0.22
  -2   2  15    2.15    0.36
  -2   2  15    3.09    0.61
   1  -2 -15    2.46    0.39
  -1  -2  15    1.71    0.23
  -1  -2  15    2.04    0.19
  -1   2  15    1.55    0.40
  -1   2  15    1.67    0.30
   0  -2  15    0.04    0.09
   0  -2 -15    0.29    0.18
   0  -2 -15    0.09    0.14
   0  -2  15    0.09    0.13
   0   2 -15    0.00    0.13
   0   2  15    0.20    0.24
   0   2 -15   -0.05    0.21
   0   2  15    0.53    0.33
   1  -2  15    3.30    0.23
  -1  -2 -15    2.84    0.26
   1  -2  15    3.02    0.27
  -1  -2 -15    3.04    0.37
   1   2  15    2.77    0.44
  -1   2 -15    3.27    0.26
  -1   2 -15    2.83    0.45
   1   2  15    3.66    0.61
  -2  -2 -15    1.31    0.23
   2  -2  15    1.82    0.24
   2   2  15    1.33    0.27
   2   2  15    1.36    0.38
  -2   2 -15    1.56    0.22
   3  -2  15    0.18    0.10
  -3  -2 -15    0.08    0.17
   3  -2  15    0.04    0.15
  -3   2 -15   -0.21    0.23
   3   2  15    0.45    0.37
   4  -2  15    0.05    0.16
  -4  -2 -15   -0.15    0.19
   4  -2  15    0.17    0.11
  -4   2 -15   -0.41    0.26
   4   2  15   -0.41    0.38
  -5  -2 -15    0.28    0.23
   5  -2  15    0.18    0.20
  -5   2 -15   -0.24    0.29
   5   2  15    0.47    0.44
   6  -3 -15    0.83    0.49
  -6  -3  15    0.23    0.15
  -6  -3  15    0.36    0.46
  -6   3  15   -0.08    0.43
  -6   3  15    0.45    0.64
  -5  -3  15    0.45    0.14
  -5  -3  15    0.51    0.45
   5  -3 -15    0.68    0.44
  -5  -3  15    0.60    0.19
  -5   3  15   -0.07    0.36
  -5   3  15   -0.15    0.57
  -4  -3  15    6.84    0.84
  -4  -3  15    6.38    0.35
   4  -3 -15    6.60    0.76
  -4  -3  15    6.00    0.39
  -4   3  15    6.99    0.98
  -4   3  15    6.07    0.74
  -3  -3  15    1.45    0.23
  -3  -3  15    1.11    0.19
   3  -3 -15    1.37    0.37
   3   3 -15    1.19    0.37
  -3   3  15    1.26    0.53
   2  -3 -15    0.96    0.26
  -2  -3  15    1.18    0.22
  -2  -3  15    1.11    0.19
   2   3 -15    0.78    0.32
  -2   3  15    0.55    0.52
  -2   3  15    0.83    0.34
  -1  -3  15    1.85    0.20
  -1  -3  15    1.61    0.25
   1  -3 -15    2.41    0.44
   1   3 -15    2.54    0.49
  -1   3  15    2.26    0.52
  -1   3  15    2.51    0.40
   0  -3 -15    3.57    0.49
   0  -3  15    4.02    0.27
   0   3  15    3.49    0.66
   0   3 -15    3.65    0.55
  -1  -3 -15    0.22    0.22
   1  -3  15    0.01    0.11
   1  -3  15    0.00    0.14
  -1   3 -15    0.55    0.28
   1   3  15    0.68    0.43
   1   3  15   -0.19    0.32
  -2  -3 -15    1.01    0.22
   2  -3  15    1.29    0.20
   2  -3  15    0.70    0.19
  -2   3 -15    0.78    0.31
   2   3  15    0.08    0.48
  -3  -3 -15    0.43    0.23
   3  -3  15    1.55    0.21
   3  -3  15    0.95    0.22
   3   3  15    0.36    0.54
   4  -3  15    0.15    0.13
  -4  -3 -15    0.05    0.24
   4  -3  15   -0.16    0.19
   4   3  15   -0.07    0.56
  -4   4  15    1.73    0.52
  -4   4  15    1.65    0.78
   3  -4 -15    1.11    0.40
  -3  -4  15    0.52    0.15
  -3  -4  15    0.15    0.17
   3   4 -15    0.41    0.43
  -3   4  15    0.74    0.48
  -3   4  15    1.00    0.69
  -2  -4  15    1.94    0.29
  -2  -4  15    1.96    0.25
   2  -4 -15    1.55    0.36
   2   4 -15    1.66    0.48
  -2   4  15    1.75    0.52
  -2   4  15    1.73    0.72
   1  -4 -15    1.36    0.34
  -1  -4  15    1.68    0.30
  -1  -4  15    1.57    0.26
  -1   4  15    2.06    0.47
  -1   4  15    1.25    0.63
   0  -4 -15    0.52    0.29
   0  -4  15    0.27    0.19
   0  -4  15    0.07    0.13
   0   4  15   -0.15    0.59
   0   4 -15    0.14    0.39
   0   4  15    0.23    0.40
  -1  -4 -15    1.25    0.31
   1  -4  15    1.25    0.20
   1  -4  15    1.87    0.34
   1   4  15    0.71    0.64
  -8   0  16   -0.06    0.29
   8   0 -16    0.09    0.47
  -7   0  16    0.62    0.43
   7   0 -16    1.23    0.44
  -6   0  16    0.41    0.24
   6   0 -16    0.29    0.34
  -6   0  16    0.39    0.39
  -5   0  16    6.59    0.50
  -5   0  16    5.61    0.55
  -4   0  16    0.03    0.21
   4   0 -16    0.32    0.30
  -4   0  16    0.73    0.30
  -4   0  16    0.21    0.19
  -4   0  16    0.06    0.21
  -3   0  16    0.23    0.20
   3   0 -16    0.15    0.25
  -3   0  16   -0.02    0.27
   3   0 -16    0.02    0.23
  -3   0  16    0.24    0.17
  -2   0  16    0.26    0.25
  -2   0  16    0.05    0.17
   2   0 -16    0.21    0.21
  -2   0  16    0.00    0.11
  -2   0  16    0.02    0.17
  -1   0  16    4.96    0.47
  -1   0  16    4.47    0.36
   1   0 -16    5.30    0.45
   1   0 -16    4.03    0.49
   1   0 -16    4.63    0.42
   0   0 -16    0.75    0.26
   0   0 -16    0.48    0.25
   0   0 -16    0.81    0.21
   0   0  16    0.84    0.19
   0   0  16    0.85    0.25
   0   0 -16    0.77    0.19
  -1   0 -16    0.01    0.16
  -1   0 -16   -0.28    0.28
  -1   0 -16   -0.04    0.16
   1   0  16   -0.05    0.14
   1   0  16    0.51    0.21
  -1   0 -16    0.01    0.26
   1   0  16    0.01    0.22
  -2   0 -16    1.19    0.22
   2   0  16    1.58    0.28
   2   0  16    1.64    0.22
  -2   0 -16    1.08    0.20
   3   0  16    0.52    0.23
  -3   0 -16    0.63    0.18
   3   0  16    0.42    0.18
  -4   0 -16    0.52    0.20
  -4   0 -16    0.73    0.26
   4   0  16    0.80    0.27
  -5   0 -16    0.17    0.27
   5   0  16   -0.35    0.26
   8  -1 -16   -0.68    0.52
  -8  -1  16   -0.29    0.36
   8   1 -16    0.16    0.43
  -7  -1  16    1.12    0.25
   7  -1 -16   -0.30    0.43
  -7   1  16    0.89    0.35
  -7   1  16    1.25    0.54
   7   1 -16    0.53    0.39
  -6  -1  16    0.89    0.23
  -6  -1  16    0.44    0.34
  -6   1  16    0.83    0.30
  -6   1  16   -0.06    0.46
   6   1 -16    0.46    0.34
  -5  -1  16   -0.10    0.27
   5  -1 -16    0.02    0.36
  -5  -1  16    0.20    0.18
  -5  -1  16    0.04    0.26
  -5   1  16    0.14    0.27
   5   1 -16   -0.02    0.29
  -5   1  16    0.17    0.43
  -4  -1  16    1.55    0.34
  -4  -1  16    1.70    0.27
   4  -1 -16    1.93    0.39
  -4  -1  16    1.35    0.28
  -4   1  16    1.46    0.46
  -4   1  16    1.74    0.31
   4   1 -16    1.24    0.30
   3  -1 -16    0.70    0.30
  -3  -1  16    0.55    0.23
  -3  -1  16    0.69    0.28
  -3  -1  16    0.46    0.21
   3   1 -16    1.11    0.27
  -3   1  16    0.97    0.24
  -3   1  16    0.61    0.36
  -2  -1  16    0.93    0.17
  -2  -1  16    0.77    0.21
  -2  -1  16    1.08    0.22
   2  -1 -16    0.96    0.27
  -2   1  16    1.13    0.26
   2   1 -16    0.78    0.24
   2   1 -16    0.98    0.26
  -1  -1  16    0.68    0.15
  -1  -1  16    0.57    0.18
   1  -1 -16    0.82    0.22
  -1  -1  16    0.43    0.18
   1   1 -16    0.39    0.22
   1   1 -16    0.62    0.20
  -1   1  16    0.81    0.23
   1   1 -16    0.64    0.21
  -1   1  16    0.63    0.33
   0  -1  16    0.63    0.20
   0  -1  16    0.68    0.19
   0  -1 -16    0.69    0.24
   0  -1 -16    0.73    0.15
   0  -1 -16    0.88    0.20
   0   1  16    0.84    0.21
   0   1 -16    0.79    0.18
   0   1  16    0.61    0.30
   0   1 -16    0.96    0.24
  -1  -1 -16    0.36    0.18
  -1  -1 -16    0.51    0.21
  -1  -1 -16    0.46    0.15
   1  -1  16    0.49    0.12
   1  -1  16    0.73    0.19
  -1   1 -16    0.38    0.16
   1   1  16    0.28    0.21
  -1   1 -16    0.23    0.20
   1   1  16    0.41    0.30
  -2  -1 -16    0.26    0.16
   2  -1  16    0.42    0.13
   2  -1  16    0.48    0.17
   2   1  16    0.51    0.21
  -2   1 -16    0.68    0.40
   2   1  16    0.78    0.29
  -2   1 -16    0.54    0.15
  -3  -1 -16    0.25    0.19
   3  -1  16    0.39    0.13
   3  -1  16    0.33    0.20
  -3  -1 -16    0.25    0.18
  -3   1 -16    0.17    0.23
  -3   1 -16    0.39    0.16
   3   1  16    0.49    0.31
  -4  -1 -16    0.07    0.20
   4  -1  16    0.42    0.22
  -4  -1 -16    0.59    0.23
  -4   1 -16    0.24    0.25
   4   1  16    0.98    0.36
   5  -1  16    1.09    0.27
  -5  -1 -16    0.87    0.28
  -5  -1 -16    0.46    0.25
  -5   1 -16    0.74    0.25
   5   1  16    0.99    0.39
  -5   1 -16    0.66    0.31
   7  -2 -16   -0.76    0.52
  -7  -2  16    0.60    0.21
  -7  -2  16    0.70    0.48
  -7   2  16    0.16    0.41
  -7   2  16    0.97    0.63
  -6  -2  16    1.97    0.30
  -6  -2  16    1.53    0.45
   6  -2 -16    2.00    0.54
  -6   2  16    2.13    0.43
  -6   2  16    2.93    0.64
  -5  -2  16    0.37    0.38
  -5  -2  16    0.41    0.15
   5  -2 -16    0.71    0.41
  -5  -2  16    0.42    0.25
  -5   2  16    0.25    0.49
  -5   2  16    0.48    0.37
  -4  -2  16    1.38    0.20
   4  -2 -16    1.79    0.42
  -4  -2  16    1.18    0.37
  -4   2  16    1.72    0.38
  -4   2  16    0.28    0.51
  -3  -2  16    0.27    0.18
  -3  -2  16   -0.19    0.11
   3  -2 -16    0.12    0.27
  -3   2  16    0.20    0.28
  -3   2  16    0.02    0.46
   3   2 -16    0.09    0.28
  -2  -2  16    2.71    0.31
  -2  -2  16    2.65    0.24
   2  -2 -16    2.23    0.35
  -2   2  16    3.14    0.44
  -2   2  16    2.54    0.52
   2   2 -16    2.68    0.54
   1  -2 -16    0.21    0.22
  -1  -2  16    0.18    0.15
  -1  -2  16    0.26    0.11
  -1   2  16    0.05    0.40
   1   2 -16    0.01    0.24
  -1   2  16    0.23    0.27
   0  -2  16    0.48    0.16
   0  -2 -16    0.22    0.17
   0  -2  16    0.34    0.11
   0  -2 -16    0.00    0.23
   0   2  16    0.51    0.41
   0   2 -16    0.39    0.26
   0   2  16    0.30    0.27
  -1  -2 -16    0.08    0.21
   1  -2  16    0.25    0.11
   1  -2  16    0.05    0.15
   1   2  16   -0.06    0.27
   1   2  16    0.19    0.38
  -1   2 -16    0.09    0.24
   2  -2  16    0.81    0.13
  -2  -2 -16    0.68    0.21
   2  -2  16    0.34    0.18
  -2   2 -16    0.26    0.28
   2   2  16    1.42    0.41
  -3  -2 -16    0.20    0.21
   3  -2  16   -0.24    0.19
   3  -2  16    0.11    0.12
   3   2  16    0.33    0.44
  -3   2 -16    0.21    0.26
   4  -2  16    0.10    0.20
  -4  -2 -16    0.90    0.25
  -4   2 -16   -0.22    0.29
   4   2  16    0.41    0.48
  -5  -3  16   -0.14    0.14
   5  -3 -16    0.67    0.48
  -5  -3  16   -0.55    0.44
  -5   3  16    1.03    0.68
  -5   3  16   -0.57    0.41
   4  -3 -16    0.47    0.39
  -4  -3  16    0.10    0.19
  -4  -3  16    0.17    0.13
  -4  -3  16   -0.30    0.38
  -4   3  16    0.43    0.61
  -4   3  16   -0.08    0.45
  -3  -3  16    1.84    0.28
  -3  -3  16    2.07    0.23
   3  -3 -16    2.11    0.40
   3   3 -16    1.48    0.41
  -3   3  16    2.30    0.45
  -2  -3  16    0.93    0.16
  -2  -3  16    0.85    0.19
   2  -3 -16    1.38    0.32
  -2   3  16    0.33    0.60
   2   3 -16    1.05    0.38
  -2   3  16    1.47    0.41
  -1  -3  16    1.70    0.23
   1  -3 -16    1.64    0.32
  -1  -3  16    2.22    0.28
   1   3 -16    2.91    0.56
  -1   3  16    0.48    0.57
  -1   3  16    2.41    0.42
   0  -3 -16   -0.08    0.25
   0  -3  16    0.21    0.16
   0  -3  16    0.41    0.13
   0   3 -16    0.46    0.32
   0   3  16    1.27    0.36
   0   3  16   -0.04    0.51
   1  -3  16    0.72    0.15
  -1  -3 -16    0.84    0.28
   1  -3  16    0.49    0.18
  -1   3 -16    0.32    0.32
   1   3  16    1.15    0.54
  -2  -3 -16    0.31    0.25
   2  -3  16    0.50    0.14
   2   3  16    0.20    0.60
  -2   3 -16   -0.27    0.31
   3  -3  16   -0.29    0.20
  -3  -3 -16    0.09    0.25
   3  -3  16    0.27    0.14
   3   3  16    0.08    0.62
  -3   3 -16    0.33    0.36
   7   0 -17    0.08    0.48
  -7   0  17    0.53    0.32
  -6   0  17    4.59    0.56
   6   0 -17    4.97    0.73
  -6   0  17    3.51    0.59
   5   0 -17    1.98    0.48
  -5   0  17    3.02    0.44
  -5   0  17    1.96    0.49
  -4   0  17    0.94    0.35
  -4   0  17    0.93    0.23
  -3   0  17    4.00    0.50
   3   0 -17    4.68    0.59
  -3   0  17    3.55    0.58
  -3   0  17    4.68    0.44
  -2   0  17    3.44    0.52
   2   0 -17    3.35    0.50
   2   0 -17    3.67    0.58
  -2   0  17    2.99    0.42
  -2   0  17    3.26    0.39
   1   0 -17    0.01    0.22
   1   0 -17   -0.17    0.19
  -1   0  17    0.17    0.25
   1   0 -17    0.06    0.30
  -1   0  17    0.01    0.18
   0   0  17    1.16    0.29
   0   0 -17    0.80    0.23
   1   0  17    0.64    0.27
   1   0  17    0.49    0.18
  -2   0 -17    0.24    0.20
  -2   0 -17    0.21    0.18
   2   0  17    0.37    0.20
  -3   0 -17    0.60    0.25
   3   0  17    1.03    0.28
  -3   0 -17    0.49    0.20
   4   0  17    1.11    0.31
  -4   0 -17    0.44    0.23
  -4   0 -17    0.16    0.26
  -7  -1  17    6.61    0.60
   7  -1 -17    4.80    0.93
  -7   1  17    6.83    0.70
  -7   1  17    6.44    1.01
  -6  -1  17    0.94    0.43
  -6  -1  17    1.13    0.43
  -6  -1  17    1.31    0.28
  -6   1  17    1.95    0.36
  -6   1  17    0.48    0.53
   5  -1 -17   -0.30    0.40
  -5  -1  17    0.68    0.34
  -5  -1  17    0.21    0.33
  -5  -1  17    0.23    0.19
  -5   1  17    0.18    0.29
  -5   1  17    0.41    0.49
   5   1 -17    0.11    0.34
  -4  -1  17    0.90    0.21
  -4  -1  17    0.63    0.32
   4  -1 -17    0.71    0.36
  -4  -1  17    0.67    0.30
  -4   1  17    1.07    0.30
  -4   1  17    0.72    0.44
  -3  -1  17    2.43    0.52
  -3  -1  17    2.78    0.33
   3  -1 -17    2.59    0.43
  -3  -1  17    3.16    0.43
  -3   1  17    3.13    0.48
   3   1 -17    2.81    0.38
  -3   1  17    2.45    0.51
  -2  -1  17    3.55    0.32
   2  -1 -17    2.19    0.39
  -2  -1  17    3.34    0.41
  -2   1  17    4.06    0.67
   2   1 -17    2.32    0.49
   2   1 -17    3.43    0.49
  -2   1  17    3.09    0.46
   1  -1 -17    0.03    0.23
  -1  -1  17    0.08    0.20
  -1   1  17    0.39    0.34
   1   1 -17    0.05    0.22
   1   1 -17    0.35    0.23
  -1   1  17    0.23    0.22
   0  -1  17    0.73    0.16
   0  -1  17    0.82    0.21
   0   1 -17    0.95    0.22
   0   1  17    0.97    0.26
   0   1 -17    0.85    0.27
   0   1  17    0.54    0.35
   1  -1  17    0.61    0.16
  -1  -1 -17    0.35    0.21
   1  -1  17    0.58    0.23
   1   1  17    0.85    0.36
   1   1  17    0.53    0.25
  -2  -1 -17    0.15    0.19
   2  -1  17   -0.32    0.22
   2  -1  17    0.29    0.15
  -2   1 -17   -0.27    0.24
  -2   1 -17    0.16    0.18
   2   1  17    0.25    0.34
   3  -1  17    0.12    0.23
  -3  -1 -17   -0.04    0.21
   3   1  17    0.68    0.37
  -3   1 -17   -0.14    0.18
   4  -1  17    0.62    0.24
  -4  -1 -17    0.59    0.25
   4   1  17    0.24    0.38
  -4   1 -17   -0.11    0.28
   6  -2 -17    0.97    0.55
  -6  -2  17    1.48    0.48
  -6   2  17    1.61    0.45
  -6   2  17    1.62    0.66
  -5  -2  17    0.94    0.31
  -5  -2  17    1.50    0.46
   5  -2 -17    0.58    0.47
  -5  -2  17    0.84    0.20
  -5   2  17    1.08    0.39
  -5   2  17   -0.37    0.57
   4  -2 -17    0.23    0.40
  -4  -2  17    0.92    0.19
  -4  -2  17    0.77    0.27
  -4  -2  17    1.52    0.43
  -4   2  17    0.19    0.58
  -4   2  17    1.18    0.37
  -3  -2  17    0.22    0.20
   3  -2 -17    0.38    0.33
  -3  -2  17    0.32    0.15
  -3   2  17    0.76    0.34
   3   2 -17    0.67    0.32
  -3   2  17   -0.29    0.50
   2  -2 -17    0.56    0.29
  -2  -2  17    0.83    0.22
  -2  -2  17    0.76    0.17
   2   2 -17    0.84    0.32
  -2   2  17    1.40    0.50
  -2   2  17    0.73    0.35
   1  -2 -17    3.41    0.51
  -1  -2  17    2.37    0.25
  -1  -2  17    2.81    0.34
   1   2 -17    3.59    0.54
  -1   2  17    3.24    0.54
  -1   2  17    2.91    0.64
   0  -2  17    0.41    0.14
   0  -2  17   -0.02    0.18
   0  -2 -17    0.15    0.26
   0   2 -17    0.74    0.30
   0   2  17   -0.22    0.45
   1  -2  17    0.09    0.18
   1  -2  17    0.18    0.13
  -1  -2 -17   -0.09    0.23
  -1   2 -17    0.25    0.28
   1   2  17    0.09    0.42
   2  -2  17    0.60    0.19
  -2  -2 -17    0.26    0.22
   2  -2  17    0.35    0.14
   2   2  17    0.93    0.49
  -2   2 -17    0.36    0.29
  -3  -2 -17   -0.07    0.23
   3  -2  17    0.11    0.21
  -3   2 -17    1.00    0.32
   3   2  17    0.39    0.47
   4  -3 -17    0.43    0.43
  -4  -3  17   -0.29    0.44
  -4  -3  17    0.31    0.23
  -4  -3  17   -0.11    0.15
  -4   3  17   -0.46    0.46
  -4   3  17    0.53    0.66
  -3  -3  17    0.14    0.20
   3  -3 -17   -0.03    0.38
  -3  -3  17   -0.17    0.13
  -3   3  17   -0.50    0.59
   3   3 -17    0.49    0.42
  -3   3  17    1.20    0.44
   2  -3 -17    0.57    0.34
  -2  -3  17    0.96    0.21
  -2  -3  17    1.03    0.17
   2   3 -17    0.97    0.41
  -2   3  17    1.44    0.43
   1  -3 -17    0.62    0.31
  -1  -3  17    0.26    0.19
   1   3 -17    0.87    0.37
  -1   3  17    0.74    0.61
  -1   3  17    1.22    0.43
   0  -3  17    0.27    0.19
   0  -3  17    0.05    0.15
   0  -3 -17    0.24    0.28
   0   3 -17    0.11    0.37
   0   3  17   -0.90    0.62
   1  -3  17    0.23    0.19
   1  -3  17    0.02    0.14
  -1  -3 -17    0.77    0.29
  -1   3 -17    0.13    0.34
  -6   0  18    0.29    0.53
   6   0 -18    1.37    0.46
  -6   0  18    1.19    0.34
  -5   0  18   -0.62    0.47
  -5   0  18    0.30    0.29
   5   0 -18   -0.24    0.41
  -4   0  18    1.52    0.44
   4   0 -18    1.29    0.42
  -4   0  18    2.13    0.33
   3   0 -18    4.87    0.66
  -3   0  18    3.92    0.48
  -3   0  18    3.28    0.64
  -2   0  18    0.25    0.34
  -2   0  18    0.58    0.22
  -1   0  18    0.00    0.30
  -1   0  18    0.24    0.21
   0   0  18    2.62    0.41
   0   0  18    2.59    0.51
   0   0 -18    3.04    0.46
   1   0  18   -0.17    0.31
  -1   0 -18   -0.30    0.25
   2   0  18    0.44    0.33
  -2   0 -18   -0.06    0.22
   3   0  18    1.02    0.35
  -3   0 -18    0.37    0.23
  -6  -1  18    1.25    0.28
  -6   1  18    0.87    0.39
  -5  -1  18    4.75    0.69
   5  -1 -18    2.83    0.57
  -5  -1  18    4.27    0.47
  -5   1  18    3.41    0.67
  -5   1  18    3.95    0.60
  -4  -1  18    2.05    0.40
  -4  -1  18    2.41    0.37
   4  -1 -18    2.02    0.48
  -4  -1  18    2.23    0.43
  -4   1  18    1.52    0.55
  -4   1  18    1.62    0.38
  -3  -1  18    0.21    0.30
   3  -1 -18    0.15    0.35
  -3  -1  18    0.24    0.30
  -3  -1  18    0.18    0.20
  -3   1  18    0.24    0.28
  -3   1  18    0.13    0.44
   2  -1 -18    0.91    0.34
  -2  -1  18    1.43    0.24
  -2  -1  18    1.23    0.31
   2   1 -18    1.54    0.34
  -2   1  18    1.61    0.46
  -2   1  18    1.69    0.33
  -1  -1  18    1.23    0.23
  -1  -1  18    2.16    0.40
   1  -1 -18    1.35    0.31
  -1   1  18    1.10    0.30
  -1   1  18    1.86    0.43
   1   1 -18    1.26    0.32
   0  -1  18    0.40    0.25
   0  -1  18    0.72    0.20
   0  -1 -18    0.95    0.28
   0   1  18    0.64    0.41
   0   1  18    0.47    0.30
   1  -1  18    0.11    0.24
  -1  -1 -18    0.48    0.26
   1  -1  18    0.22    0.19
   1   1  18    0.23    0.40
  -1   1 -18   -0.23    0.27
   2  -1  18    0.32    0.27
  -2  -1 -18    0.03    0.23
   2   1  18    0.50    0.41
  -2   1 -18    0.59    0.30
  -3  -1 -18    0.22    0.24
  -4  -2  18    0.34    0.19
  -4  -2  18   -0.26    0.39
   4  -2 -18    0.07    0.43
  -4  -2  18    0.31    0.31
  -4   2  18    0.47    0.41
  -3  -2  18    0.51    0.24
  -3  -2  18    0.31    0.17
  -3  -2  18    0.83    0.38
   3  -2 -18    0.17    0.38
  -3   2  18   -0.30    0.59
  -3   2  18   -0.21    0.37
  -2  -2  18    0.29    0.17
  -2  -2  18    0.37    0.22
   2  -2 -18    0.45    0.37
  -2   2  18    1.19    0.57
   2   2 -18    0.22    0.35
  -2   2  18    0.33    0.36
  -1  -2  18   -0.07    0.23
   1  -2 -18   -0.22    0.30
  -1  -2  18   -0.13    0.15
  -1   2  18   -0.59    0.54
  -1   2  18   -0.05    0.32
   1   2 -18    0.68    0.33
   0  -2 -18    0.14    0.29
   0  -2  18   -0.12    0.22
   0   2 -18   -0.49    0.32
   0   2  18    0.71    0.35
   0   2  18   -0.41    0.51
   1  -2  18   -0.13    0.15
  -1  -2 -18    0.36    0.28
   1  -2  18    0.14    0.23
  -1   2 -18    0.16    0.33
   1   2  18    0.44    0.52
  -4   0  19    1.51    0.50
   4   0 -19    1.54    0.47
  -4   0  19    1.10    0.34
  -3   0  19    1.66    0.34
  -3   0  19    1.78    0.47
   3   0 -19    2.37    0.46
  -2   0  19    0.90    0.29
  -2   0  19    0.22    0.41
   2   0 -19    0.72    0.35
  -1   0  19    2.22    0.37
   1   0 -19    1.68    0.37
  -1   0  19    2.59    0.48
   0   0  19   -0.13    0.27
   0   0 -19    0.44    0.28
   0   0  19    0.58    0.37
  -1   0 -19    0.98    0.31
   1   0  19    0.97    0.39
   4  -1 -19    2.85    0.53
  -4  -1  19    2.10    0.50
  -4  -1  19    2.95    0.45
  -4   1  19    2.58    0.69
  -4   1  19    2.60    0.45
  -3  -1  19    0.97    0.26
  -3  -1  19    0.67    0.36
   3  -1 -19    1.09    0.42
  -3   1  19    1.02    0.35
  -3   1  19   -0.01    0.53
   2  -1 -19    0.73    0.36
  -2  -1  19    0.58    0.32
  -2   1  19    0.50    0.50
  -2   1  19    0.58    0.33
  -1  -1  19   -0.04    0.22
   1  -1 -19   -0.02    0.32
  -1  -1  19    0.48    0.31
  -1   1  19    0.93    0.46
  -1   1  19    0.52    0.33
   0  -1 -19    2.01    0.35
   0  -1  19    1.34    0.27
   0   1  19    1.78    0.37
   0   1  19    1.46    0.50
   1  -1  19   -0.05    0.29
   0   0   0    0.00    0.00
;
_shelx_hkl_checksum              82370
loop_
_space_group_symop_operation_xyz
'x, y, z'
'-x, y+1/2, -z'
loop_
_atom_site_label
_atom_site_type_symbol
_atom_site_fract_x
_atom_site_fract_y
_atom_site_fract_z
_atom_site_U_iso_or_equiv
_atom_site_adp_type
_atom_site_occupancy
_atom_site_site_symmetry_order
_atom_site_calc_flag
_atom_site_refinement_flags_posn
_atom_site_refinement_flags_adp
_atom_site_refinement_flags_occupancy
_atom_site_disorder_assembly
_atom_site_disorder_group
O1A O 0.89177(19) 0.5944(5) 0.07632(14) 0.0418(5) Uani 1 1 d . U . . .
O2A O 0.8256(2) 0.9592(4) 0.13355(16) 0.0466(6) Uani 1 1 d . U . . .
N1A N 0.6410(2) 0.3718(5) 0.07069(17) 0.0370(6) Uani 1 1 d . U . . .
H1A H 0.6496 0.4071 0.0149 0.055 Uiso 1 1 calc R U . A 1
H2A H 0.5554 0.3061 0.0739 0.055 Uiso 1 1 calc R U . A 1
H3A H 0.7070 0.2584 0.0917 0.055 Uiso 1 1 calc R U . A 1
C1A C 0.8057(3) 0.7320(6) 0.10913(19) 0.0344(6) Uani 1 1 d . U . . .
C21A C 0.6590(4) 0.6110(9) 0.1233(2) 0.0320(7) Uani 0.830(4) 1 d D U P B 1
H21A H 0.5820 0.7317 0.1039 0.038 Uiso 0.830(4) 1 calc R U P B 1
C31A C 0.6600(4) 0.5467(8) 0.2208(2) 0.0416(9) Uani 0.830(4) 1 d D U P B 1
H31A H 0.5842 0.4259 0.2271 0.050 Uiso 0.830(4) 1 calc R U P B 1
H32A H 0.7492 0.4646 0.2430 0.050 Uiso 0.830(4) 1 calc R U P B 1
C41A C 0.6412(7) 0.7829(9) 0.2746(3) 0.0657(12) Uani 0.830(4) 1 d D U P B 1
H41A H 0.5582 0.8771 0.2483 0.079 Uiso 0.830(4) 1 calc R U P B 1
H42A H 0.7231 0.8941 0.2748 0.079 Uiso 0.830(4) 1 calc R U P B 1
S11A S 0.6204(3) 0.6978(4) 0.38544(11) 0.0940(7) Uani 0.830(4) 1 d D U P B 1
C51A C 0.5935(11) 0.9918(13) 0.4318(4) 0.135(3) Uani 0.830(4) 1 d D U P B 1
H51A H 0.5788 0.9682 0.4920 0.202 Uiso 0.830(4) 1 calc R U P B 1
H52A H 0.5115 1.0726 0.4000 0.202 Uiso 0.830(4) 1 calc R U P B 1
H53A H 0.6751 1.0990 0.4294 0.202 Uiso 0.830(4) 1 calc R U P B 1
C22A C 0.6855(18) 0.606(4) 0.1224(6) 0.0320(7) Uani 0.170(4) 1 d D U P B 2
H22A H 0.6145 0.7277 0.0950 0.038 Uiso 0.170(4) 1 calc R U P B 2
C32A C 0.6285(16) 0.563(2) 0.2101(6) 0.0416(9) Uani 0.170(4) 1 d D U P B 2
H33A H 0.5337 0.4908 0.1990 0.050 Uiso 0.170(4) 1 calc R U P B 2
H34A H 0.6884 0.4390 0.2450 0.050 Uiso 0.170(4) 1 calc R U P B 2
C42A C 0.6242(17) 0.809(2) 0.2612(6) 0.0657(12) Uani 0.170(4) 1 d D U P B 2
H43A H 0.5655 0.9334 0.2262 0.079 Uiso 0.170(4) 1 calc R U P B 2
H44A H 0.7193 0.8788 0.2737 0.079 Uiso 0.170(4) 1 calc R U P B 2
S12A S 0.5542(12) 0.7534(15) 0.3625(5) 0.0940(7) Uani 0.170(4) 1 d D U P B 2
C52A C 0.560(3) 1.056(2) 0.4084(10) 0.135(3) Uani 0.170(4) 1 d D U P B 2
H54A H 0.5168 1.0521 0.4614 0.202 Uiso 0.170(4) 1 calc R U P B 2
H55A H 0.5105 1.1748 0.3676 0.202 Uiso 0.170(4) 1 calc R U P B 2
H56A H 0.6575 1.1093 0.4220 0.202 Uiso 0.170(4) 1 calc R U P B 2
O1B O 0.3754(2) 0.1865(5) 0.08297(15) 0.0433(5) Uani 1 1 d . U . . .
O2B O 0.3123(2) 0.5806(5) 0.1155(2) 0.0606(7) Uani 1 1 d . U . . .
N1B N 0.1167(2) 0.0000(5) 0.10194(18) 0.0428(6) Uani 1 1 d . U . . .
H1B H 0.1001 0.0414 0.0452 0.064 Uiso 1 1 calc R U . C 1
H2B H 0.0368 -0.0560 0.1199 0.064 Uiso 1 1 calc R U . C 1
H3B H 0.1820 -0.1235 0.1096 0.064 Uiso 1 1 calc R U . C 1
C1B C 0.2943(3) 0.3465(6) 0.1118(2) 0.0376(7) Uani 1 1 d . U . . .
C21B C 0.1691(7) 0.2330(15) 0.1545(3) 0.0361(8) Uani 0.694(3) 1 d D U P D 1
H21B H 0.0927 0.3607 0.1518 0.043 Uiso 0.694(3) 1 calc R U P D 1
C31B C 0.2101(5) 0.1467(10) 0.2497(3) 0.0511(12) Uani 0.694(3) 1 d D U P D 1
H31B H 0.1361 0.0349 0.2660 0.061 Uiso 0.694(3) 1 calc R U P D 1
H32B H 0.2967 0.0465 0.2534 0.061 Uiso 0.694(3) 1 calc R U P D 1
C41B C 0.2324(5) 0.3653(12) 0.3153(3) 0.0743(17) Uani 0.694(3) 1 d D U P D 1
H41B H 0.2943 0.4921 0.2937 0.089 Uiso 0.694(3) 1 calc R U P D 1
H42B H 0.2803 0.2988 0.3704 0.089 Uiso 0.694(3) 1 calc R U P D 1
S11B S 0.0699(2) 0.5235(4) 0.33585(12) 0.0862(6) Uani 0.694(3) 1 d D U P D 1
C51B C -0.0080(9) 0.2959(16) 0.3985(5) 0.113(3) Uani 0.694(3) 1 d D U P D 1
H51B H -0.0951 0.3636 0.4143 0.170 Uiso 0.694(3) 1 calc R U P D 1
H52B H 0.0556 0.2578 0.4509 0.170 Uiso 0.694(3) 1 calc R U P D 1
H53B H -0.0273 0.1412 0.3648 0.170 Uiso 0.694(3) 1 calc R U P D 1
C22B C 0.171(2) 0.234(8) 0.1503(6) 0.0361(8) Uani 0.114(3) 1 d D U P D 2
H22B H 0.0945 0.3621 0.1485 0.043 Uiso 0.114(3) 1 calc R U P D 2
C32B C 0.2358(11) 0.188(4) 0.2456(6) 0.0511(12) Uani 0.114(3) 1 d D U P D 2
H33B H 0.3063 0.0525 0.2466 0.061 Uiso 0.114(3) 1 calc R U P D 2
H34B H 0.2843 0.3433 0.2679 0.061 Uiso 0.114(3) 1 calc R U P D 2
C42B C 0.1296(12) 0.1128(19) 0.3064(7) 0.072(5) Uiso 0.114(3) 1 d D U P D 2
H43B H 0.1805 0.0433 0.3602 0.087 Uiso 0.114(3) 1 calc R U P D 2
H44B H 0.0692 -0.0226 0.2787 0.087 Uiso 0.114(3) 1 calc R U P D 2
S12B S 0.0187(10) 0.377(2) 0.3340(8) 0.114(3) Uiso 0.114(3) 1 d D U P D 2
C52B C 0.1383(19) 0.569(3) 0.4020(12) 0.124(12) Uiso 0.114(3) 1 d D U P D 2
H54B H 0.0886 0.7124 0.4232 0.185 Uiso 0.114(3) 1 calc R U P D 2
H55B H 0.2103 0.6322 0.3691 0.185 Uiso 0.114(3) 1 calc R U P D 2
H56B H 0.1816 0.4693 0.4509 0.185 Uiso 0.114(3) 1 calc R U P D 2
C23B C 0.155(4) 0.219(4) 0.1306(5) 0.0361(8) Uani 0.115(2) 1 d D U P D 3
H23B H 0.0780 0.3396 0.1118 0.043 Uiso 0.115(2) 1 calc R U P D 3
C33B C 0.167(3) 0.195(2) 0.2306(5) 0.0511(12) Uani 0.115(2) 1 d D U P D 3
H35B H 0.0957 0.0749 0.2450 0.061 Uiso 0.115(2) 1 calc R U P D 3
H36B H 0.2594 0.1220 0.2523 0.061 Uiso 0.115(2) 1 calc R U P D 3
C43B C 0.150(2) 0.446(2) 0.2779(5) 0.072(5) Uiso 0.115(2) 1 d D U P D 3
H45B H 0.0576 0.5171 0.2571 0.087 Uiso 0.115(2) 1 calc R U P D 3
H46B H 0.2209 0.5670 0.2627 0.087 Uiso 0.115(2) 1 calc R U P D 3
S13B S 0.1680(12) 0.417(2) 0.3968(4) 0.114(3) Uiso 0.115(2) 1 d D U P D 3
C53B C 0.0257(15) 0.216(4) 0.4128(12) 0.124(12) Uiso 0.115(2) 1 d D U P D 3
H57B H 0.0269 0.1840 0.4745 0.185 Uiso 0.115(2) 1 calc R U P D 3
H58B H 0.0341 0.0560 0.3826 0.185 Uiso 0.115(2) 1 calc R U P D 3
H59B H -0.0618 0.2984 0.3899 0.185 Uiso 0.115(2) 1 calc R U P D 3
C24B C 0.172(3) 0.261(12) 0.1398(5) 0.0361(8) Uani 0.076(2) 1 d D U P D 4
H24B H 0.0979 0.3888 0.1218 0.043 Uiso 0.076(2) 1 calc R U P D 4
C34B C 0.2003(13) 0.266(7) 0.2403(5) 0.0511(12) Uani 0.076(2) 1 d D U P D 4
H37B H 0.2784 0.1505 0.2594 0.061 Uiso 0.076(2) 1 calc R U P D 4
H38B H 0.2298 0.4386 0.2589 0.061 Uiso 0.076(2) 1 calc R U P D 4
C44B C 0.0744(13) 0.190(3) 0.2855(5) 0.072(5) Uiso 0.076(2) 1 d D U P D 4
H47B H 0.0608 0.0058 0.2800 0.087 Uiso 0.076(2) 1 calc R U P D 4
H48B H -0.0099 0.2731 0.2554 0.087 Uiso 0.076(2) 1 calc R U P D 4
S14B S 0.0926(19) 0.2762(19) 0.4011(5) 0.114(3) Uiso 0.076(2) 1 d D U P D 4
C54B C 0.061(5) 0.608(2) 0.3979(14) 0.124(12) Uiso 0.076(2) 1 d D U P D 4
H60B H 0.0702 0.6746 0.4568 0.185 Uiso 0.076(2) 1 calc R U P D 4
H61B H -0.0328 0.6411 0.3689 0.185 Uiso 0.076(2) 1 calc R U P D 4
H62B H 0.1290 0.6912 0.3662 0.185 Uiso 0.076(2) 1 calc R U P D 4
loop_
_atom_site_aniso_label
_atom_site_aniso_U_11
_atom_site_aniso_U_22
_atom_site_aniso_U_33
_atom_site_aniso_U_23
_atom_site_aniso_U_13
_atom_site_aniso_U_12
O1A 0.0238(9) 0.0440(12) 0.0591(13) -0.0018(11) 0.0115(9) -0.0022(9)
O2A 0.0352(10) 0.0326(12) 0.0741(15) -0.0044(11) 0.0145(10) -0.0101(10)
N1A 0.0248(11) 0.0325(12) 0.0551(14) 0.0006(12) 0.0103(10) -0.0073(10)
C1A 0.0260(12) 0.0338(16) 0.0439(15) 0.0044(13) 0.0060(11) -0.0046(12)
C21A 0.0175(16) 0.0284(14) 0.0516(16) -0.0012(13) 0.0100(12) -0.0021(13)
C31A 0.0343(19) 0.0413(18) 0.0507(18) 0.0063(15) 0.0108(15) -0.0061(15)
C41A 0.093(3) 0.052(2) 0.058(2) 0.0010(19) 0.031(2) -0.002(2)
S11A 0.1629(18) 0.0671(9) 0.0614(8) 0.0099(8) 0.0494(9) 0.0108(11)
C51A 0.251(9) 0.092(5) 0.071(4) 0.005(4) 0.057(5) 0.050(6)
C22A 0.0175(16) 0.0284(14) 0.0516(16) -0.0012(13) 0.0100(12) -0.0021(13)
C32A 0.0343(19) 0.0413(18) 0.0507(18) 0.0063(15) 0.0108(15) -0.0061(15)
C42A 0.093(3) 0.052(2) 0.058(2) 0.0010(19) 0.031(2) -0.002(2)
S12A 0.1629(18) 0.0671(9) 0.0614(8) 0.0099(8) 0.0494(9) 0.0108(11)
C52A 0.251(9) 0.092(5) 0.071(4) 0.005(4) 0.057(5) 0.050(6)
O1B 0.0277(9) 0.0361(11) 0.0694(13) -0.0099(11) 0.0186(9) -0.0103(9)
O2B 0.0433(12) 0.0288(12) 0.113(2) -0.0010(13) 0.0208(13) -0.0066(10)
N1B 0.0288(11) 0.0419(15) 0.0589(15) 0.0073(13) 0.0103(11) -0.0115(11)
C1B 0.0251(13) 0.0317(15) 0.0565(18) -0.0002(14) 0.0077(12) -0.0047(12)
C21B 0.0282(13) 0.0361(17) 0.0453(15) -0.0005(15) 0.0098(14) 0.0003(12)
C31B 0.048(3) 0.056(3) 0.0513(19) 0.006(2) 0.0157(17) 0.003(2)
C41B 0.075(4) 0.090(4) 0.058(3) -0.011(3) 0.013(3) -0.016(4)
S11B 0.1221(15) 0.0645(11) 0.0792(11) -0.0106(9) 0.0397(10) 0.0152(10)
C51B 0.110(6) 0.124(8) 0.114(6) 0.029(6) 0.048(5) 0.012(5)
C22B 0.0282(13) 0.0361(17) 0.0453(15) -0.0005(15) 0.0098(14) 0.0003(12)
C32B 0.048(3) 0.056(3) 0.0513(19) 0.006(2) 0.0157(17) 0.003(2)
C23B 0.0282(13) 0.0361(17) 0.0453(15) -0.0005(15) 0.0098(14) 0.0003(12)
C33B 0.048(3) 0.056(3) 0.0513(19) 0.006(2) 0.0157(17) 0.003(2)
C24B 0.0282(13) 0.0361(17) 0.0453(15) -0.0005(15) 0.0098(14) 0.0003(12)
C34B 0.048(3) 0.056(3) 0.0513(19) 0.006(2) 0.0157(17) 0.003(2)
loop_
_atom_type_symbol
_atom_type_description
_atom_type_scat_dispersion_real
_atom_type_scat_dispersion_imag
_atom_type_scat_source
C C 0.0033 0.0016 'International Tables Vol C Tables 4.2.6.8 and 6.1.1.4'
H H 0.0000 0.0000 'International Tables Vol C Tables 4.2.6.8 and 6.1.1.4'
N N 0.0061 0.0033 'International Tables Vol C Tables 4.2.6.8 and 6.1.1.4'
O O 0.0106 0.0060 'International Tables Vol C Tables 4.2.6.8 and 6.1.1.4'
S S 0.1246 0.1234 'International Tables Vol C Tables 4.2.6.8 and 6.1.1.4'
loop_
_geom_angle_atom_site_label_1
_geom_angle_atom_site_label_2
_geom_angle_atom_site_label_3
_geom_angle
C21A N1A H1A 109.5
C21A N1A H2A 109.5
H1A N1A H2A 109.5
C21A N1A H3A 109.5
H1A N1A H3A 109.5
H2A N1A H3A 109.5
O1A C1A O2A 125.8(3)
O1A C1A C22A 113.4(8)
O2A C1A C22A 120.7(7)
O1A C1A C21A 118.1(3)
O2A C1A C21A 116.1(3)
N1A C21A C31A 109.6(3)
N1A C21A C1A 107.5(2)
C31A C21A C1A 109.4(3)
N1A C21A H21A 110.1
C31A C21A H21A 110.1
C1A C21A H21A 110.1
C41A C31A C21A 111.9(3)
C41A C31A H31A 109.2
C21A C31A H31A 109.2
C41A C31A H32A 109.2
C21A C31A H32A 109.2
H31A C31A H32A 107.9
C31A C41A S11A 110.8(3)
C31A C41A H41A 109.5
S11A C41A H41A 109.5
C31A C41A H42A 109.5
S11A C41A H42A 109.5
H41A C41A H42A 108.1
C51A S11A C41A 102.4(3)
S11A C51A H51A 109.5
S11A C51A H52A 109.5
H51A C51A H52A 109.5
S11A C51A H53A 109.5
H51A C51A H53A 109.5
H52A C51A H53A 109.5
C1A C22A N1A 120.1(8)
C1A C22A C32A 127.3(10)
N1A C22A C32A 104.0(10)
C1A C22A H22A 99.7
N1A C22A H22A 99.7
C32A C22A H22A 99.7
C42A C32A C22A 111.8(6)
C42A C32A H33A 109.3
C22A C32A H33A 109.3
C42A C32A H34A 109.3
C22A C32A H34A 109.3
H33A C32A H34A 107.9
C32A C42A S12A 110.8(6)
C32A C42A H43A 109.5
S12A C42A H43A 109.5
C32A C42A H44A 109.5
S12A C42A H44A 109.5
H43A C42A H44A 108.1
C52A S12A C42A 102.3(5)
S12A C52A H54A 109.5
S12A C52A H55A 109.5
H54A C52A H55A 109.5
S12A C52A H56A 109.5
H54A C52A H56A 109.5
H55A C52A H56A 109.5
C21B N1B H1B 109.5
C21B N1B H2B 109.5
H1B N1B H2B 109.5
C21B N1B H3B 109.5
H1B N1B H3B 109.5
H2B N1B H3B 109.5
O2B C1B O1B 125.7(3)
O2B C1B C24B 115(3)
O1B C1B C24B 119(3)
O2B C1B C22B 118.6(15)
O1B C1B C22B 115.6(15)
O2B C1B C23B 122.3(8)
O1B C1B C23B 111.4(8)
O2B C1B C21B 117.9(4)
O1B C1B C21B 116.2(4)
N1B C21B C31B 107.5(5)
N1B C21B C1B 107.4(4)
C31B C21B C1B 113.7(4)
N1B C21B H21B 109.4
C31B C21B H21B 109.4
C1B C21B H21B 109.4
C41B C31B C21B 114.3(5)
C41B C31B H31B 108.7
C21B C31B H31B 108.7
C41B C31B H32B 108.7
C21B C31B H32B 108.7
H31B C31B H32B 107.6
C31B C41B S11B 114.1(3)
C31B C41B H41B 108.7
S11B C41B H41B 108.7
C31B C41B H42B 108.7
S11B C41B H42B 108.7
H41B C41B H42B 107.6
C51B S11B C41B 102.8(3)
S11B C51B H51B 109.5
S11B C51B H52B 109.5
H51B C51B H52B 109.5
S11B C51B H53B 109.5
H51B C51B H53B 109.5
H52B C51B H53B 109.5
N1B C22B C1B 111.0(15)
N1B C22B C32B 115(2)
C1B C22B C32B 101.3(12)
N1B C22B H22B 109.8
C1B C22B H22B 109.8
C32B C22B H22B 109.8
C42B C32B C22B 114.2(8)
C42B C32B H33B 108.7
C22B C32B H33B 108.7
C42B C32B H34B 108.7
C22B C32B H34B 108.7
H33B C32B H34B 107.6
C32B C42B S12B 113.9(6)
C32B C42B H43B 108.8
S12B C42B H43B 108.8
C32B C42B H44B 108.8
S12B C42B H44B 108.8
H43B C42B H44B 107.7
C52B S12B C42B 102.7(5)
S12B C52B H54B 109.5
S12B C52B H55B 109.5
H54B C52B H55B 109.5
S12B C52B H56B 109.5
H54B C52B H56B 109.5
H55B C52B H56B 109.5
N1B C23B C33B 104.7(14)
N1B C23B C1B 122.9(18)
C33B C23B C1B 106(2)
N1B C23B H23B 107.5
C33B C23B H23B 107.5
C1B C23B H23B 107.5
C43B C33B C23B 114.3(7)
C43B C33B H35B 108.7
C23B C33B H35B 108.7
C43B C33B H36B 108.7
C23B C33B H36B 108.7
H35B C33B H36B 107.6
C33B C43B S13B 114.1(6)
C33B C43B H45B 108.7
S13B C43B H45B 108.7
C33B C43B H46B 108.7
S13B C43B H46B 108.7
H45B C43B H46B 107.6
C53B S13B C43B 102.7(5)
S13B C53B H57B 109.5
S13B C53B H58B 109.5
H57B C53B H58B 109.5
S13B C53B H59B 109.5
H57B C53B H59B 109.5
H58B C53B H59B 109.5
C1B C24B C34B 105.3(12)
C1B C24B N1B 115(3)
C34B C24B N1B 114(3)
C1B C24B H24B 107.3
C34B C24B H24B 107.3
N1B C24B H24B 107.3
C44B C34B C24B 114.2(8)
C44B C34B H37B 108.7
C24B C34B H37B 108.7
C44B C34B H38B 108.7
C24B C34B H38B 108.7
H37B C34B H38B 107.6
C34B C44B S14B 113.9(6)
C34B C44B H47B 108.8
S14B C44B H47B 108.8
C34B C44B H48B 108.8
S14B C44B H48B 108.8
H47B C44B H48B 107.7
C54B S14B C44B 102.7(5)
S14B C54B H60B 109.5
S14B C54B H61B 109.5
H60B C54B H61B 109.5
S14B C54B H62B 109.5
H60B C54B H62B 109.5
H61B C54B H62B 109.5
loop_
_geom_bond_atom_site_label_1
_geom_bond_atom_site_label_2
_geom_bond_distance
O1A C1A 1.243(4)
O2A C1A 1.245(4)
N1A C21A 1.479(5)
N1A C22A 1.481(18)
N1A H1A 0.8900
N1A H2A 0.8900
N1A H3A 0.8900
C1A C22A 1.357(18)
C1A C21A 1.571(4)
C21A C31A 1.532(4)
C21A H21A 0.9800
C31A C41A 1.502(5)
C31A H31A 0.9700
C31A H32A 0.9700
C41A S11A 1.793(4)
C41A H41A 0.9700
C41A H42A 0.9700
S11A C51A 1.718(6)
C51A H51A 0.9600
C51A H52A 0.9600
C51A H53A 0.9600
C22A C32A 1.532(6)
C22A H22A 0.9800
C32A C42A 1.502(7)
C32A H33A 0.9700
C32A H34A 0.9700
C42A S12A 1.793(6)
C42A H43A 0.9700
C42A H44A 0.9700
S12A C52A 1.719(8)
C52A H54A 0.9600
C52A H55A 0.9600
C52A H56A 0.9600
O1B C1B 1.254(4)
O2B C1B 1.228(4)
N1B C23B 1.26(2)
N1B C22B 1.48(4)
N1B C21B 1.502(8)
N1B C24B 1.54(5)
N1B H1B 0.8900
N1B H2B 0.8900
N1B H3B 0.8900
C1B C24B 1.37(2)
C1B C22B 1.50(2)
C1B C23B 1.54(3)
C1B C21B 1.550(7)
C21B C31B 1.528(5)
C21B H21B 0.9800
C31B C41B 1.513(6)
C31B H31B 0.9700
C31B H32B 0.9700
C41B S11B 1.815(5)
C41B H41B 0.9700
C41B H42B 0.9700
S11B C51B 1.750(7)
C51B H51B 0.9600
C51B H52B 0.9600
C51B H53B 0.9600
C22B C32B 1.529(6)
C22B H22B 0.9800
C32B C42B 1.514(8)
C32B H33B 0.9700
C32B H34B 0.9700
C42B S12B 1.815(7)
C42B H43B 0.9700
C42B H44B 0.9700
S12B C52B 1.750(8)
C52B H54B 0.9600
C52B H55B 0.9600
C52B H56B 0.9600
C23B C33B 1.529(6)
C23B H23B 0.9800
C33B C43B 1.514(8)
C33B H35B 0.9700
C33B H36B 0.9700
C43B S13B 1.815(6)
C43B H45B 0.9700
C43B H46B 0.9700
S13B C53B 1.750(8)
C53B H57B 0.9600
C53B H58B 0.9600
C53B H59B 0.9600
C24B C34B 1.529(6)
C24B H24B 0.9800
C34B C44B 1.514(8)
C34B H37B 0.9700
C34B H38B 0.9700
C44B S14B 1.815(7)
C44B H47B 0.9700
C44B H48B 0.9700
S14B C54B 1.750(8)
C54B H60B 0.9600
C54B H61B 0.9600
C54B H62B 0.9600
loop_
_geom_hbond_atom_site_label_D
_geom_hbond_atom_site_label_H
_geom_hbond_atom_site_label_A
_geom_hbond_distance_DH
_geom_hbond_distance_HA
_geom_hbond_distance_DA
_geom_hbond_angle_DHA
_geom_hbond_site_symmetry_A
N1A H1A O1B 0.89 2.08 2.856(3) 145.3 2_655
N1A H2A O1B 0.89 1.84 2.732(3) 176.9 .
N1A H3A O2A 0.89 1.98 2.856(3) 169.4 1_545
N1B H1B O1A 0.89 1.90 2.769(3) 166.3 2_645
N1B H2B O2A 0.89 2.05 2.881(3) 155.2 1_445
N1B H2B O1A 0.89 2.32 2.991(3) 131.6 1_445
N1B H3B O2B 0.89 1.97 2.854(4) 173.1 1_545
C21B H21B O1A 0.98 2.42 3.328(7) 153.0 1_455
loop_
_geom_torsion_atom_site_label_1
_geom_torsion_atom_site_label_2
_geom_torsion_atom_site_label_3
_geom_torsion_atom_site_label_4
_geom_torsion
O1A C1A C21A N1A -15.4(4)
O2A C1A C21A N1A 165.7(3)
O1A C1A C21A C31A 103.6(3)
O2A C1A C21A C31A -75.4(4)
N1A C21A C31A C41A -165.6(3)
C1A C21A C31A C41A 76.7(4)
C21A C31A C41A S11A 172.7(3)
C31A C41A S11A C51A -177.6(5)
O1A C1A C22A N1A -23.0(14)
O2A C1A C22A N1A 161.0(9)
O1A C1A C22A C32A 119.6(13)
O2A C1A C22A C32A -56.5(17)
C1A C22A C32A C42A 50(2)
N1A C22A C32A C42A -162.9(11)
C22A C32A C42A S12A 178.9(9)
C32A C42A S12A C52A 179.7(8)
O2B C1B C21B N1B 148.2(4)
O1B C1B C21B N1B -37.6(5)
O2B C1B C21B C31B -93.0(6)
O1B C1B C21B C31B 81.2(6)
N1B C21B C31B C41B -166.4(4)
C1B C21B C31B C41B 74.9(6)
C21B C31B C41B S11B 72.6(6)
C31B C41B S11B C51B 72.7(5)
O2B C1B C22B N1B 148.8(13)
O1B C1B C22B N1B -35.2(15)
O2B C1B C22B C32B -89(2)
O1B C1B C22B C32B 87(2)
N1B C22B C32B C42B -70(2)
C1B C22B C32B C42B 170.7(16)
C22B C32B C42B S12B -74(2)
C32B C42B S12B C52B -70.1(13)
O2B C1B C23B N1B 157.2(12)
O1B C1B C23B N1B -14.8(17)
O2B C1B C23B C33B -82.9(13)
O1B C1B C23B C33B 105.0(10)
N1B C23B C33B C43B -155(2)
C1B C23B C33B C43B 74(3)
C23B C33B C43B S13B -179(2)
C33B C43B S13B C53B -63(2)
O2B C1B C24B C34B -78(4)
O1B C1B C24B C34B 104(3)
O2B C1B C24B N1B 156(2)
O1B C1B C24B N1B -22(3)
C1B C24B C34B C44B 177(3)
N1B C24B C34B C44B -56(4)
C24B C34B C44B S14B -165(3)
C34B C44B S14B C54B 76(3)
