#------------------------------------------------------------------------------
#$Date: 2016-08-07 12:45:03 +0300 (Sun, 07 Aug 2016) $
#$Revision: 185679 $
#$URL: file:///home/coder/svn-repositories/cod/cif/1/54/32/1543210.cif $
#------------------------------------------------------------------------------
#
# This file is available in the Crystallography Open Database (COD),
# http://www.crystallography.net/
#
# All data on this site have been placed in the public domain by the
# contributors.
#
data_1543210
loop_
_publ_author_name
'Conboy, Gary'
'Spencer, Howard J.'
'Angioni, Enrico'
'Kanibolotsky, Alexander L.'
'Findlay, Neil J.'
'Coles, Simon J.'
'Wilson, Claire'
'Pitak, Mateusz B.'
'Risko, Chad'
'Coropceanu, Veaceslav'
'Br\'edas, Jean-Luc'
'Skabara, Peter J.'
_publ_section_title
;
 To bend or not to bend -- are heteroatom interactions within conjugated
 molecules effective in dictating conformation and planarity?
;
_journal_issue                   4
_journal_name_full               'Mater. Horiz.'
_journal_page_first              333
_journal_paper_doi               10.1039/C6MH00051G
_journal_volume                  3
_journal_year                    2016
_chemical_formula_moiety         'C36 H36 N2 O2 S2'
_chemical_formula_sum            'C36 H36 N2 O2 S2'
_chemical_formula_weight         592.79
_space_group_crystal_system      monoclinic
_space_group_IT_number           14
_space_group_name_Hall           '-P 2ybc'
_space_group_name_H-M_alt        'P 1 21/c 1'
_symmetry_space_group_name_Hall  '-P 2ybc'
_symmetry_space_group_name_H-M   'P 1 21/c 1'
_atom_sites_solution_hydrogens   geom
_audit_creation_date             2015-12-07
_audit_creation_method
;
Olex2 1.2
(compiled 2015.09.30 svn.r3233 for OlexSys, GUI svn.r5103)
;
_audit_update_record
;
2015-12-07 deposited with the CCDC.
2016-04-26 downloaded from the CCDC.
;
_cell_angle_alpha                90
_cell_angle_beta                 111.280(14)
_cell_angle_gamma                90
_cell_formula_units_Z            2
_cell_length_a                   14.575(19)
_cell_length_b                   7.664(9)
_cell_length_c                   14.393(19)
_cell_measurement_reflns_used    3083
_cell_measurement_temperature    100(2)
_cell_measurement_theta_max      26.6
_cell_measurement_theta_min      2.4
_cell_volume                     1498(3)
_computing_cell_refinement
'CrystalClear-SM Expert 3.1 b21 (Rigaku, 20112)'
_computing_data_collection
'CrystalClear-SM Expert 3.1 b21 (Rigaku, 20112)'
_computing_data_reduction
'CrystalClear-SM Expert 3.1 b21 (Rigaku, 20112)'
_computing_molecular_graphics    'Olex2 (Dolomanov et al., 2009)'
_computing_publication_material  'Olex2 (Dolomanov et al., 2009)'
_computing_structure_refinement  'ShelXL (Sheldrick, 2015)'
_computing_structure_solution
;
Superflip (Palatinus & Chapuis, 2007;Palatinus & van der Lee, 2008;
Palatinus et al., 2012)
;
_diffrn_ambient_temperature      100(2)
_diffrn_detector                 'CCD plate'
_diffrn_detector_area_resol_mean 28.5714
_diffrn_detector_type            'Rigaku Saturn724+ (2x2 bin mode)'
_diffrn_measured_fraction_theta_full 0.994
_diffrn_measured_fraction_theta_max 0.989
_diffrn_measurement_details
;
scan:
    Number of images: 175
               Slice: -60.0000 - 115.0000
         Image width: 1.0000
            Exp time: 2.0000
       Rotation axis: Omega
               Omega: 0.0000
               Kappa: 0.0000
                 Phi: 0.0000
                 XTD: 59.6885
              2theta: 30.1106
scan:
    Number of images: 120
               Slice: -60.0000 - 60.0000
         Image width: 1.0000
            Exp time: 2.0000
       Rotation axis: Omega
               Omega: 0.0000
               Kappa: -50.0000
                 Phi: 0.0000
                 XTD: 59.6885
              2theta: 30.1106
scan:
    Number of images: 120
               Slice: -60.0000 - 60.0000
         Image width: 1.0000
            Exp time: 2.0000
       Rotation axis: Omega
               Omega: 0.0000
               Kappa: -50.0000
                 Phi: 120.0000
                 XTD: 59.6885
              2theta: 30.1106
scan:
    Number of images: 120
               Slice: -60.0000 - 60.0000
         Image width: 1.0000
            Exp time: 2.0000
       Rotation axis: Omega
               Omega: 0.0000
               Kappa: -50.0000
                 Phi: 240.0000
                 XTD: 59.6885
              2theta: 30.1106
;
_diffrn_measurement_device       'four-circle \k goniometer'
_diffrn_measurement_device_type  CrystalLogic
_diffrn_measurement_method       'profile data from \w-scans'
_diffrn_measurement_specimen_support 'MiTeGen MicroLoop'
_diffrn_orient_matrix_type       d*Trek
_diffrn_orient_matrix_UB_11      0.021616
_diffrn_orient_matrix_UB_12      -0.044142
_diffrn_orient_matrix_UB_13      0.056070
_diffrn_orient_matrix_UB_21      0.119081
_diffrn_orient_matrix_UB_22      0.053188
_diffrn_orient_matrix_UB_23      -0.004034
_diffrn_orient_matrix_UB_31      -0.012028
_diffrn_orient_matrix_UB_32      0.031880
_diffrn_orient_matrix_UB_33      0.065272
_diffrn_radiation_collimation    'Confocal mirrors'
_diffrn_radiation_monochromator  'double crystal silicon'
_diffrn_radiation_wavelength     0.6889
_diffrn_reflns_av_R_equivalents  0.1462
_diffrn_reflns_av_unetI/netI     0.1068
_diffrn_reflns_Laue_measured_fraction_full 0.994
_diffrn_reflns_Laue_measured_fraction_max 0.989
_diffrn_reflns_limit_h_max       18
_diffrn_reflns_limit_h_min       -18
_diffrn_reflns_limit_k_max       9
_diffrn_reflns_limit_k_min       -8
_diffrn_reflns_limit_l_max       17
_diffrn_reflns_limit_l_min       -18
_diffrn_reflns_number            13997
_diffrn_reflns_point_group_measured_fraction_full 0.994
_diffrn_reflns_point_group_measured_fraction_max 0.989
_diffrn_reflns_theta_full        24.415
_diffrn_reflns_theta_max         26.609
_diffrn_reflns_theta_min         2.770
_diffrn_source                   synchrotron
_diffrn_source_type              'DLS beamline I19'
_exptl_absorpt_coefficient_mu    0.199
_exptl_absorpt_correction_T_max  1.000
_exptl_absorpt_correction_T_min  0.489
_exptl_absorpt_correction_type   multi-scan
_exptl_absorpt_process_details
'CrystalClear-SM Expert 3.1 b21 (Rigaku, 20112)'
_exptl_crystal_colour            Yellow
_exptl_crystal_density_diffrn    1.314
_exptl_crystal_description       Platelet
_exptl_crystal_F_000             628
_exptl_crystal_size_max          0.05
_exptl_crystal_size_mid          0.03
_exptl_crystal_size_min          0.01
_refine_diff_density_max         0.919
_refine_diff_density_min         -0.571
_refine_diff_density_rms         0.121
_refine_ls_extinction_method     none
_refine_ls_goodness_of_fit_ref   1.097
_refine_ls_hydrogen_treatment    constr
_refine_ls_matrix_type           full
_refine_ls_number_parameters     191
_refine_ls_number_reflns         3408
_refine_ls_number_restraints     0
_refine_ls_restrained_S_all      1.097
_refine_ls_R_factor_all          0.1514
_refine_ls_R_factor_gt           0.1081
_refine_ls_shift/su_max          0.000
_refine_ls_shift/su_mean         0.000
_refine_ls_structure_factor_coef Fsqd
_refine_ls_weighting_details
'w=1/[\s^2^(Fo^2^)+(0.1275P)^2^+6.4063P] where P=(Fo^2^+2Fc^2^)/3'
_refine_ls_weighting_scheme      calc
_refine_ls_wR_factor_gt          0.2753
_refine_ls_wR_factor_ref         0.3062
_reflns_Friedel_coverage         0.000
_reflns_number_gt                2286
_reflns_number_total             3408
_reflns_threshold_expression     'I > 2\s(I)'
_cod_data_source_file            c6mh00051g2.cif
_cod_data_source_block           2013ncs0210
_cod_depositor_comments
;
The following automatic conversions were performed:

'_exptl_absorpt_correction_type' value 'Multi-scan' changed to
'multi-scan' according to
/usr/data/users/saulius/crontab/automatic-downloads/rss-feeds/RSC/lib/dictionaries/cif_core.dic
dictionary named 'cif_core.dic' version 2.4.2 from 2011-04-26.

Automatic conversion script
Id: cif_fix_values 4268 2015-11-12 08:31:59Z antanas 

 Adding full bibliography for 1543209--1543212.cif.
;
_cod_database_code               1543210
_shelx_space_group_comment
;
The symmetry employed for this shelxl refinement is uniquely defined
by the following loop, which should always be used as a source of
symmetry information in preference to the above space-group names.
They are only intended as comments.
;
_olex2_refinement_description
;
1. Fixed Uiso
 At 1.2 times of:
  All C(H) groups, All C(H,H) groups
 At 1.5 times of:
  All C(H,H,H) groups
2.a Secondary CH2 refined with riding coordinates:
 C6(H6A,H6B), C7(H7A,H7B), C8(H8A,H8B), C9(H9A,H9B), C10(H10A,H10B)
2.b Aromatic/amide H refined with riding coordinates:
 C15(H15), C16(H16), C17(H17), C18(H18), C20(H20)
2.c Idealised Me refined as rotating group:
 C11(H11A,H11B,H11C)
;
_shelx_res_file
;
    2013ncs0210.res created by SHELXL-2014/7

TITL CF solution in P21/c
rem EXTI 0
CELL 0.6889 14.575 7.664 14.393 90 111.28 90
ZERR 2 0.019 0.009 0.019 0 0.014 0
LATT 1
SYMM -X,0.5+Y,0.5-Z
SFAC C H N O S
DISP C 0.003 0.001 10.848
DISP H -0 0 0.623
DISP N 0.006 0.003 18.337
DISP O 0.011 0.006 30.192
DISP S 0.118 0.117 489.407
UNIT 72 72 4 4 4

L.S. 10 0 0
PLAN  5
TEMP -173(2)
HTAB C20 N4
BOND $H
conf
fmap 2
acta
OMIT 1 0 0
OMIT 1 0 8
OMIT -4 3 8
OMIT -2 2 4
OMIT -2 0 8
OMIT 6 3 4
OMIT -6 3 12
OMIT -8 0 4
REM <olex2.extras>
REM <HklSrc "%.\\2013ncs0210.hkl">
REM </olex2.extras>

WGHT    0.127500    6.406300
FVAR       6.84021
S1    5    0.644876    1.058871    0.388437    11.00000    0.02971    0.03445 =
         0.02004    0.00043    0.01295   -0.00168
O13   4    0.241461    0.832421    0.418094    11.00000    0.02749    0.03472 =
         0.02259   -0.00258    0.01309   -0.00313
N4    3    0.466194    0.944011    0.298469    11.00000    0.03489    0.02272 =
         0.02478   -0.00083    0.01729    0.00112
C1    1    0.402803    0.935855    0.436603    11.00000    0.02794    0.02451 =
         0.01980    0.00055    0.01058    0.00459
C2    1    0.571677    1.032375    0.460252    11.00000    0.03073    0.02540 =
         0.02278    0.00482    0.01589    0.00236
C3    1    0.477633    0.970678    0.398710    11.00000    0.02699    0.02671 =
         0.02004    0.00320    0.01010    0.00415
C5    1    0.546617    0.984790    0.284070    11.00000    0.02908    0.02581 =
         0.01976    0.00269    0.01210   -0.00171
C6    1    0.555059    0.974168    0.183631    11.00000    0.02946    0.03346 =
         0.01620    0.00011    0.01231   -0.00341
AFIX  23
H6A   2    0.548389    1.093623    0.155770    11.00000   -1.20000
H6B   2    0.498726    0.905118    0.139396    11.00000   -1.20000
AFIX   0
C7    1    0.649668    0.894525    0.179422    11.00000    0.03006    0.02721 =
         0.01981    0.00094    0.01392   -0.00318
AFIX  23
H7A   2    0.707428    0.957223    0.226067    11.00000   -1.20000
H7B   2    0.654429    0.770646    0.200142    11.00000   -1.20000
AFIX   0
C8    1    0.649836    0.907289    0.073529    11.00000    0.02897    0.02527 =
         0.02116   -0.00139    0.01140   -0.00300
AFIX  23
H8A   2    0.639398    1.030802    0.052123    11.00000   -1.20000
H8B   2    0.593276    0.839607    0.028577    11.00000   -1.20000
AFIX   0
C9    1    0.743830    0.841930    0.060043    11.00000    0.03157    0.02937 =
         0.02192   -0.00105    0.01286   -0.00238
AFIX  23
H9A   2    0.802079    0.893314    0.112457    11.00000   -1.20000
H9B   2    0.748024    0.713495    0.067784    11.00000   -1.20000
AFIX   0
C10   1    0.744875    0.891147   -0.042755    11.00000    0.04088    0.03525 =
         0.02991   -0.00130    0.02053    0.00126
AFIX  23
H10A  2    0.684563    0.844730   -0.094610    11.00000   -1.20000
H10B  2    0.743100    1.019874   -0.048881    11.00000   -1.20000
AFIX   0
C11   1    0.834535    0.822712   -0.062441    11.00000    0.03903    0.05448 =
         0.03676    0.00005    0.02254    0.00195
AFIX 137
H11A  2    0.831234    0.861043   -0.128537    11.00000   -1.50000
H11B  2    0.835209    0.694925   -0.059811    11.00000   -1.50000
H11C  2    0.894703    0.868248   -0.011609    11.00000   -1.50000
AFIX   0
C12   1    0.306425    0.873029    0.371105    11.00000    0.02727    0.03017 =
         0.02904    0.00331    0.01615    0.00241
C14   1    0.157892    0.768780    0.344313    11.00000    0.02406    0.03175 =
         0.03039    0.00476    0.00928   -0.00043
C15   1    0.073806    0.709132    0.358359    11.00000    0.03227    0.03421 =
         0.03587   -0.00116    0.01516   -0.00350
AFIX  43
H15   2    0.067435    0.710289    0.421745    11.00000   -1.20000
AFIX   0
C16   1   -0.000464    0.647539    0.272938    11.00000    0.02715    0.03214 =
         0.03451   -0.00138    0.01162   -0.00883
AFIX  43
H16   2   -0.059377    0.603979    0.278272    11.00000   -1.20000
AFIX   0
C17   1    0.008822    0.647696    0.179557    11.00000    0.03014    0.04007 =
         0.03678   -0.00189    0.01047   -0.00475
AFIX  43
H17   2   -0.044103    0.605600    0.123227    11.00000   -1.20000
AFIX   0
C18   1    0.093570    0.707926    0.167209    11.00000    0.03435    0.03950 =
         0.02831   -0.00308    0.01268   -0.00471
AFIX  43
H18   2    0.099709    0.706823    0.103718    11.00000   -1.20000
AFIX   0
C19   1    0.170622    0.771155    0.252964    11.00000    0.02967    0.02787 =
         0.03048    0.00134    0.01291    0.00339
C20   1    0.267417    0.839483    0.271614    11.00000    0.02889    0.02616 =
         0.02740   -0.00136    0.01096    0.00212
AFIX  43
H20   2    0.297921    0.857535    0.224210    11.00000   -1.20000
AFIX   0
HKLF 4

REM  CF solution in P21/c
REM R1 =  0.1081 for    2286 Fo > 4sig(Fo)  and  0.1514 for all    3408 data
REM    191 parameters refined using      0 restraints

END

WGHT      0.1268      6.4656

REM Highest difference peak  0.919,  deepest hole -0.571,  1-sigma level  0.121
Q1    1   0.4093  0.9350  0.2673  11.00000  0.05    0.92
Q2    1   0.6382  1.0558  0.1190  11.00000  0.05    0.82
Q3    1   0.5827  1.0539  0.3565  11.00000  0.05    0.66
Q4    1   0.6516  1.0600 -0.1429  11.00000  0.05    0.61
Q5    1   0.3577  0.9253  0.4150  11.00000  0.05    0.55
;
_shelx_res_checksum              89263
_shelx_hkl_file
;
   1   0   0 -442.47 246.210   1
  -1   0   0 -216.64 228.160   1
   0   0  -1 -554.76 135.800   1
   0   0  -1 -799.41 255.140   1
   0   0  -1 169.330 203.540   1
   0   0   1 838.060 289.000   1
  -1   0   1 -545.58 194.090   1
   1   0  -1 -875.87 414.910   1
   1   0  -1 -111.94 177.630   1
  -1   0  -1 653.550 333.050   1
  -1   0  -1 1188.33 441.120   1
   0   1   0 292.280 423.260   1
   0   1   0 -577.39 363.230   1
   0   1   0 494.610 163.010   1
   0  -1   0 1191.10 199.410   1
   0  -1   0 354.080 170.860   1
   2   0  -1 254.460 84.3800   1
   2   0  -1 -265.05 554.370   1
   1   0  -2 404922. 65084.0   1
   1   0  -2 389280. 62573.3   1
   1   0  -2 377515. 60682.2   1
   2   0   0 4964.49 1084.22   1
  -2   0   0 3649.31 668.840   1
   0   0  -2 58102.1 2450.70   1
   0   0  -2 53861.2 1749.95   1
   0   0   2 59645.0 1994.12   1
   1  -1   0 192695. 5933.38   1
  -1  -1   0 203104. 6190.25   1
   1  -1   0 203842. 6201.47   1
   1   1   0 221390. 6772.52   1
  -1  -1   0 203207. 6174.42   1
  -1   1   0 201131. 6164.99   1
   1   1   0 218308. 6779.20   1
   0   1  -1 134652. 4139.32   1
   0   1  -1 127987. 3959.28   1
   0   1  -1 127258. 4081.87   1
   0  -1  -1 130770. 4075.98   1
   0   1   1 132727. 4151.75   1
   1   1  -1 91019.7 3020.61   1
   1   1  -1 96047.4 3146.90   1
   1   1  -1 101262. 3178.47   1
  -1   1   1 96356.9 3102.37   1
  -2   0   2 276877. 8618.89   1
   2   0  -2 282767. 8760.61   1
  -1   1  -1 313266. 9588.72   1
  -1   1  -1 339358. 54577.1   1
   1   1   1 321007. 10213.7   1
  -1  -1  -1 314429. 9617.06   1
   1   1   1 264484. 8206.91   1
  -1  -1  -1 288919. 8899.87   1
  -2   0  -1 134.480 903.850   1
  -2   0  -1 1361.04 772.030   1
   2   0   1 1102.72 310.690   1
  -1   0  -2 14469.7 1714.00   1
  -1   0  -2 23241.6 3355.48   1
  -2  -1   1 1286.18 342.000   1
  -2   1   1 4215.85 802.730   1
   2  -1  -1 616.250 349.660   1
   2   1  -1 705.180 226.770   1
   2   1  -1 1530.26 491.180   1
   2  -1  -1 3084.72 810.110   1
   1   1  -2 83313.7 2803.71   1
  -1  -1   2 75799.8 2344.13   1
   1   1  -2 85576.5 2662.28   1
   1  -1  -2 85594.6 3066.22   1
  -1   1   2 78588.6 2519.26   1
   2   1   0 82068.8 2660.15   1
  -2  -1   0 76810.6 2431.52   1
   2  -1   0 77203.4 2532.58   1
   2   1   0 82527.2 3032.11   1
  -2   1   0 80023.0 2650.03   1
   2  -1   0 85233.3 2689.14   1
   0   1  -2 41497.1 1333.31   1
   0   1  -2 53778.6 3125.49   1
   0   1  -2 51976.5 2065.22   1
   0  -1  -2 44498.8 2497.37   1
   0   1   2 44918.5 1621.99   1
   3   0  -1 -1076.8 695.750   1
   3   0  -1 249.950 136.360   1
  -1   0   3 1829.29 555.050   1
   1   0  -3 1240.56 359.360   1
   1   0  -3 783.600 529.290   1
   2   1  -2 275337. 8390.24   1
   2   1  -2 293921. 8992.60   1
   2   1  -2 333398. 53613.7   1
  -2   1   2 303095. 9305.13   1
   2  -1  -2 313193. 9569.56   1
   2  -1  -2 289696. 8834.29   1
   3   0  -2 25724.0 2671.17   1
   3   0  -2 30069.1 2829.64   1
   2   0  -3 -318.95 407.380   1
   2   0  -3 1383.10 652.960   1
   2   0  -3 1405.67 591.740   1
  -2   0   3 1233.98 380.190   1
   3   0   0 60422.4 2159.27   1
   0   0  -3 -117.23 496.100   1
   0   0   3 736.920 561.710   1
   0   0  -3 -1286.7 693.860   1
  -2  -1  -1 495705. 79687.3   1
  -2   1  -1 460948. 74123.2   1
   2   1   1 389826. 62691.3   1
   2   1   1 463474. 74539.2   1
   2  -1   1 394668. 63445.8   1
  -2  -1  -1 412015. 66228.7   1
  -1   1  -2 284888. 8776.34   1
  -1   1  -2 408774. 65747.1   1
  -1  -1  -2 322523. 9853.06   1
  -1  -1  -2 332028. 53389.3   1
   1   1   2 339529. 54606.9   1
  -3   1   1 209395. 6558.15   1
   3   1  -1 189067. 5804.16   1
  -2   0  -2 462403. 74343.2   1
  -2   0  -2 385012. 61898.7   1
   1  -1  -3 8349.74 1121.58   1
  -1   1   3 8476.03 1208.96   1
   1   1  -3 10374.2 2201.58   1
   1   1  -3 7602.38 1117.07   1
   1   1  -3 8202.22 1198.85   1
   3   0  -3 -283.51 820.850   1
  -3   0   3 2763.02 857.940   1
   3   0  -3 131.130 433.180   1
   3  -1  -2 58744.9 1898.36   1
   3   1  -2 65575.6 2559.17   1
   3   1  -2 57841.4 1853.42   1
  -3   1   2 59835.7 2027.82   1
   3   1  -2 63902.6 2360.58   1
   3  -1  -2 64815.1 2319.20   1
   2   1  -3 12815.4 1659.86   1
   2  -1  -3 15359.6 1705.64   1
   2   1  -3 14116.1 3480.47   1
  -2   1   3 14554.8 1967.92   1
   2  -1  -3 15891.1 1688.53   1
   2   1  -3 15508.0 1879.84   1
  -3   1   0 92666.2 3161.43   1
   3   1   0 76069.7 2551.92   1
   3  -1   0 77244.4 2470.92   1
   3  -1   0 81942.9 2684.67   1
  -3  -1   0 77085.3 2519.76   1
  -3  -1   0 80148.0 2626.25   1
   3   0   1 -380.51 667.840   1
  -3   0  -1 400.180 1077.07   1
  -3   0  -1 726.750 628.330   1
   0  -1  -3 86352.1 2827.71   1
   0   1  -3 101833. 3513.04   1
   0  -1  -3 95898.9 3247.00   1
   0   1  -3 92648.9 2893.56   1
   0   1   3 91542.5 2979.41   1
   1   0   3 1257.72 912.910   1
  -1   0  -3 93.6300 265.790   1
  -1   0  -3 -1406.3 801.920   1
   0   2   0 54161.1 1996.73   1
   0   2   0 60515.3 2196.09   1
   0  -2  -1 25221.5 2411.98   1
   0   2   1 32831.4 5342.64   1
   0   2  -1 34270.3 5615.81   1
   0   2  -1 30409.2 2927.79   1
   0   2  -1 34363.6 5692.97   1
   0   2   1 35146.6 5753.70   1
   0  -2   1 26888.2 2563.40   1
   1  -2  -1 91078.3 2834.13   1
   1   2  -1 107424. 3487.54   1
   1   2  -1 118489. 3696.74   1
  -1   2   1 101913. 3300.22   1
   1   2  -1 100613. 3337.56   1
   4   0  -1 -145.10 360.220   1
   4   0  -1 -202.31 642.440   1
  -2   1  -2 12535.8 1381.67   1
  -2   1  -2 19162.4 3855.21   1
  -2  -1  -2 17442.7 2866.37   1
   2   1   2 16639.3 1826.21   1
  -2  -1  -2 15472.6 1759.52   1
   2   1   2 16563.8 2476.94   1
   4   0  -2 9654.84 1727.97   1
   4   0  -2 9443.01 2129.19   1
  -1   0   4 64306.9 2070.97   1
   1   0  -4 62881.0 2384.87   1
   1   0  -4 57046.8 2006.95   1
   2   0  -4 21489.7 2609.94   1
  -2   0   4 11154.6 1133.46   1
   2   0  -4 19268.2 2424.24   1
   2   0  -4 10462.2 1538.77   1
   3   1  -3 4354.46 1093.48   1
   3  -1  -3 2159.55 691.380   1
   3   1  -3 2803.29 671.200   1
  -3   1   3 2762.46 839.930   1
   3   1  -3 3073.84 981.250   1
   3  -1  -3 3939.58 1136.36   1
  -3  -1  -1 77981.3 2579.46   1
   3  -1   1 79989.6 2669.22   1
   3   1   1 73229.7 4005.74   1
  -3   1  -1 76401.1 2929.77   1
  -3  -1  -1 84108.1 2702.03   1
   1   1   3 8449.15 1666.54   1
  -1   1  -3 6286.56 2152.34   1
  -1  -1  -3 7864.27 1599.93   1
  -1   1  -3 9863.02 1381.20   1
  -1  -1  -3 9149.97 1163.36   1
   4   0   0 11654.2 1836.51   1
   4   0   0 14955.0 2266.26   1
  -4   0   0 9144.78 1081.53   1
   2   2  -1 722967. 116229.   1
   2  -2  -1 578048. 92899.8   1
   2   2  -1 723607. 116307.   1
  -2   2   1 652538. 104883.   1
   2   2  -1 660623. 106229.   1
   1  -2  -2 192613. 5929.77   1
   1   2  -2 197869. 6112.22   1
   1   2  -2 202027. 6294.85   1
  -1   2   2 193816. 6022.25   1
   0   0  -4 160488. 6647.10   1
   0   0  -4 144649. 4525.87   1
   0   0   4 152186. 4898.82   1
  -4   0   3 -1296.4 774.490   1
   4   0  -3 -1427.0 1121.49   1
   4   0  -3 -570.29 451.060   1
   2  -2   0 216434. 6586.07   1
  -2   2   0 463054. 74439.8   1
  -2   2   0 377619. 60734.6   1
   2   2   0 399934. 64342.8   1
   2   2   0 366837. 58971.6   1
   2  -2   0 372069. 59809.1   1
  -2  -2   0 370595. 59561.0   1
  -3   0   4 61843.6 2188.12   1
   3   0  -4 58593.5 2087.22   1
   3   0  -4 59765.0 2012.37   1
   3   0  -4 54351.6 2283.96   1
   0   2  -2 24742.5 3041.97   1
   0   2  -2 26196.9 2632.03   1
   0  -2  -2 21601.3 2411.66   1
   0   2   2 24332.0 2577.05   1
   4   1  -1 -100.64 455.080   1
   4  -1  -1 254.750 653.060   1
  -4   1   1 259.370 371.510   1
   4   1  -1 740.040 723.800   1
   4  -1  -1 -51.400 520.700   1
   4  -1  -2 60612.4 2267.54   1
  -4   1   2 64672.9 3659.49   1
   4   1  -2 60822.2 3693.91   1
   4  -1  -2 53461.0 1861.74   1
   4   1  -2 51340.6 1661.78   1
  -3   0  -2 5419.36 1115.00   1
   3   0   2 9374.39 1738.44   1
  -3   0  -2 5076.20 1275.20   1
   1   1  -4 2906.33 649.290   1
   1   1  -4 2331.95 265.550   1
   1   1  -4 4323.63 1005.00   1
   1  -1  -4 4440.52 1154.72   1
   1  -1  -4 1407.56 805.670   1
  -1   1   4 4343.60 996.660   1
  -2   0  -3 521.680 523.130   1
  -2   0  -3 1620.38 637.020   1
   2   1  -4 2690.02 902.000   1
   2   1  -4 2404.03 712.930   1
   2  -1  -4 1623.11 710.390   1
  -2  -1   4 2539.15 519.720   1
  -2   1   4 2886.49 933.820   1
   2   1  -4 2862.07 1139.56   1
   2   2  -2 13464.9 1932.66   1
   2   2  -2 9232.26 1250.96   1
   2   2  -2 13978.2 1305.24   1
   2   2  -2 16838.0 1907.77   1
   2   2  -2 17872.4 1984.85   1
  -2   2   2 18794.3 4020.91   1
   2  -2  -2 17100.8 1690.86   1
  -2   2  -1 405.050 960.160   1
   2   2   1 232.140 325.220   1
   2   2   1 564.610 1111.22   1
  -2   2  -1 -297.50 605.660   1
   2  -2   1 -896.11 466.380   1
  -2  -2  -1 -552.78 390.410   1
  -1   2  -2 1348.87 480.740   1
  -1   2  -2 1108.12 763.280   1
   1   2   2 4149.27 1041.74   1
  -1  -2  -2 1274.10 525.800   1
   1   2   2 2560.03 1300.81   1
  -4  -1   0 4328.40 964.710   1
   4  -1   0 8353.28 1611.33   1
   4   1   0 7427.77 1307.68   1
  -4  -1   0 5492.25 676.980   1
   4  -1   0 8272.99 1230.06   1
  -4   1   0 7025.45 1500.98   1
   0   1  -4 19237.0 3991.14   1
   0   1  -4 19843.7 2560.96   1
   0   1   4 21082.9 2315.43   1
   0  -1  -4 23007.1 3334.47   1
   0  -1  -4 20782.8 2270.07   1
   4  -1  -3 6453.44 1133.46   1
   4   1  -3 9913.18 1272.61   1
  -4   1   3 9273.15 2273.12   1
   4   1  -3 11012.9 1803.24   1
   4  -1  -3 11591.2 1924.31   1
   4   1  -3 10634.6 1771.92   1
   3  -1  -4 44807.1 1839.88   1
   3   1  -4 41170.0 1740.87   1
  -3   1   4 41830.0 2533.82   1
   3  -1  -4 38547.4 1482.95   1
   3   1  -4 40661.2 1470.37   1
  -3  -1   4 36486.2 1561.24   1
   3   1  -4 41057.2 1670.92   1
  -4   0  -1 -482.17 955.290   1
  -4   0  -1 1301.39 661.030   1
   4   0   1 -1271.2 897.380   1
   1   0   4 6884.79 1596.62   1
  -1   0  -4 6095.22 2105.17   1
  -1   0  -4 8828.05 1027.87   1
   3   2  -1 89681.0 3469.39   1
  -3   2   1 85404.2 2890.97   1
   3   2  -1 75994.1 2598.66   1
   3  -2  -1 79851.2 2551.35   1
   3  -2  -1 82322.8 2981.04   1
   3   2  -1 90753.2 3114.11   1
   1   2  -3 992.220 421.310   1
   1   2  -3 438.170 397.830   1
   1   2  -3 1532.30 306.760   1
   1   2  -3 342.860 690.600   1
  -1   2   3 505.840 1131.64   1
   1  -2  -3 1645.83 602.320   1
  -4   0   4 39552.7 1622.78   1
   4   0  -4 40138.8 1393.51   1
   4   0  -4 39243.4 1831.22   1
  -3   1  -2 195409. 6086.23   1
  -3  -1  -2 213780. 6731.95   1
   3  -1   2 203276. 6372.77   1
   3   1   2 187585. 5946.60   1
  -3  -1  -2 217473. 6795.13   1
  -2   1  -3 98124.2 3186.52   1
  -2  -1  -3 100794. 3367.18   1
  -2  -1  -3 106501. 3742.33   1
   2   1   3 99676.1 3857.42   1
  -2   1  -3 110956. 4214.01   1
   3  -2  -2 -350.22 379.450   1
  -3   2   2 773.900 599.500   1
   3   2  -2 111.760 54.9900   1
   3   2  -2 88.0500 359.810   1
   3  -2  -2 -429.19 444.950   1
   3   2  -2 1069.71 987.570   1
   2   2  -3 46975.7 2156.25   1
  -2   2   3 45070.0 1843.18   1
   2  -2  -3 44870.3 1584.22   1
   2   2  -3 52008.1 1901.64   1
   2   2  -3 49238.8 1564.79   1
   2   2  -3 46903.0 1795.94   1
  -3   2   0 35852.4 5886.54   1
   3  -2   0 37821.1 1587.53   1
  -3   2   0 29887.0 3617.41   1
   3   2   0 37486.8 2185.88   1
  -3  -2   0 35943.5 5828.60   1
   3   2   0 35157.5 6088.48   1
   5   0  -2 116899. 3839.22   1
   5   0  -2 136003. 4504.97   1
   0   2  -3 -53.580 259.910   1
   0   2  -3 -1703.4 1194.32   1
   0   2  -3 925.230 300.630   1
   0  -2  -3 528.710 555.200   1
   0   2   3 1522.32 816.470   1
   2   0  -5 1352.32 548.500   1
   2   0  -5 -631.63 682.850   1
  -2   0   5 585.080 455.420   1
   5   0  -1 1344.34 503.740   1
   5   0  -1 464.560 227.110   1
  -1   0   5 644.550 459.100   1
   1   0  -5 -252.99 604.800   1
   1   0  -5 -844.11 1083.61   1
   4  -1   1 34017.4 6299.19   1
   4   1   1 25426.0 3069.03   1
  -4  -1  -1 25482.5 2858.92   1
  -4   1  -1 28891.0 3042.17   1
   4  -1   1 26124.8 2566.45   1
  -4  -1  -1 24099.5 2483.15   1
   5   0  -3 180.770 471.590   1
   5   0  -3 -889.08 1261.43   1
  -1   1  -4 95859.9 6485.55   1
  -1   1  -4 89220.0 2849.31   1
  -1  -1  -4 94968.3 3421.89   1
  -1  -1  -4 85135.6 2782.15   1
   1   1   4 103936. 4115.54   1
  -2   2  -2 3409.51 1584.35   1
  -2   2  -2 1046.10 392.680   1
  -2  -2  -2 3149.64 934.780   1
   2   2   2 3383.06 685.290   1
  -2  -2  -2 751.580 195.460   1
   2   2   2 -285.26 1295.54   1
   3   0  -5 102.740 569.660   1
   3   0  -5 -361.10 943.910   1
   3   0  -5 -36.040 373.450   1
  -3   0   5 -1380.7 574.010   1
  -4   1   4 89229.0 3075.72   1
   4   1  -4 96467.2 3817.92   1
   4   1  -4 94163.6 2977.72   1
   4  -1  -4 91190.4 3568.01   1
   4   1  -4 107692. 3761.14   1
   4  -1  -4 95178.0 3442.62   1
   3  -2  -3 -1357.5 535.710   1
   3   2  -3 453.820 189.660   1
   3  -2  -3 987.240 587.600   1
   3   2  -3 -1198.6 857.800   1
  -3   2   3 -1678.3 977.500   1
   3   2  -3 1536.55 381.820   1
   3   2   1 13569.3 2508.62   1
  -3   2  -1 16403.5 3065.23   1
   3   2   1 17914.5 2961.26   1
   3  -2   1 13882.7 2286.68   1
  -3  -2  -1 14769.0 1929.32   1
  -3   2  -1 15289.3 1920.48   1
   3  -2   1 20206.0 2740.16   1
  -3   0  -3 -234.11 1193.45   1
  -3   0  -3 -872.57 593.320   1
  -5   1   2 1616.91 875.310   1
   5   1  -2 1420.50 434.280   1
   5  -1  -2 873.700 305.910   1
   5  -1  -2 159.980 897.560   1
   5   1  -2 1644.08 558.120   1
  -1  -2  -3 63116.2 2670.09   1
  -1   2  -3 66920.8 2314.03   1
  -1  -2  -3 67636.1 2402.58   1
  -1   2  -3 79476.7 3189.20   1
  -1   2  -3 73633.3 2369.65   1
   1   2   3 65172.6 2782.44   1
   5   0   0 3271.72 593.290   1
   5   0   0 4605.06 815.340   1
  -5   0   0 2689.89 811.290   1
   2   1  -5 13059.4 1426.76   1
   2   1  -5 15706.4 2004.25   1
   2  -1  -5 16967.5 1937.21   1
   2   1  -5 12852.2 2910.73   1
  -2   1   5 13433.9 1565.30   1
  -2  -1   5 10659.5 1037.65   1
   2  -1  -5 12705.7 1594.59   1
  -5   1   1 9190.12 1359.71   1
   5   1  -1 15868.4 1758.08   1
   5  -1  -1 14491.7 1788.03   1
   5   1  -1 14080.0 1771.51   1
   5  -1  -1 12787.2 1557.19   1
   0   0   5 195.850 889.210   1
   0   0  -5 336.190 369.930   1
   0   0  -5 -290.22 566.600   1
  -4   0  -2 67880.1 2453.32   1
   4   0   2 61312.1 3329.87   1
  -4   0  -2 55550.3 5066.57   1
   1  -1  -5 1165.07 446.490   1
   1   1  -5 1803.13 556.380   1
   1  -1  -5 -198.50 911.770   1
   1   1  -5 -2456.7 1084.27   1
  -1   1   5 1482.73 676.000   1
  -2   0  -4 8332.27 2526.82   1
  -2   0  -4 14614.9 1626.24   1
   5   1  -3 24264.9 2491.19   1
   5  -1  -3 31083.5 3098.11   1
  -5   1   3 33783.7 6179.16   1
   5  -1  -3 26291.7 2873.52   1
   5   1  -3 29817.3 3015.50   1
  -4   2   1 6080.06 2039.50   1
   4  -2  -1 13834.2 1839.88   1
   4   2  -1 10050.6 1183.70   1
   4  -2  -1 9097.92 1011.36   1
  -5   0   4 -274.05 856.840   1
   5   0  -4 -1317.1 1181.08   1
   5   0  -4 4588.91 809.790   1
  -3   1   5 98645.3 3195.28   1
  -3  -1   5 96967.2 3006.24   1
   3   1  -5 102721. 3372.92   1
   3   1  -5 105608. 3592.03   1
   3   1  -5 103437. 3316.77   1
   3  -1  -5 98038.7 3182.55   1
  -4   2   2 1376.67 409.380   1
   4   2  -2 1348.07 501.590   1
   4  -2  -2 3457.24 588.720   1
   4   2  -2 3417.57 843.400   1
   4   2  -2 288.180 246.210   1
   4  -2  -2 1069.48 569.420   1
   4   0  -5 -202.95 630.840   1
  -4   0   5 1722.36 461.970   1
   4   0  -5 406.100 987.250   1
   4   0  -5 266.890 607.170   1
   1   2  -4 67362.2 2456.84   1
   1   2  -4 65065.1 2498.38   1
   1   2  -4 62394.6 1992.41   1
   1  -2  -4 63509.5 2368.85   1
  -1   2   4 62829.6 2294.90   1
   2   2  -4 17788.0 1730.49   1
   2   2  -4 16945.0 2103.13   1
   2   2  -4 14733.5 4194.30   1
   2  -2  -4 20029.5 2602.50   1
  -2   2   4 17192.8 2615.02   1
  -3   1  -3 21848.8 2292.29   1
   3   1   3 28440.8 3587.85   1
  -3  -1  -3 25317.8 3632.37   1
  -3  -1  -3 27468.2 2711.51   1
  -3   1  -3 33008.8 6424.76   1
   5  -1   0 27710.0 4120.48   1
   5  -1   0 25046.0 3086.78   1
   5   1   0 23254.9 3273.01   1
  -5  -1   0 19534.7 1920.28   1
  -5   1   0 21320.3 2405.76   1
   0   3   0 675.860 308.420   1
   0  -3   0 -205.02 262.310   1
   0   3   0 -84.390 623.540   1
  -4   2   0 3395.53 1507.78   1
  -4   2   0 866.220 217.710   1
   4  -2   0 2112.97 318.520   1
  -4  -2   0 1690.77 483.720   1
   4   2   0 4007.21 690.650   1
   4  -2   0 2636.84 635.410   1
   0   1   5 77539.8 2904.19   1
   0   1  -5 80735.0 3201.19   1
   0  -1  -5 75765.2 2683.13   1
   0  -1  -5 77333.6 5237.00   1
   0   1  -5 80751.2 2672.50   1
   0   2  -4 4768.33 1026.38   1
   0   2  -4 8162.63 850.450   1
   0   2  -4 7657.75 1885.90   1
   0   2   4 8688.42 1418.41   1
   0  -2  -4 10144.3 1491.98   1
   0  -2  -4 11324.5 1413.82   1
   4  -2  -3 11211.7 1325.29   1
   4   2  -3 9267.16 1187.15   1
   4   2  -3 11881.5 1984.42   1
   4  -2  -3 7666.86 1146.32   1
   4   2  -3 9989.80 1227.64   1
  -4   2   3 11200.7 3123.57   1
  -4   1  -2 13802.9 1863.57   1
  -4  -1  -2 9682.80 2046.81   1
   4  -1   2 5405.59 1328.91   1
  -4   1  -2 8806.07 1293.88   1
  -4  -1  -2 10202.1 1340.89   1
   4   1   2 13223.3 2394.36   1
   3   2  -4 35095.0 5668.51   1
   3   2  -4 39010.9 1965.40   1
   3   2  -4 39350.4 1548.00   1
   3  -2  -4 39136.8 1961.35   1
  -3   2   4 34532.9 5864.35   1
   1   3   0 9800.46 1045.05   1
  -1  -3   0 8822.73 1018.53   1
   1  -3   0 10640.6 1069.32   1
  -1   3   0 8913.77 1182.48   1
  -1   3   0 7591.21 1125.86   1
   1   3   0 10702.5 1458.14   1
   0   3  -1 81134.3 2753.66   1
   0   3  -1 78889.2 2522.85   1
   0   3   1 82087.0 2534.65   1
   0  -3   1 72771.1 2316.49   1
   0  -3  -1 79071.7 2822.97   1
   0   3   1 75369.8 2588.93   1
  -2   1  -4 473.720 520.950   1
  -2  -1  -4 -2314.9 902.050   1
  -2   1  -4 -1816.9 1275.98   1
   2   1   4 -51.450 1525.44   1
  -2  -1  -4 273.590 659.390   1
  -1   3   1 7158.31 1282.76   1
   1   3  -1 5521.57 945.210   1
   1   3  -1 4279.36 714.160   1
  -1   3   1 5027.11 1339.68   1
  -1  -3   1 3478.36 435.820   1
   1   3  -1 1563.52 638.820   1
   1  -3  -1 2564.84 729.340   1
  -5   0  -1 -1268.5 764.570   1
   5   0   1 1413.34 319.840   1
   5   1  -4 1797.50 377.590   1
  -5   1   4 817.000 382.840   1
   5   1  -4 -746.12 513.720   1
   5  -1  -4 -249.00 1031.75   1
   5   1  -4 829.330 1384.01   1
   5  -1  -4 -177.67 651.440   1
   3   2   2 71828.9 4013.45   1
   3   2   2 62961.1 3937.16   1
  -3  -2  -2 64886.6 2658.40   1
  -3   2  -2 61254.2 2275.61   1
   3  -2   2 57360.6 1909.52   1
  -3  -2  -2 61878.7 2197.40   1
   3  -2   2 60481.4 1982.87   1
   4   1  -5 33786.1 5784.74   1
   4  -1  -5 33205.4 5518.63   1
   4   1  -5 30542.3 3802.40   1
  -4   1   5 33451.3 6397.64   1
  -4  -1   5 29524.0 2801.95   1
   4  -1  -5 30868.9 3042.28   1
   4   1  -5 32963.8 5604.75   1
   2   2   3 17794.3 2928.54   1
   2   2   3 10074.0 2485.69   1
  -2   2  -3 11089.5 1218.53   1
  -2   2  -3 21229.3 3622.28   1
  -2  -2  -3 16193.7 1825.79   1
  -2  -2  -3 16129.7 2858.71   1
  -2   2  -3 12733.0 2694.79   1
  -1   0  -5 -1584.2 1118.33   1
   1   0   5 -345.21 732.320   1
  -1   0  -5 -1939.1 605.840   1
  -1  -3  -1 226880. 6941.76   1
   1   3   1 240283. 7525.36   1
   1  -3   1 224207. 6825.24   1
   6   0  -2 30015.4 3052.85   1
   6   0  -2 32011.9 3363.00   1
   2  -3  -1 1386.83 581.410   1
   2   3  -1 4043.55 965.820   1
   2   3  -1 4453.22 860.610   1
  -2   3   1 4438.68 873.900   1
  -2  -3   1 1755.68 193.540   1
   1  -3  -2 11912.5 1330.66   1
  -1   3   2 12566.7 1380.75   1
   1   3  -2 12765.4 1450.33   1
   1   3  -2 10425.6 1168.50   1
  -1   3   2 15169.9 2033.14   1
   1   3  -2 12850.4 2148.98   1
   6   0  -3 1973.03 1383.36   1
   6   0  -3 -39.340 552.170   1
   2   0  -6 815181. 131039.   1
   2   0  -6 913784. 146918.   1
  -2   0   6 882384. 141815.   1
  -5   0   5 1173.42 334.580   1
   5   0  -5 -2157.7 1190.78   1
   5   0  -5 1508.10 881.690   1
   2   3   0 403360. 64881.3   1
  -2   3   0 272079. 8538.55   1
   2   3   0 425798. 68459.0   1
  -2  -3   0 395228. 63518.6   1
  -2   3   0 444301. 71447.2   1
   2  -3   0 374535. 60196.3   1
   0   3   2 69118.6 2680.28   1
   0  -3   2 69313.4 2124.88   1
   0   3  -2 65246.6 2211.28   1
   0   3  -2 72255.3 2500.47   1
   0   3   2 72632.5 2635.24   1
   0  -3  -2 69998.6 2722.36   1
  -4   2  -1 6005.76 1533.23   1
   4   2   1 10585.2 2256.75   1
  -4   2  -1 4102.52 1240.77   1
   4  -2   1 9787.20 1494.91   1
  -4  -2  -1 5581.83 1000.20   1
   4  -2   1 10363.9 1251.36   1
   4   2   1 9736.48 1705.45   1
  -4  -2  -1 7111.78 1123.67   1
   6   0  -1 700.710 444.680   1
   6   0  -1 3425.64 991.840   1
   3   0  -6 14263.2 3429.41   1
   3   0  -6 10827.7 1953.50   1
  -3   0   6 10634.6 1943.28   1
  -5  -1  -1 88978.5 3163.05   1
  -5  -1  -1 89079.2 3009.79   1
  -5   1  -1 95088.9 3560.04   1
   5  -1   1 84172.8 4399.83   1
   5  -1   1 78473.9 2620.94   1
   5   1   1 86641.4 5675.97   1
  -1   2  -4 9344.74 1074.06   1
  -1   2  -4 9959.45 2145.95   1
  -1   2  -4 8064.37 1510.32   1
  -1  -2  -4 12254.5 1397.44   1
  -1  -2  -4 11767.7 2212.74   1
   1   2   4 14305.2 2115.05   1
   4   2  -4 16168.9 1559.94   1
   4   2  -4 18221.4 2303.20   1
   4   2  -4 15178.0 1822.47   1
   4  -2  -4 17716.3 2367.81   1
  -4   2   4 19802.9 3445.97   1
   4  -2  -4 18157.8 1999.80   1
   2   3  -2 15316.3 1569.50   1
  -2   3   2 17106.8 3564.85   1
   2   3  -2 13103.3 1814.51   1
   2   3  -2 19181.8 2097.28   1
   2  -3  -2 15965.9 1731.37   1
  -1   1  -5 110473. 4735.91   1
  -1  -1  -5 104668. 3473.51   1
  -1   1  -5 119075. 4546.74   1
   1   1   5 113952. 4445.31   1
  -1  -1  -5 108917. 3870.64   1
  -1   0   6 3097.52 940.720   1
   1   0  -6 8101.20 1494.31   1
   1   0  -6 1034.53 779.820   1
   4   0   3 89.4100 347.600   1
  -4   0  -3 458.700 1355.85   1
  -4   0  -3 1088.11 821.110   1
  -3   0  -4 192837. 6238.33   1
  -3   0  -4 195469. 6596.94   1
   5  -2  -2 265.340 723.010   1
  -5   2   2 1343.26 606.240   1
   5  -2  -2 766.230 596.650   1
   5   2  -2 -392.74 1069.21   1
   5   2  -2 -152.46 303.440   1
   6  -1  -2 7506.41 1378.98   1
   6   1  -2 5188.82 961.960   1
  -6   1   2 9014.30 2079.94   1
   6  -1  -2 6715.15 1054.18   1
   6   1  -2 4726.74 1403.39   1
   2   3   1 72270.2 3094.07   1
  -2   3  -1 75937.8 3413.19   1
  -2   3  -1 86523.1 3287.34   1
   2   3   1 76326.3 2494.50   1
   2  -3   1 77796.3 2597.95   1
  -2  -3  -1 74402.2 2392.35   1
   6   0  -4 300397. 9712.75   1
  -6   0   4 295607. 9771.30   1
  -1   3  -2 10552.5 1609.43   1
   1   3   2 13392.4 2146.02   1
  -1  -3  -2 12911.5 1372.90   1
   1  -3   2 13631.8 1454.64   1
  -1   3  -2 12456.7 1457.87   1
   1   3   2 11183.6 2070.89   1
   2   2  -5 14312.2 3925.47   1
   2   2  -5 17497.1 2066.42   1
   2   2  -5 17277.0 2110.25   1
   2  -2  -5 18353.2 2569.15   1
  -2   2   5 16745.1 2111.12   1
  -5   2   1 51463.0 4103.63   1
   5  -2  -1 49864.7 1713.34   1
   5   2  -1 54140.5 1996.34   1
   5   2  -1 53555.9 2434.99   1
  -6   1   3 8509.23 2084.65   1
   6  -1  -3 5590.40 1204.96   1
   6  -1  -3 3137.55 1545.99   1
   6   1  -3 6967.63 1594.27   1
   6   1  -3 6192.44 917.480   1
   2  -1  -6 46365.6 3028.52   1
  -2  -1   6 44423.0 1503.67   1
   2   1  -6 45087.6 2323.14   1
   2  -1  -6 48842.3 2031.13   1
  -2   1   6 43605.1 1752.13   1
   2   1  -6 45463.7 2144.04   1
   4   0  -6 71032.5 2775.22   1
   4   0  -6 68686.4 4799.75   1
   4   0  -6 68624.8 2605.03   1
  -4   0   6 72243.2 2445.24   1
   5  -1  -5 2419.54 710.710   1
   5   1  -5 1941.24 1240.92   1
  -5   1   5 -584.96 847.460   1
   5   1  -5 1018.40 457.290   1
   5   1  -5 500.030 288.150   1
   5  -1  -5 4314.35 1501.91   1
   1   2  -5 69299.6 2857.57   1
   1   2  -5 56370.7 1817.41   1
   1  -2  -5 53407.2 2908.20   1
  -1   2   5 57409.7 2263.43   1
   1  -2  -5 60325.1 2392.80   1
  -6   1   1 39672.0 1725.04   1
   6   1  -1 37847.8 1408.50   1
   6  -1  -1 45861.6 2124.58   1
   6  -1  -1 37381.1 1582.23   1
   6   1  -1 47054.8 2857.12   1
   5  -2  -3 96390.9 3145.95   1
   5  -2  -3 86860.3 2988.16   1
  -5   2   3 96074.4 3354.18   1
   5   2  -3 111484. 4350.46   1
   5   2  -3 92161.7 2947.24   1
  -3  -1   6 8754.12 1058.23   1
   3   1  -6 4438.61 1787.71   1
   3  -1  -6 15589.2 1992.82   1
   3   1  -6 13810.2 2034.87   1
   3   1  -6 11119.8 1335.18   1
   3  -1  -6 13349.8 1959.67   1
  -3   1   6 15977.2 2873.93   1
   6   0   0 15083.4 2783.43   1
  -6   0   0 11313.5 1399.17   1
   6   0   0 15938.4 2269.50   1
   3  -3  -1 32645.2 5277.04   1
  -3   3   1 36417.6 2511.91   1
   3   3  -1 34139.3 5551.58   1
  -3  -3   1 38528.6 1302.06   1
   3   3  -1 40247.6 2851.91   1
  -3   2   5 39297.3 2790.23   1
   3   2  -5 41087.8 1939.44   1
   3  -2  -5 44674.2 3437.47   1
   3   2  -5 49953.9 2760.38   1
   3   2  -5 47991.8 2760.45   1
  -1  -3   3 40136.1 1774.57   1
   1   3  -3 40448.9 2222.51   1
   1   3  -3 41619.3 3875.05   1
   1   3  -3 44863.4 2245.38   1
  -1   3   3 52694.6 2849.42   1
   1  -3  -3 45930.6 2589.43   1
  -5   0  -2 146185. 6853.54   1
   5   0   2 195503. 8888.09   1
   1  -1  -6 3587.13 1017.22   1
   1   1  -6 4321.63 1018.39   1
   1  -1  -6 4382.86 1217.37   1
   1   1  -6 4430.30 1469.69   1
  -1   1   6 2774.99 829.500   1
   0   0  -6 129404. 5920.99   1
   0   0  -6 144474. 9012.14   1
   0   0   6 163890. 7858.77   1
  -3   3   2 4433.39 1240.81   1
   3  -3  -2 3941.05 905.300   1
   3   3  -2 2516.90 1193.27   1
   3   3  -2 5661.60 1459.61   1
   3   3  -2 1134.39 421.810   1
   3   3  -2 3027.04 589.640   1
  -2   0  -5 886.670 491.110   1
  -2   0  -5 2609.27 977.760   1
   2   3  -3 14170.1 1347.67   1
   2   3  -3 12718.8 2907.08   1
   2   3  -3 12766.4 1104.37   1
  -2   3   3 13905.4 2404.23   1
   2  -3  -3 13652.0 1121.95   1
  -4   1  -3 100157. 4804.34   1
  -4  -1  -3 103664. 5672.88   1
   4   1   3 97193.9 4721.54   1
   4  -1   3 96678.8 4526.04   1
  -3   3   0 14971.6 2740.55   1
  -3   3   0 14030.6 1505.39   1
   3  -3   0 9664.41 1672.60   1
   3  -3   0 16161.7 1368.54   1
   3   3   0 4499.27 1788.66   1
  -3  -3   0 11594.4 2715.46   1
   3   3   0 14930.3 1955.81   1
   3   1   4 15036.3 1133.43   1
  -3  -1  -4 18965.1 3003.26   1
  -3  -1  -4 16817.5 2316.62   1
  -3   1  -4 10448.5 1936.11   1
  -3   1  -4 8082.95 2955.18   1
  -3  -2  -3 29962.2 3423.87   1
  -3   2  -3 32150.4 4428.32   1
  -3   2  -3 28833.9 2199.27   1
   3   2   3 22034.1 2325.38   1
   3   2   3 23887.7 1715.09   1
  -3   2  -3 20173.6 1239.98   1
  -3  -2  -3 25359.3 1466.08   1
   0   3  -3 20274.3 1175.50   1
   0  -3   3 17181.7 963.730   1
   0   3  -3 20832.3 3364.16   1
   0   3   3 24196.9 1847.90   1
   0   3   3 21291.1 1077.68   1
   0  -3  -3 21370.2 1490.05   1
  -5   2   0 446.670 617.170   1
   5  -2   0 2405.60 681.400   1
   5  -2   0 3000.59 732.570   1
  -5   2   0 3716.64 1837.35   1
  -5  -2   0 3214.62 916.670   1
   5   2   0 3032.07 697.270   1
  -6   1   4 6550.37 2174.48   1
   6  -1  -4 5155.63 1664.36   1
   6   1  -4 4359.54 2102.32   1
   6  -1  -4 8747.18 1913.97   1
   6   1  -4 2470.30 620.860   1
   0   2  -5 23209.5 4328.98   1
   0   2  -5 20008.1 1074.78   1
   0   2  -5 22992.3 1357.78   1
   0   2   5 24763.3 2102.89   1
   0  -2  -5 24393.4 1789.73   1
   0  -2  -5 28907.4 2340.62   1
   4   1  -6 18687.3 2016.99   1
   4   1  -6 17100.6 1216.34   1
  -4   1   6 20630.5 2281.08   1
  -4  -1   6 13914.7 1195.45   1
   4  -1  -6 15343.4 1522.97   1
   4   1  -6 21088.0 4303.70   1
   4  -1  -6 19615.6 1686.96   1
  -4  -2  -2 91418.3 4130.13   1
   4  -2   2 111269. 5098.45   1
   4   2   2 103832. 4914.00   1
  -4  -2  -2 114211. 5219.46   1
  -4   2  -2 106331. 5926.40   1
   4   2   2 116741. 6186.22   1
  -4   2  -2 119632. 5735.44   1
   4  -2   2 104641. 4697.76   1
  -2   2  -4 54585.8 6798.31   1
  -2   2  -4 54196.8 2731.58   1
   2   2   4 51078.3 3976.58   1
  -2  -2  -4 52195.6 3615.35   1
  -2  -2  -4 60450.1 3100.31   1
  -6   1   0 2655.24 949.020   1
  -6  -1   0 3827.68 886.650   1
   6   1   0 4104.84 853.980   1
   6  -1   0 4668.83 943.950   1
   6  -1   0 3779.66 842.620   1
   5  -2  -4 39805.8 2069.28   1
   5  -2  -4 54771.7 3394.64   1
  -5   2   4 49202.9 3146.64   1
   5   2  -4 44314.1 2749.22   1
   5   2  -4 44109.1 2660.49   1
   5   2  -4 44379.3 2024.58   1
  -2  -3  -2 3904.85 712.870   1
   2  -3   2 5354.67 980.960   1
   2   3   2 6175.08 1589.75   1
  -2   3  -2 3214.04 1069.93   1
  -2   3  -2 624.520 534.260   1
   2   3   2 4534.95 1942.25   1
   4   2  -5 5002.51 1083.81   1
   4  -2  -5 5954.87 1569.40   1
   4   2  -5 6225.66 1768.72   1
   4   2  -5 4571.96 1521.59   1
  -4   2   5 4653.47 1392.28   1
  -6   0   5 -984.66 669.490   1
   6   0  -5 813.190 281.220   1
   6   0  -5 906.900 1582.27   1
  -5  -1  -2 1375.50 862.300   1
  -5  -1  -2 1080.71 596.450   1
  -5   1  -2 1909.35 1314.72   1
   5  -1   2 2631.64 686.470   1
   5   1   2 1245.53 667.380   1
   5   0  -6 17146.4 1311.54   1
   5   0  -6 19301.0 2290.31   1
   5   0  -6 17159.0 1249.55   1
  -5   0   6 13075.2 2732.15   1
   3  -3  -3 6625.00 1251.94   1
  -3   3   3 8556.49 2445.63   1
   3   3  -3 4070.50 1184.33   1
   3   3  -3 4720.11 1640.55   1
   3   3  -3 1921.25 848.420   1
   0  -1  -6 2762.18 816.110   1
   0   1  -6 2820.95 695.930   1
   0   1   6 2196.92 1060.32   1
   0   1  -6 1399.63 584.520   1
   0  -1  -6 5021.26 1363.67   1
   2   1   5 11083.1 3189.72   1
  -2   1  -5 12760.1 3180.56   1
  -2  -1  -5 19297.5 3014.07   1
  -2   1  -5 12623.9 1053.15   1
  -2  -1  -5 15841.7 1304.58   1
  -3   3  -1 11408.0 3935.92   1
  -3   3  -1 15973.3 1790.36   1
   3  -3   1 12018.2 1324.94   1
   3  -3   1 15951.6 1505.67   1
  -3  -3  -1 12751.7 1016.28   1
   3   3   1 17235.4 2241.91   1
   3   3   1 15025.0 2071.14   1
  -1   3  -3 -4248.9 1051.22   1
   1  -3   3 -347.00 294.490   1
  -1   3  -3 -725.76 485.800   1
  -1  -3  -3 624.640 230.160   1
   1   3   3 227.260 372.550   1
   1   3   3 689.640 993.190   1
   6   0   1 -1634.4 1274.09   1
  -6   0  -1 868.660 784.150   1
   5  -2   1 34718.7 2829.10   1
   5  -2   1 28887.9 1918.99   1
  -5   2  -1 26071.5 4685.63   1
  -5   2  -1 20640.2 1426.57   1
   5   2   1 25479.3 1455.43   1
  -5  -2  -1 24578.2 1708.22   1
  -5  -2  -1 26941.6 1543.83   1
  -1   0  -6 98793.3 4561.87   1
  -1   0  -6 106420. 5449.98   1
   1   0   6 83102.9 3959.41   1
  -4   3   1 71820.6 3610.18   1
   4  -3  -1 76530.2 3540.18   1
   4  -3  -1 61156.8 2784.84   1
   4   3  -1 78025.6 4010.39   1
   4   3  -1 71562.9 4135.89   1
   4  -3  -2 32166.8 1752.32   1
   4  -3  -2 34254.8 1629.07   1
  -4   3   2 36096.7 3652.10   1
   4   3  -2 37680.9 1770.40   1
   4   3  -2 33213.2 2364.63   1
   4   3  -2 34866.3 1574.92   1
   4   3  -2 38084.5 2223.05   1
   6   1  -5 58949.5 2687.62   1
   6  -1  -5 61612.7 2886.28   1
   6   1  -5 71274.0 3888.37   1
   6  -1  -5 60479.8 3060.41   1
   6   1  -5 69468.9 3261.09   1
  -6   1   5 78706.6 3870.47   1
   1   3  -4 11420.9 2557.85   1
   1   3  -4 13622.2 3313.54   1
   1   3  -4 11648.6 2670.52   1
  -1   3   4 11367.9 2751.02   1
   1  -3  -4 12867.1 1016.61   1
   2   3  -4 23137.6 1488.84   1
   2  -3  -4 25551.3 1628.17   1
   2   3  -4 21878.2 1079.37   1
  -2   3   4 26055.0 1735.75   1
   2   3  -4 30235.9 1833.06   1
   7   0  -3 1863.60 547.040   1
   7   0  -3 -2421.0 1555.14   1
   7   0  -2 62716.4 3479.52   1
   7   0  -2 63999.0 3287.45   1
  -1   2  -5 26639.7 3715.51   1
  -1   2  -5 21895.5 1209.24   1
   1   2   5 22057.0 2614.19   1
  -1  -2  -5 24209.0 1416.55   1
  -1  -2  -5 28296.1 4050.66   1
  -5   1   6 6558.48 1968.62   1
  -5  -1   6 10677.9 2556.30   1
   5  -1  -6 6524.52 1229.05   1
   5   1  -6 7957.67 1768.67   1
   5   1  -6 3250.67 1213.10   1
   5  -1  -6 4456.94 1268.82   1
   5   1  -6 7497.46 2256.04   1
   3   0  -7 -2018.0 841.590   1
  -3   0   7 -624.97 547.570   1
   3   0  -7 -938.71 1075.58   1
   6  -2  -2 74922.5 3649.10   1
   6  -2  -2 64407.7 3140.68   1
  -6   2   2 69907.3 3788.79   1
   6   2  -2 71771.0 4200.53   1
  -2   0   7 1286.26 838.550   1
   2   0  -7 2203.66 939.640   1
   2   0  -7 -1201.8 1048.70   1
   4   0   4 438474. 97498.8   1
  -4   0  -4 424244. 19003.8   1
  -4   3   0 6320.19 1362.02   1
   4  -3   0 3802.36 1005.74   1
  -4   3   0 4905.56 1260.08   1
   4  -3   0 4868.21 1154.91   1
  -4  -3   0 1840.70 436.280   1
  -4  -3   0 6385.78 1290.44   1
   4   3   0 9923.04 2829.39   1
   4   3   0 5216.54 1270.07   1
   6  -2  -3 2589.30 645.580   1
   6  -2  -3 4545.89 2029.54   1
  -6   2   3 -498.03 965.810   1
   6   2  -3 2453.19 753.400   1
   6   2  -3 2959.58 1718.46   1
   6   2  -3 1692.98 478.310   1
  -6   1  -1 14374.8 1401.47   1
  -6  -1  -1 8972.44 1760.28   1
   6   1   1 20187.1 2613.21   1
   6  -1   1 20072.7 2057.26   1
  -6  -1  -1 15026.6 1388.83   1
   6  -1   1 16317.9 1535.16   1
   2   2  -6 8209.01 2557.43   1
   2   2  -6 7153.51 1360.26   1
   2  -2  -6 10797.4 2709.69   1
   2  -2  -6 8002.48 1582.60   1
  -2   2   6 8736.49 1751.51   1
   0   3  -4 558.540 322.370   1
   0   3  -4 385.770 271.490   1
   0   3  -4 3248.16 1058.65   1
   0  -3  -4 1566.48 770.880   1
   0   3   4 3427.06 1430.72   1
   4  -3  -3 4526.71 935.360   1
  -4   3   3 4754.14 1407.36   1
   4  -3  -3 4789.42 1101.34   1
   4   3  -3 6915.00 1946.77   1
   4   3  -3 4237.59 947.840   1
   4   3  -3 1149.98 356.570   1
   5  -2  -5 60863.2 3456.86   1
  -5   2   5 55758.3 2925.48   1
   5  -2  -5 59662.8 2825.30   1
   5   2  -5 51656.0 2565.07   1
   5   2  -5 55208.4 3075.29   1
   5   2  -5 57583.5 2643.51   1
   7   0  -4 999999. 222333.   1
   7   0  -4 828663. 184140.   1
  -3   3   4 1428.95 913.270   1
   3  -3  -4 2244.42 712.700   1
   3   3  -4 1870.37 412.890   1
   3   3  -4 4392.43 1323.24   1
   3   3  -4 1936.77 1254.87   1
   3   3  -4 3475.49 1017.70   1
   7   0  -1 -1420.5 754.350   1
   7   0  -1 1841.73 705.200   1
  -6   2   1 2964.79 1023.54   1
   6  -2  -1 1189.27 772.020   1
  -6   2   1 3164.35 1060.82   1
   6  -2  -1 2601.13 586.330   1
   6   2  -1 2156.92 878.050   1
   6   2  -1 2207.25 569.950   1
   3   2  -6 105090. 4897.53   1
   3  -2  -6 86056.7 4027.63   1
   3   2  -6 93914.4 4457.62   1
   3   2  -6 93187.2 4190.60   1
  -3   2   6 83842.9 3925.05   1
   5   0   3 -997.11 1127.21   1
  -5   0  -3 1427.05 814.980   1
  -5   0  -3 -969.72 1077.98   1
   1   1   6 384.560 1296.60   1
  -1   1  -6 -142.71 920.590   1
  -1  -1  -6 306.100 667.490   1
  -1   1  -6 670.310 511.540   1
  -1  -1  -6 1424.01 954.390   1
  -3   0  -5 1354.52 673.480   1
  -3   0  -5 947.780 640.720   1
   4   0  -7 1069.17 519.980   1
   4   0  -7 -57.330 1119.35   1
  -4   0   7 7.24000 618.080   1
   4   0  -7 -714.13 760.910   1
  -3   3  -2 203455. 9218.11   1
  -3   3  -2 184900. 8520.60   1
   3  -3   2 202766. 9037.39   1
   3  -3   2 165005. 7335.90   1
  -3  -3  -2 179872. 7988.30   1
   3   3   2 179184. 8592.35   1
   2  -3   3 442.310 287.300   1
  -2   3  -3 1867.83 1203.32   1
  -2   3  -3 -101.35 539.200   1
   2   3   3 3167.18 1256.30   1
  -2  -3  -3 1168.95 446.200   1
   2   3   3 981.940 461.060   1
  -2  -3  -3 2349.56 650.890   1
   7  -1  -3 10735.8 2180.79   1
   7   1  -3 8580.74 1852.28   1
   7   1  -3 8162.13 1672.00   1
  -7   1   3 5946.03 1876.90   1
   7  -1  -3 5503.25 1897.85   1
   7   1  -2 7747.69 1557.93   1
   7  -1  -2 13929.8 910.680   1
   7   1  -2 13281.0 809.340   1
   7  -1  -2 12129.3 1335.96   1
  -1   2   6 4376.43 1129.21   1
   1  -2  -6 5293.21 1414.37   1
   1   2  -6 7066.24 1304.61   1
   1   2  -6 4571.20 1063.33   1
   1  -2  -6 7993.74 2251.01   1
   1   0  -7 1643.13 576.140   1
   1   0  -7 2111.80 814.640   1
  -1   0   7 38.0600 864.740   1
   6   0  -6 82908.6 4186.65   1
   6   0  -6 84420.3 4278.87   1
  -6   0   6 89460.8 4301.83   1
  -4  -2  -3 106162. 5034.32   1
   4   2   3 113346. 5433.01   1
   4  -2   3 121803. 5569.52   1
   4   2   3 112576. 5742.11   1
  -4   2  -3 96871.7 4960.57   1
  -3   2  -4 47013.6 2278.46   1
  -3   2  -4 43475.4 7009.55   1
   3   2   4 49035.8 3381.85   1
  -3  -2  -4 46443.8 3913.99   1
  -3  -2  -4 52662.2 2670.31   1
   3   2   4 51862.3 4033.99   1
   3   1  -7 147606. 6668.24   1
   3  -1  -7 147043. 7054.00   1
   3   1  -7 154145. 7084.79   1
  -3   1   7 146661. 6652.76   1
  -3  -1   7 142647. 6319.72   1
   3  -1  -7 136864. 6218.02   1
   2  -1  -7 52209.1 5898.68   1
   2  -1  -7 50977.0 2678.79   1
   2   1  -7 48523.3 2387.56   1
   2   1  -7 60226.3 3335.60   1
  -2   1   7 50651.7 2605.59   1
  -2  -1   7 52739.9 2464.27   1
  -4   1  -4 27314.6 4277.84   1
  -4  -1  -4 26513.6 3983.75   1
   4   1   4 22083.3 1304.85   1
  -4   1  -4 24455.2 1590.58   1
  -4  -1  -4 22645.8 1996.27   1
  -6   2   4 176051. 8935.81   1
   6   2  -4 144223. 6401.76   1
   6  -2  -4 146026. 6533.60   1
   6   2  -4 173784. 8325.78   1
  -4  -2   6 8496.46 1477.81   1
   4   2  -6 9727.95 3124.87   1
   4   2  -6 8906.20 1741.92   1
   4   2  -6 11492.0 2877.59   1
   4  -2  -6 7809.72 1640.75   1
  -4   2   6 11595.6 3672.36   1
   7  -1  -4 11004.1 2662.74   1
   7  -1  -4 7270.27 2082.82   1
  -7   1   4 7852.25 2651.84   1
   7   1  -4 930.160 1405.50   1
   7   1  -4 9692.25 1988.59   1
   7  -1  -1 -317.12 619.050   1
   7   1  -1 -339.98 536.950   1
   7   1  -1 -2596.1 901.080   1
   7  -1  -1 1454.72 555.490   1
  -4   3  -1 740.960 1071.32   1
  -4   3  -1 -888.78 686.100   1
   4   3   1 1261.78 1602.35   1
   4  -3   1 794.400 351.780   1
  -4  -3  -1 -148.29 460.670   1
   4  -3   1 1647.06 401.750   1
   4   3   1 517.610 317.770   1
   5  -1   3 165202. 7600.63   1
  -5   1  -3 201139. 9595.66   1
   5   1   3 160391. 7494.83   1
   6  -2   0 3422.05 700.490   1
  -6   2   0 892.090 839.000   1
  -6   2   0 3373.57 1173.47   1
   6   2   0 5344.54 1427.32   1
   6  -2   0 3649.72 873.760   1
  -1   3  -4 43872.8 2081.33   1
  -1   3  -4 39641.1 5424.45   1
  -1  -3  -4 44213.7 2288.54   1
   1   3   4 47804.5 2346.52   1
  -1  -3  -4 41792.5 2306.91   1
   1   3   4 36129.6 2067.16   1
  -3  -1  -5 55741.1 2740.25   1
  -3   1  -5 55675.3 2696.82   1
  -3  -1  -5 53176.4 5206.11   1
  -3   1  -5 40242.1 3285.18   1
   4  -1  -7 80937.8 3837.73   1
   4   1  -7 79615.3 3801.41   1
   4   1  -7 78152.5 3604.05   1
   4  -1  -7 75529.4 3618.60   1
  -4  -1   7 76183.3 3406.83   1
  -4   1   7 81553.8 3775.48   1
   4   1  -7 74030.9 3775.99   1
   4   3  -4 6621.56 1476.68   1
   4   3  -4 11178.9 2555.92   1
  -4   3   4 14960.3 2537.13   1
   4   3  -4 9882.34 2981.31   1
   4  -3  -4 11295.2 2653.62   1
   7   0  -5 924.350 1406.93   1
  -7   0   5 38.7800 520.890   1
   7   0  -5 -1367.1 550.620   1
   6   0   2 221159. 10653.0   1
  -6   0  -2 242376. 11218.1   1
   7   0   0 248.960 979.870   1
  -7   0   0 -351.80 768.860   1
   7   0   0 225.990 414.420   1
   5   2   2 40312.8 2677.29   1
  -5  -2  -2 36318.7 1831.85   1
   5  -2   2 40556.5 3431.81   1
   5  -2   2 33044.9 1572.73   1
  -5   2  -2 41858.2 2563.95   1
  -5  -2  -2 34762.2 2279.01   1
   1   1  -7 28128.7 4800.82   1
   1  -1  -7 24145.6 8190.06   1
  -1   1   7 33299.3 2226.20   1
   1   1  -7 31549.8 1581.78   1
   1  -1  -7 31156.3 1756.00   1
   0   2   6 7726.01 1863.53   1
   0  -2  -6 6073.42 1516.75   1
   0   2  -6 5621.50 1251.87   1
   0  -2  -6 7070.47 1647.58   1
   0   2  -6 4775.68 1064.69   1
   0   2  -6 8927.29 2024.41   1
  -5   0   7 -1249.8 578.230   1
   5   0  -7 1865.28 810.190   1
   5   0  -7 568.210 511.080   1
   5   0  -7 654.480 698.040   1
  -2   2  -5 38354.3 5453.83   1
  -2   2  -5 32271.5 1788.19   1
  -2  -2  -5 31113.9 2503.59   1
  -2  -2  -5 30287.5 2626.49   1
   2   2   5 33425.3 2851.46   1
   6   1  -6 847.890 550.620   1
   6   1  -6 2588.58 1760.75   1
   6  -1  -6 660.360 982.560   1
   6   1  -6 3981.73 960.140   1
  -6  -1   6 2220.54 1006.58   1
  -6   1   6 1456.88 573.210   1
   6  -1  -6 2505.22 842.580   1
  -2   0  -6 1804.89 1018.46   1
  -2   0  -6 1636.87 715.620   1
   5  -3  -2 81240.5 3724.12   1
   5   3  -2 78071.8 3823.56   1
  -5   3   2 81118.1 5056.56   1
   5  -3  -2 78140.2 3772.80   1
   5   3  -2 89350.4 4188.89   1
   0   4   0 10596.4 1791.27   1
   0  -4   0 12216.4 977.460   1
   0   4   0 6443.92 1415.40   1
   0   0  -7 1065.03 780.340   1
   0   0  -7 -120.49 661.150   1
   0   0   7 88.5000 977.090   1
   2   3  -5 6741.44 1451.62   1
   2  -3  -5 12489.0 1231.20   1
   2   3  -5 10125.5 1736.32   1
   2   3  -5 8207.64 1390.77   1
  -2   3   5 6427.91 1382.10   1
   2   3  -5 6263.57 1911.04   1
   5  -3  -1 988.390 304.990   1
   5   3  -1 2414.29 857.650   1
   5  -3  -1 263.990 222.140   1
  -5   3   1 3077.92 923.330   1
   1   3  -5 10630.3 1758.72   1
   1   3  -5 14801.0 2205.42   1
   1  -3  -5 11799.0 1441.40   1
   1   3  -5 11525.3 2674.07   1
  -1   3   5 9675.80 2019.45   1
   1   4   0 21921.0 1415.95   1
  -1   4   0 21709.4 1324.30   1
   1   4   0 21320.7 1149.42   1
  -1  -4   0 19750.4 1213.59   1
   1  -4   0 21109.0 1055.48   1
   0  -4   1 10007.6 1705.04   1
   0  -4  -1 8858.65 1566.30   1
   0   4  -1 9187.58 2056.91   1
   0   4   1 10293.8 1955.30   1
   0   4  -1 9692.69 1824.41   1
   0   4  -1 10932.6 2652.54   1
   0   4   1 12874.2 1082.77   1
   5   3  -3 16653.2 1263.01   1
   5   3  -3 20867.4 975.780   1
   5  -3  -3 20492.4 1377.96   1
   5  -3  -3 20858.5 1202.48   1
  -5   3   3 26224.4 2907.87   1
   5   3  -3 13803.8 1223.45   1
   1   4  -1 5797.48 1163.74   1
  -1   4   1 5421.22 1379.97   1
   1   4  -1 4479.21 1133.45   1
   1   4  -1 2967.78 675.690   1
   1  -4  -1 6481.98 1326.15   1
  -1  -4   1 4582.30 876.100   1
   3  -3  -5 -745.22 665.680   1
   3   3  -5 1390.39 356.440   1
   3   3  -5 1641.27 887.150   1
   3   3  -5 936.680 1108.57   1
  -3   3   5 -1908.0 845.440   1
   7   1  -5 163235. 7588.53   1
   7   1  -5 138366. 6325.53   1
   7  -1  -5 135675. 6079.04   1
  -7   1   5 183139. 8543.33   1
   7  -1  -5 166542. 8018.91   1
  -6  -1  -2 25516.5 1810.26   1
   6  -1   2 31628.9 3573.96   1
   6   1   2 29737.7 3303.19   1
  -6  -1  -2 28187.8 4108.95   1
  -7  -1   0 -327.32 523.560   1
   7   1   0 -565.18 749.460   1
   7  -1   0 -1374.2 679.170   1
   7  -1   0 1572.39 424.010   1
  -7   1   0 3121.82 1236.74   1
   7   1   0 512.670 235.950   1
  -6   2   5 121477. 5776.48   1
   6  -2  -5 102441. 4613.30   1
   6   2  -5 130359. 6368.95   1
   6   2  -5 106185. 5072.65   1
   6   2  -5 115685. 5280.31   1
   6  -2  -5 122432. 5764.18   1
   5  -2  -6 170230. 7848.08   1
   5   2  -6 167279. 7688.81   1
   5   2  -6 163386. 7280.92   1
   5  -2  -6 150627. 6779.13   1
  -5   2   6 182935. 8277.85   1
   5   2  -6 181208. 8293.70   1
  -5  -1   7 68126.4 3073.27   1
   5   1  -7 79907.1 4034.79   1
  -5   1   7 94403.3 4515.60   1
   5  -1  -7 82655.4 4121.52   1
   5   1  -7 76338.2 3493.71   1
   5   1  -7 77086.4 3700.28   1
   5  -1  -7 78660.9 3869.59   1
   2   1   6 24681.9 2515.47   1
  -2   1  -6 25051.2 1384.40   1
  -2  -1  -6 27657.3 4605.32   1
  -2   1  -6 25970.8 4239.03   1
  -2  -1  -6 29259.1 2075.76   1
   1   4   1 3387.82 767.900   1
   1  -4   1 3532.83 628.150   1
  -1  -4  -1 3487.07 781.360   1
   1   4   1 4198.47 1047.80   1
  -1   4  -1 4068.82 1357.45   1
  -1   4  -1 3646.48 946.180   1
  -3   3  -3 1606.99 1389.02   1
   3   3   3 1734.15 1797.20   1
  -3  -3  -3 1368.59 447.530   1
   3   3   3 2335.05 754.130   1
  -3  -3  -3 953.870 498.260   1
   3  -3   3 2058.82 725.630   1
  -3   3  -3 1277.29 494.200   1
  -5  -3   0 -88.250 457.010   1
  -5   3   0 -143.26 452.090   1
   5  -3   0 288.310 444.190   1
   5  -3   0 997.530 255.640   1
   5   3   0 -728.27 576.460   1
   5   3   0 -1117.6 1387.25   1
  -5   3   0 -3602.3 927.070   1
   0   1   7 16301.3 1831.83   1
   0  -1  -7 21252.8 3317.77   1
  -2  -4   1 666.500 168.480   1
   2  -4  -1 -460.44 434.180   1
   2   4  -1 1614.72 830.010   1
  -2   4   1 477.670 633.760   1
   2   4  -1 3556.36 1586.90   1
  -1   4   2 32701.8 2146.96   1
   1   4  -2 34207.3 1776.97   1
   1   4  -2 29526.5 1493.91   1
   1   4  -2 31538.1 1737.87   1
   1  -4  -2 30106.1 1526.21   1
   0   3  -5 4658.54 923.280   1
   0  -3  -5 5559.59 1370.73   1
   0   3  -5 6878.57 1726.79   1
   0  -3  -5 6575.02 1611.54   1
   0   3  -5 4226.07 1114.23   1
   0   3   5 7376.57 1722.37   1
  -6   2  -1 17084.1 1781.99   1
  -6  -2  -1 20434.8 1177.64   1
   6  -2   1 23657.9 1656.34   1
   6  -2   1 25003.0 3404.91   1
  -6  -2  -1 18340.7 1317.87   1
   6   2   1 26751.6 3705.85   1
  -6   2  -1 22036.8 1684.57   1
   2   4   0 134315. 6041.92   1
  -2   4   0 137972. 6336.32   1
  -2   4   0 126654. 5800.37   1
   2   4   0 123383. 5805.24   1
   2  -4   0 110720. 4924.01   1
  -2  -4   0 119967. 5312.99   1
   4   3   2 183454. 9138.22   1
  -4  -3  -2 183445. 8209.34   1
  -4   3  -2 186802. 8619.23   1
   4  -3   2 194576. 8761.12   1
   4  -3   2 171021. 7697.99   1
  -4   3  -2 180933. 8203.85   1
   4   3   2 152749. 6966.94   1
   0   4  -2 14522.6 1139.75   1
   0   4   2 11736.2 2707.52   1
   0  -4  -2 12781.0 930.340   1
   0  -4   2 10183.9 1648.97   1
   0   4   2 16362.4 1611.53   1
   0   4  -2 12906.4 1251.88   1
  -2   3  -4 93099.6 4881.23   1
  -2   3  -4 91956.4 7088.17   1
  -2  -3  -4 92450.4 5284.99   1
  -2  -3  -4 93288.5 4216.76   1
   2   3   4 83369.6 4242.30   1
   2   3   4 82201.8 3867.74   1
  -1  -2  -6 14139.9 1020.76   1
  -1   2  -6 14021.0 900.620   1
  -1  -2  -6 18568.3 2990.63   1
  -1   2  -6 14378.8 2147.59   1
   1   2   6 10935.8 3086.41   1
   5   3  -4 88027.0 3923.65   1
   5  -3  -4 105222. 5103.55   1
  -5   3   4 109125. 5183.28   1
   5   3  -4 92778.9 4251.09   1
   5   3  -4 93441.1 4639.87   1
   5  -3  -4 90865.4 4169.95   1
  -7   0   6 61219.8 4996.77   1
   7   0  -6 52715.4 2834.23   1
   7   0  -6 49720.3 2359.70   1
   7   0   1 939.570 560.060   1
  -7   0  -1 -1328.3 827.240   1
   4   3  -5 3722.03 1298.79   1
  -4   3   5 3029.28 1349.08   1
   4   3  -5 3586.44 1392.22   1
   4  -3  -5 3581.84 896.890   1
   4   3  -5 3876.47 847.510   1
   7   2  -3 12540.8 1209.75   1
   7  -2  -3 7066.12 1571.54   1
  -7   2   3 11698.0 3663.17   1
   7  -2  -3 14604.4 1753.12   1
   7   2  -3 11570.7 2736.11   1
   7   2  -3 13383.8 2150.54   1
   7  -2  -2 4486.54 1166.42   1
  -7   2   2 1409.83 807.620   1
   7  -2  -2 7907.85 1521.59   1
   7   2  -2 4259.36 1315.01   1
   7   2  -2 7563.88 1633.08   1
  -6   0   7 -937.99 753.480   1
   6   0  -7 697.100 801.220   1
   6   0  -7 1401.08 1160.97   1
   6   0  -7 1551.82 690.950   1
   2   4  -2 1920.09 618.600   1
   2   4  -2 2686.56 1381.06   1
  -2   4   2 1188.92 945.650   1
   2   4  -2 1037.80 785.530   1
   2  -4  -2 1111.09 504.830   1
   8   0  -3 2114.91 1267.60   1
   8   0  -3 493.030 490.790   1
   5   0   4 108154. 5115.60   1
  -5   0  -4 136562. 8263.42   1
  -4   0  -5 -1626.6 1319.47   1
  -4   0  -5 -722.59 774.950   1
   8   0  -2 17330.1 2121.97   1
   8   0  -2 12985.4 1446.32   1
   3   2  -7 57460.5 2982.82   1
   3  -2  -7 53691.1 2935.90   1
   3   2  -7 55394.4 2623.81   1
   3  -2  -7 52808.0 2696.58   1
  -3   2   7 48745.9 2532.95   1
  -1   0  -7 -579.09 1240.24   1
  -1   0  -7 216.450 762.350   1
   2  -2  -7 20647.6 5817.27   1
   2  -2  -7 13652.5 1350.59   1
   2   2  -7 21760.8 1278.78   1
  -2   2   7 19666.7 1563.86   1
   2   2  -7 7382.58 2565.39   1
  -4   2  -4 984.860 654.070   1
  -4   2  -4 3159.85 1109.23   1
   4   2   4 732.490 1502.70   1
   4   2   4 -972.43 931.640   1
  -4  -2  -4 1970.95 637.430   1
  -4  -2  -4 3295.66 990.220   1
   2   4   1 635460. 141199.   1
   2  -4   1 449819. 99955.5   1
  -2  -4  -1 583125. 129571.   1
   2  -4   1 547186. 121588.   1
   2   4   1 583297. 129643.   1
  -2   4  -1 616029. 136915.   1
   1  -4   2 4452.55 861.270   1
   1   4   2 3531.84 1094.94   1
  -1   4  -2 4744.10 1397.74   1
  -1   4  -2 7102.20 1601.57   1
   1   4   2 4162.22 984.340   1
  -1  -4  -2 4052.16 840.160   1
   8   0  -4 27091.3 2659.46   1
   3   0  -8 3928.23 1068.30   1
   3   0  -8 3104.85 1513.09   1
  -3   0   8 1755.95 474.340   1
   7   2  -4 5698.42 1772.86   1
   7   2  -4 1732.82 642.810   1
  -7   2   4 2330.85 1008.78   1
   7  -2  -4 804.120 994.860   1
   7   2  -4 1499.07 434.640   1
   7  -2  -4 1502.41 640.800   1
   7   2  -1 863.530 1076.56   1
   7  -2  -1 4877.36 1037.01   1
   7  -2  -1 3511.68 1327.28   1
   7   2  -1 3926.11 1068.26   1
  -7   2   1 3798.26 1540.90   1
  -5   2  -3 2255.07 1392.26   1
   5   2   3 3749.71 1135.44   1
   5  -2   3 5924.60 1398.08   1
  -5  -2  -3 621.380 686.960   1
  -5  -2  -3 2402.80 801.380   1
  -2   0   8 17724.7 1235.05   1
   2   0  -8 18569.0 2520.78   1
   2   0  -8 22508.3 1835.90   1
  -5  -3  -1 49.6000 554.800   1
   5  -3   1 551.490 279.920   1
  -5  -3  -1 -549.92 167.680   1
   5   3   1 272.820 301.730   1
  -5   3  -1 -222.89 421.140   1
   5   3   1 -1009.7 1523.79   1
  -5   3  -1 370.410 1005.18   1
   5  -3   1 998.970 375.830   1
   3   4  -1 34987.2 2002.17   1
  -3  -4   1 45757.4 2076.44   1
   3  -4  -1 34604.0 1741.28   1
   4   0  -8 82590.9 4573.03   1
   4   0  -8 89793.1 4525.02   1
  -4   0   8 85585.0 3872.12   1
   7  -1  -6 3521.84 1056.81   1
   7   1  -6 12964.3 2013.60   1
   7   1  -6 6934.71 1771.86   1
   7  -1  -6 2004.69 1133.22   1
  -7  -1   6 2805.42 1104.54   1
  -7   1   6 5854.24 1895.69   1
   7   1  -6 4407.21 1195.95   1
   3   2   5 200.490 809.040   1
  -3  -2  -5 869.090 504.170   1
  -3   2  -5 1763.15 969.940   1
   3   2   5 4009.57 1819.86   1
  -3   2  -5 1206.06 640.160   1
  -3  -2  -5 -844.72 559.120   1
   4   2  -7 71094.5 3405.78   1
   1  -4  -3 3297.39 1010.04   1
  -1   4   3 2512.63 899.870   1
   1   4  -3 1577.59 655.060   1
   1   4  -3 4742.73 1282.91   1
  -1   4   3 1487.76 1269.03   1
   1   4  -3 3020.70 1134.63   1
  -7   1  -1 3878.15 1340.92   1
   7  -1   1 6966.64 1831.37   1
   7  -1   1 10128.4 2508.91   1
   7   1   1 6385.91 1714.78   1
  -7  -1  -1 2131.68 763.380   1
   6   0   3 -1976.9 1030.81   1
  -6   0  -3 1709.49 644.290   1
  -6   0  -3 827.410 952.380   1
   6  -1  -7 4939.03 2536.40   1
  -6  -1   7 -106.60 431.820   1
  -6   1   7 8403.33 3009.51   1
   6   1  -7 -630.64 856.070   1
   6  -1  -7 1187.89 987.830   1
   6   1  -7 8486.07 2315.84   1
   6   1  -7 -261.91 589.260   1
  -1  -3  -5 11506.0 1129.72   1
  -1  -3  -5 10915.2 2088.73   1
  -1   3  -5 8258.34 1966.55   1
   1   3   5 11399.1 1989.98   1
  -1   3  -5 8567.37 2225.81   1
  -1   3  -5 10751.9 2503.00   1
   1   2  -7 173942. 8168.21   1
  -1   2   7 170942. 8030.04   1
   1  -2  -7 160296. 7563.10   1
   1   2  -7 170342. 8048.95   1
   1  -2  -7 174739. 8429.33   1
   8   1  -3 118216. 5882.22   1
   8  -1  -3 124197. 6115.13   1
   8   1  -3 117714. 6650.62   1
   8  -1  -3 129015. 8335.09   1
  -8   1   3 119158. 6007.33   1
   3   4  -2 22422.9 1226.30   1
  -3   4   2 22209.5 3518.37   1
   3   4  -2 17783.2 1955.16   1
   3  -4  -2 21438.4 1461.43   1
   3   4  -2 22394.0 1617.60   1
   6  -2  -6 54838.9 2738.30   1
   6  -2  -6 47323.3 2983.47   1
  -6   2   6 57161.7 3112.50   1
   6   2  -6 50464.1 5153.06   1
   6   2  -6 53704.0 2964.78   1
   6   2  -6 59683.4 3614.75   1
   2   4  -3 31848.4 1840.45   1
  -2   4   3 33289.9 1662.49   1
   2   4  -3 36008.1 2108.14   1
   2  -4  -3 28789.9 1710.80   1
  -2   4   3 33685.1 2232.18   1
   2   4  -3 29275.2 1698.06   1
   8   0  -1 -1355.1 876.150   1
   8   0  -1 -1561.4 785.390   1
  -3   0  -6 4243.48 1393.44   1
  -3   0  -6 -44.520 1056.23   1
  -3   4   0 313243. 63703.4   1
   3  -4   0 263381. 12018.3   1
   3   4   0 320344. 65172.6   1
   3   4   0 266990. 54364.2   1
  -3  -4   0 237999. 10913.0   1
  -5   1  -4 7956.18 1987.80   1
  -5  -1  -4 6851.65 1838.65   1
   5   1   4 9297.34 2594.05   1
  -5  -1  -4 11169.0 1230.25   1
   5  -1   4 14728.5 2504.88   1
  -5   1  -4 6498.22 2337.74   1
   0   4   3 36687.8 2416.01   1
   0  -4   3 25448.3 1260.66   1
   0   4   3 31318.2 1688.96   1
   0  -4  -3 31818.6 1790.29   1
   0   4  -3 35185.2 1862.32   1
   0   4  -3 26979.5 1713.25   1
  -4  -1  -5 24135.8 1662.63   1
  -4   1  -5 30223.8 4505.64   1
  -4  -1  -5 22096.5 3779.36   1
   4   1   5 29187.2 2291.58   1
  -4   1  -5 24283.0 1575.41   1
   8  -1  -2 92734.4 5155.63   1
   8   1  -2 96339.1 4497.45   1
   8  -1  -2 91064.6 4664.85   1
   8   1  -2 101798. 5784.66   1
  -1   1  -7 33926.6 4689.95   1
  -1  -1  -7 41214.3 2321.11   1
  -1   1  -7 39851.2 2833.84   1
  -1  -1  -7 35298.3 5125.68   1
   1   1   7 33179.5 2720.00   1
   6  -3  -2 26501.9 1722.03   1
  -6   3   2 21790.5 2201.75   1
   6  -3  -2 39104.3 1976.15   1
   6   3  -2 36568.4 3127.98   1
   6   3  -2 42512.5 2539.18   1
   8   1  -4 37960.4 2068.32   1
   8  -1  -4 38582.4 2622.58   1
   8   1  -4 32058.0 1957.82   1
   8  -1  -4 38370.6 2045.81   1
  -8   1   4 37846.4 5711.05   1
   3  -1  -8 8714.10 2542.30   1
   3  -1  -8 5572.81 2769.50   1
  -3  -1   8 4490.18 1078.57   1
  -3   1   8 5002.68 1497.90   1
   3   1  -8 3886.02 2091.53   1
   3   1  -8 8494.15 2172.68   1
   8   0  -5 -584.46 1321.79   1
  -8   0   5 -2354.3 1222.25   1
   8   0  -5 -349.33 654.010   1
   6  -3  -3 530.870 392.890   1
   6  -3  -3 -919.41 560.150   1
  -6   3   3 898.350 1025.40   1
   6   3  -3 -1750.2 1201.28   1
   6   3  -3 -87.500 171.590   1
   6   3  -3 225.180 97.5000   1
   2   3  -6 10159.8 2944.28   1
   2   3  -6 7603.98 1885.34   1
   2  -3  -6 8830.56 2164.79   1
  -2   3   6 9667.91 2467.35   1
  -5   3   5 25569.7 4748.75   1
   5  -3  -5 21756.3 1346.79   1
   5   3  -5 21002.9 1749.50   1
   5   3  -5 15895.9 936.400   1
   5   3  -5 22364.8 1359.87   1
  -1   0   8 27152.6 1753.10   1
   1   0  -8 29354.1 5322.13   1
   1   0  -8 34803.7 2931.13   1
  -6   3   1 978.960 537.610   1
   6  -3  -1 910.760 383.790   1
   6  -3  -1 2449.39 814.000   1
   6   3  -1 2728.16 1047.04   1
   3  -3  -6 7512.55 1972.33   1
   3   3  -6 5999.12 1559.19   1
   3   3  -6 8286.73 1891.77   1
   3   3  -6 3062.63 1417.17   1
  -3   3   6 8486.45 2204.98   1
  -2   1   8 10349.5 1056.02   1
   2  -1  -8 19743.0 4362.30   1
   2   1  -8 17182.6 1388.20   1
   2  -1  -8 20150.0 1626.10   1
   2   1  -8 18563.7 3317.12   1
  -5   0   8 72122.6 3597.20   1
   5   0  -8 60428.8 4475.54   1
   5   0  -8 75879.7 3989.97   1
   5   0  -8 77135.6 3737.85   1
   4  -1  -8 29178.0 2744.39   1
   4  -1  -8 28797.0 2145.91   1
   4   1  -8 29285.1 5388.23   1
  -4   1   8 31343.7 1986.32   1
  -4  -1   8 30470.1 1569.62   1
   4   1  -8 28032.4 2838.25   1
  -2  -4  -2 91295.4 4221.45   1
  -2   4  -2 100605. 5510.36   1
   2   4   2 102556. 5429.49   1
  -2   4  -2 96892.3 4772.82   1
   2   4   2 99078.8 4713.10   1
   2  -4   2 93184.6 4359.15   1
   7  -2  -5 4291.16 1260.51   1
   7   2  -5 4998.45 1877.68   1
   7  -2  -5 13051.4 1883.00   1
   7   2  -5 9394.80 2389.46   1
   7   2  -5 9107.20 2520.30   1
  -7   2   5 7729.34 2490.55   1
  -6  -2  -2 10657.8 1157.61   1
   6  -2   2 11860.5 1206.14   1
   6   2   2 14779.8 2513.70   1
  -6  -2  -2 8773.39 2555.66   1
  -6   2  -2 14685.4 1552.45   1
   6  -2   2 12431.1 1497.39   1
   7  -2   0 17050.6 1779.74   1
  -7   2   0 17007.8 3724.98   1
  -7   2   0 12324.2 1428.73   1
   7   2   0 17017.4 1325.61   1
   7  -2   0 17745.0 2325.90   1
  -6  -1  -3 88243.1 7042.17   1
  -6   1  -3 78231.9 4056.04   1
   6   1   3 84831.9 4442.41   1
   6  -1   3 77522.6 4036.27   1
  -6   1  -3 81817.1 4206.08   1
   1  -3  -6 29656.6 1700.39   1
   1   3  -6 30438.8 6031.79   1
   1  -3  -6 31990.8 1853.35   1
   1   3  -6 29675.9 1663.76   1
  -1   3   6 34158.1 2240.37   1
   3   4  -3 49191.3 2660.60   1
  -3   4   3 49138.6 3867.87   1
   3   4  -3 49640.9 2642.69   1
   3  -4  -3 52288.3 2669.14   1
   3   4  -3 52201.4 3107.75   1
  -5   2   7 24398.2 2485.43   1
  -5  -2   7 26008.8 1334.73   1
   5   2  -7 21844.8 3507.65   1
   5   2  -7 23309.9 2537.01   1
   5  -2  -7 23106.7 3285.38   1
   5   2  -7 18507.2 2117.63   1
   8  -1  -1 32611.9 2660.93   1
   8   1  -1 35234.5 2960.74   1
   8   1  -1 38257.2 2989.49   1
   8  -1  -1 34279.1 1991.27   1
  -3  -1  -6 26256.8 3341.56   1
  -3   1  -6 20038.1 1397.02   1
  -3   1  -6 25111.3 4658.25   1
  -3  -1  -6 22581.9 2634.89   1
   2   2   6 30004.6 3114.16   1
  -2  -2  -6 30842.4 1676.37   1
  -2   2  -6 28489.0 1575.89   1
  -2  -2  -6 30259.4 3943.50   1
  -2   2  -6 35200.3 5499.29   1
   4   3   3 1412.39 871.040   1
   4   3   3 -5229.8 1939.51   1
  -4   3  -3 -675.99 1071.61   1
   4  -3   3 210.360 331.850   1
  -4   3  -3 -26.810 662.850   1
  -4  -3  -3 2428.86 879.640   1
   4  -3   3 -512.94 429.640   1
  -4  -3  -3 -412.31 300.900   1
   3  -4   1 173168. 7920.26   1
  -3  -4  -1 158064. 7235.61   1
   3   4   1 176879. 8283.98   1
   3   4   1 147007. 7197.67   1
  -3  -3  -4 7379.51 1889.90   1
  -3   3  -4 9186.60 2511.69   1
   3   3   4 9062.42 2365.34   1
  -3  -3  -4 3741.51 1067.92   1
   3   3   4 3385.33 1967.01   1
  -3   3  -4 5535.83 1882.52   1
   1   4   3 40457.9 2937.64   1
   1  -4   3 33086.7 1564.55   1
  -1   4  -3 32237.3 2763.25   1
  -1  -4  -3 34758.4 2089.13   1
   1   4   3 28031.8 1734.37   1
  -1   4  -3 24894.2 1934.23   1
   0   2  -7 -1265.9 1196.12   1
   0   2   7 3325.17 1287.25   1
   0  -2  -7 5474.05 1851.92   1
   0   2  -7 2921.33 841.040   1
   0  -2  -7 1107.87 502.000   1
  -6   3   4 18375.3 3040.71   1
   6  -3  -4 11849.2 969.070   1
   6  -3  -4 14082.5 915.480   1
   6   3  -4 11106.1 1267.28   1
   6   3  -4 11348.1 1852.67   1
   6   3  -4 15611.5 1070.77   1
   7   0  -7 -2532.4 789.280   1
  -7   0   7 -1302.6 721.240   1
   7   0  -7 623.150 1254.29   1
  -8   1   5 19265.1 3085.61   1
   8  -1  -5 11883.4 1562.80   1
   8   1  -5 13999.1 2045.07   1
   8  -1  -5 15284.9 1115.16   1
   8   1  -5 15604.6 1039.57   1
   7   0   2 10760.8 1287.07   1
  -7   0  -2 5834.36 1509.48   1
   4   3  -6 9743.26 2968.32   1
   4   3  -6 12466.0 1458.77   1
   4   3  -6 9733.43 2464.71   1
   4  -3  -6 8740.56 2145.43   1
  -4   3   6 11588.0 2690.38   1
  -1   1   8 73490.3 3773.32   1
   1  -1  -8 73148.1 3883.90   1
   1   1  -8 73198.8 3542.11   1
   1  -1  -8 68690.3 3411.22   1
   8   0   0 41635.9 2429.97   1
   8   0   0 37937.6 2501.52   1
  -8   0   0 38597.1 2227.83   1
   6  -3   0 -304.98 452.380   1
  -6   3   0 -209.60 874.690   1
  -6   3   0 -1789.9 937.020   1
   6  -3   0 643.030 296.540   1
  -6  -3   0 303.050 505.970   1
   6   3   0 2801.76 1000.37   1
   4   4  -1 15302.1 2742.62   1
  -4   4   1 20003.8 3547.74   1
   4   4  -1 9666.95 2631.50   1
  -4  -4   1 13325.0 801.330   1
   4  -4  -1 13056.3 1393.25   1
   5  -1  -8 73835.3 3660.27   1
   5   1  -8 68545.3 3663.35   1
   5  -1  -8 69826.6 3494.98   1
   5   1  -8 80617.2 4304.13   1
  -5  -1   8 74331.9 3565.01   1
  -5   1   8 79049.6 3836.54   1
   5   1  -8 72118.3 3517.00   1
   4   4  -2 27288.8 2595.07   1
   4   4  -2 27688.2 1277.36   1
   4  -4  -2 29807.4 1615.70   1
  -4   4   2 32081.2 4555.59   1
   4   4  -2 25685.7 1672.72   1
   4   4  -2 29814.8 1446.86   1
  -2   0  -7 1747.73 1035.17   1
  -2   0  -7 -328.57 1266.73   1
   1   4  -4 3312.57 1469.77   1
  -1  -4   4 2600.18 611.320   1
   1   4  -4 1781.76 639.400   1
  -1   4   4 5774.24 1686.02   1
  -1   4   4 2850.60 704.450   1
   1  -4  -4 2406.44 1005.85   1
  -5  -3  -2 225.900 554.520   1
   5  -3   2 -53.340 594.540   1
  -5   3  -2 -161.06 783.030   1
  -5  -3  -2 -173.31 352.060   1
  -5   3  -2 1931.38 1193.39   1
   5   3   2 67.0500 1473.05   1
   5  -3   2 945.610 454.330   1
   5   3   2 809.800 620.000   1
  -2   4   4 3767.51 1402.24   1
   2   4  -4 3324.82 1110.53   1
   2   4  -4 3951.06 1200.62   1
   2  -4  -4 3724.71 1068.42   1
   2   4  -4 3060.31 1071.43   1
   0   3  -6 39035.3 1816.17   1
   2   3   5 21283.7 1184.86   1
  -2   3  -5 23269.0 3775.54   1
  -2   3  -5 18536.4 2099.68   1
   2   3   5 17747.9 2909.85   1
  -2  -3  -5 20143.4 1910.08   1
  -2  -3  -5 19755.3 1282.57   1
  -2   3  -5 19448.8 1163.15   1
   0   0   8 38308.6 2504.45   1
   0   0  -8 49847.1 7794.75   1
   0   0  -8 40998.3 2922.35   1
   8   0  -6 186.800 652.550   1
   8   0  -6 968.150 1428.37   1
  -8   0   6 -701.21 1096.25   1
  -4  -4   0 64381.6 3045.10   1
   4   4   0 62702.1 3352.46   1
  -4   4   0 59588.2 3288.64   1
   4   4   0 60064.2 4293.43   1
  -4   4   0 57044.6 3514.12   1
   4  -4   0 61219.3 2979.06   1
  -6   0   8 19771.2 2476.42   1
   6   0  -8 23395.0 2459.24   1
   6   0  -8 24032.8 4981.02   1
   6   0  -8 22798.5 1407.43   1
   7   1  -7 2140.15 908.770   1
   7   1  -7 -157.50 614.010   1
   7   1  -7 -1724.3 1322.25   1
   7  -1  -7 1322.92 847.440   1
   7  -1  -7 6925.57 2061.46   1
  -7   1   7 9541.66 4124.81   1
   7   1   2 30815.3 3476.46   1
   7  -1   2 23888.7 1419.77   1
  -7  -1  -2 26158.4 1704.92   1
   7  -1   2 33197.9 4145.26   1
  -7  -1  -2 22581.4 1552.00   1
  -7   1  -2 28833.9 1939.87   1
   0   4  -4 -2614.5 1080.43   1
   0   4  -4 35.9900 340.960   1
   0  -4   4 121.270 100.280   1
   0   4   4 2048.92 1217.00   1
   0   4   4 -918.67 493.010   1
   0  -4  -4 190.840 465.730   1
   4  -4  -3 9866.06 2356.42   1
   4   4  -3 8906.89 2052.88   1
   4   4  -3 9346.69 2847.32   1
   4   4  -3 9207.49 2490.03   1
  -4   4   3 10839.9 2144.56   1
   3   4  -4 -1394.4 841.730   1
   3   4  -4 1276.48 994.130   1
   3   4  -4 2302.76 1153.77   1
   3  -4  -4 1418.49 674.260   1
  -3   4   4 -2126.9 718.400   1
  -8   1   0 -529.38 1021.93   1
  -8  -1   0 -368.71 455.270   1
   8  -1   0 1739.39 735.900   1
   8   1   0 -143.21 730.370   1
   8   1   0 -768.53 779.890   1
   8  -1   0 147.090 859.690   1
   7   2  -6 7370.53 1914.99   1
  -7   2   6 4147.33 1731.53   1
   7   2  -6 8244.62 2460.35   1
   7   2  -6 6146.26 1869.18   1
   7  -2  -6 8952.70 2159.92   1
   7  -2  -6 5934.79 1549.11   1
  -2  -1  -7 55518.3 3423.29   1
  -2   1  -7 44623.1 7395.60   1
   2   1   7 46967.7 3646.68   1
  -2  -1  -7 49642.9 5512.93   1
  -2   1  -7 50677.8 3368.10   1
  -7  -2  -1 7655.76 1805.57   1
  -7  -2  -1 9176.05 2292.98   1
   7  -2   1 11419.4 1161.62   1
  -7   2  -1 11027.8 1413.36   1
   7  -2   1 10582.5 1175.12   1
   7   2   1 9937.86 2353.93   1
   3  -4   2 84772.0 3936.63   1
  -3   4  -2 83498.2 4556.89   1
   3  -4   2 69678.4 3553.38   1
   3   4   2 82962.5 4976.11   1
  -3   4  -2 80210.1 4222.00   1
   3   4   2 84757.9 4088.16   1
  -3  -4  -2 80799.8 3980.96   1
   6  -3  -5 10887.7 1203.68   1
  -6   3   5 11754.0 1981.95   1
   6  -3  -5 11199.9 1851.35   1
   6   3  -5 11449.3 1373.85   1
   6   3  -5 5006.12 1715.47   1
   6   3  -5 11986.4 1824.07   1
   2   4   3 8564.16 2313.06   1
   2  -4   3 7263.43 1870.21   1
  -2  -4  -3 8817.98 2042.73   1
  -2   4  -3 4513.27 1768.91   1
  -2   4  -3 12792.4 2635.32   1
   2   4   3 8239.24 2473.35   1
   6  -2  -7 22489.7 2375.98   1
   6   2  -7 17036.7 2131.42   1
   6   2  -7 17211.9 1896.66   1
  -6   2   7 18921.7 3078.57   1
   6  -2  -7 16863.5 1522.09   1
  -6  -2   7 15573.1 1958.75   1
   6   2  -7 17911.6 1169.39   1
   5   3  -6 7114.37 2381.63   1
   5   3  -6 10614.0 1333.22   1
   5   3  -6 10616.7 1967.39   1
   5  -3  -6 15669.1 1979.17   1
  -5   3   6 10566.1 1725.24   1
  -8   2   3 54192.5 3861.75   1
   8  -2  -3 53041.4 2769.94   1
   8   2  -3 59621.3 3772.68   1
   8  -2  -3 62489.0 3056.44   1
   8   2  -3 61992.7 3163.76   1
  -5  -2  -4 94548.7 4573.33   1
  -5   2  -4 84701.7 4256.18   1
   5  -2   4 89210.5 6863.73   1
   5   2   4 82159.1 5317.45   1
  -5  -2  -4 89056.6 4675.58   1
  -5   2  -4 89504.9 6899.40   1
   0   1  -8 3954.95 1223.13   1
   0   1   8 5546.74 1868.54   1
   0  -1  -8 5359.83 1506.97   1
   0  -1  -8 2713.18 1472.89   1
   0   1  -8 6935.64 1825.87   1
   8  -1  -6 24143.2 1425.48   1
   8   1  -6 24523.3 1597.03   1
   8   1  -6 24237.8 2121.74   1
  -8   1   6 19583.8 1276.52   1
   8  -1  -6 21972.4 1814.98   1
   4   2   5 4187.21 1665.54   1
  -4  -2  -5 1056.10 654.580   1
  -4   2  -5 1650.95 850.470   1
   4   2   5 -25.700 960.050   1
  -4  -2  -5 -2209.5 882.380   1
  -4   2  -5 2109.64 1038.83   1
  -8   2   2 2070.00 954.430   1
   8   2  -2 1825.83 991.920   1
   8  -2  -2 3144.32 1214.74   1
   8  -2  -2 2407.14 663.900   1
   8   2  -2 3147.25 960.970   1
   1   2   7 -491.42 1285.51   1
  -1   2  -7 3962.20 1342.40   1
  -1  -2  -7 3747.87 1295.85   1
  -1  -2  -7 1970.68 838.990   1
  -1   2  -7 425.480 260.570   1
  -5   0  -5 -206.29 732.770   1
   5   0   5 741.900 448.680   1
  -5   0  -5 -2227.3 1407.73   1
  -8   2   4 130387. 6296.49   1
   8   2  -4 132941. 6155.23   1
   8  -2  -4 121951. 5845.89   1
   8   2  -4 116010. 5847.12   1
   8  -2  -4 119598. 5786.52   1
   8   2  -4 113771. 5354.07   1
   6   1  -8 18331.7 3081.73   1
   6   1  -8 15868.2 1946.88   1
   6   1  -8 15047.3 2272.12   1
   6  -1  -8 15598.6 2662.88   1
  -6  -1   8 15379.0 2677.66   1
  -6   1   8 15455.3 2528.74   1
   6  -1  -8 14336.1 1357.63   1
   3   2  -8 47804.0 3012.28   1
   3   2  -8 41069.9 2134.70   1
   3  -2  -8 38777.0 4983.31   1
  -3   2   8 44791.9 2532.74   1
   3  -2  -8 43457.8 2888.02   1
   6  -3   1 17124.9 2105.49   1
   6  -3   1 18229.2 2253.94   1
  -6   3  -1 16566.2 1511.71   1
  -6   3  -1 16207.3 3774.13   1
  -6  -3  -1 14143.3 998.550   1
   6   3   1 15840.5 2406.92   1
  -6  -3  -1 14385.7 730.420   1
   6   0   4 1639.93 682.440   1
  -6   0  -4 1563.54 1029.55   1
  -6   0  -4 1786.05 908.380   1
  -4   4  -1 -697.33 813.390   1
   4  -4   1 1602.31 595.550   1
  -4  -4  -1 1322.63 453.750   1
   4  -4   1 833.740 218.780   1
   4   4   1 3404.67 1035.66   1
  -4  -4  -1 171.850 171.680   1
  -4   4  -1 1044.94 976.930   1
   4   4   1 9262.83 2811.42   1
   9   0  -3 3484.05 1154.48   1
   9   0  -3 877.280 539.070   1
   2   2  -8 5562.37 2007.70   1
   2   2  -8 4636.98 1201.35   1
  -2   2   8 7239.78 1977.32   1
   2  -2  -8 2453.56 1017.17   1
   2  -2  -8 1650.27 1059.38   1
  -4   0  -6 -2013.7 1121.72   1
  -4   0  -6 440.510 664.010   1
  -1   3  -6 1242.29 728.590   1
  -1   3  -6 1193.72 554.190   1
  -1   3  -6 3981.70 1205.52   1
   1   3   6 1455.66 1296.67   1
  -1  -3  -6 1529.89 596.390   1
  -1  -3  -6 3752.81 1123.27   1
   1  -4   4 24331.2 1783.78   1
  -1   4  -4 16563.7 1937.98   1
  -1   4  -4 22110.7 1895.90   1
  -1  -4  -4 19826.4 1234.44   1
   1   4   4 19563.0 1820.81   1
   1   4   4 17602.3 1090.38   1
   4   2  -8 17385.8 2879.46   1
  -4   2   8 16358.0 1513.10   1
   4  -2  -8 11508.3 1323.77   1
   4   2  -8 17013.3 1733.98   1
   4   2  -8 19281.2 1509.87   1
   4  -2  -8 18990.1 2721.22   1
   4   4  -4 12440.2 1643.14   1
   4   4  -4 10001.2 2761.23   1
   4   4  -4 11287.0 1411.86   1
  -4   4   4 15599.4 1399.23   1
   4  -4  -4 18624.2 2515.81   1
   8   0   1 616.470 303.290   1
  -8   0  -1 -410.53 722.400   1
   8   0   1 1166.16 599.420   1
   9   0  -4 -391.58 1292.49   1
   9   0  -4 153.490 703.150   1
  -6  -2  -3 62.1300 671.750   1
   6   2   3 2935.76 1100.93   1
  -6   2  -3 3627.24 1433.41   1
  -6  -2  -3 2927.84 914.120   1
   6  -2   3 5344.20 1449.45   1
   7   3  -3 51255.9 2437.69   1
   7  -3  -3 61117.4 3097.52   1
  -7   3   3 43093.8 4134.66   1
   7  -3  -3 55528.1 2893.35   1
   7   3  -3 50513.1 2855.14   1
   7  -3  -2 63551.3 3177.64   1
   7   3  -2 68625.6 4052.32   1
   7  -3  -2 72942.8 3521.68   1
   7   3  -2 79602.3 3760.22   1
  -7   3   2 66551.6 3785.00   1
  -8   2   1 22152.6 3818.48   1
   8   2  -1 21354.7 1770.85   1
   8  -2  -1 17474.7 1460.22   1
   8   2  -1 24474.1 2170.58   1
   8  -2  -1 21984.6 1682.78   1
  -3  -2  -6 -1923.8 844.240   1
  -3   2  -6 -382.52 666.870   1
  -3  -2  -6 2904.97 897.710   1
   3   2   6 -75.120 1405.28   1
  -3   2  -6 1912.01 817.470   1
   9   0  -2 3690.93 1354.13   1
   9   0  -2 6354.99 1683.49   1
   5  -4  -2 71.8800 96.0000   1
  -5   4   2 285.120 643.280   1
   5   4  -2 -1435.1 1188.00   1
   5   4  -2 1082.12 922.320   1
   5  -4  -2 680.100 507.400   1
   5   4  -2 294.740 115.170   1
   3   3  -7 17059.7 1163.53   1
   3   3  -7 16685.7 1992.48   1
   3   3  -7 17882.4 3361.32   1
  -3   3   7 18727.2 1557.56   1
   3  -3  -7 20744.8 2851.98   1
   5   1   5 1375.83 751.390   1
  -5  -1  -5 1167.46 677.160   1
  -5  -1  -5 2114.93 1158.31   1
  -5   1  -5 -112.64 1005.98   1
  -5   1  -5 -249.79 1698.83   1
   5  -1   5 950.600 399.240   1
   3   0  -9 386.700 646.560   1
  -3   0   9 -570.60 473.100   1
   3   0  -9 1203.65 1414.88   1
   2   3  -7 8739.83 2017.28   1
   2   3  -7 4992.13 2239.42   1
  -2   3   7 13520.9 1417.33   1
   2  -3  -7 10260.4 1205.58   1
   2  -3  -7 12051.8 1313.27   1
  -4   3  -4 2259.92 1162.76   1
   4   3   4 1402.78 1695.36   1
   4   3   4 6117.43 1625.80   1
  -4  -3  -4 5844.68 1557.94   1
  -4  -3  -4 2391.99 940.440   1
  -4   3  -4 5016.79 2100.54   1
  -1   0  -8 33482.6 3868.19   1
  -1   0  -8 33069.0 2108.76   1
   2   4  -5 34356.0 6333.90   1
   2   4  -5 34874.3 2010.12   1
   2   4  -5 35324.2 1898.82   1
   2  -4  -5 36289.0 2767.56   1
  -2   4   5 39242.7 2290.17   1
   5  -4  -1 36162.4 2336.40   1
  -5   4   1 30916.4 4261.61   1
   5  -4  -1 26795.6 1328.45   1
   5   4  -1 30637.8 1668.74   1
   5   4  -1 30988.9 3009.25   1
   4   0  -9 110.720 844.000   1
   4   0  -9 -557.64 1099.98   1
  -4   0   9 -859.78 434.420   1
  -8   2   5 48328.2 5249.15   1
   8   2  -5 47218.1 2340.00   1
   8  -2  -5 40062.2 2434.13   1
   8   2  -5 40367.1 2867.20   1
   8  -2  -5 43895.2 2238.54   1
   8   2  -5 36928.3 1840.29   1
  -8   0   7 -1986.6 805.660   1
   8   0  -7 -930.38 1196.27   1
   8   0  -7 209.210 311.110   1
   7  -3  -4 2887.86 1124.13   1
  -7   3   4 2960.06 1044.73   1
   7  -3  -4 2655.51 833.130   1
   7   3  -4 517.590 310.420   1
   7   3  -4 1607.58 598.150   1
   7   3  -4 750.510 1268.46   1
   7  -3  -1 97.5400 273.680   1
  -7   3   1 -653.86 819.610   1
   7  -3  -1 1128.81 607.500   1
   7   3  -1 438.270 279.320   1
   7   3  -1 832.510 973.090   1
  -6   1  -4 -559.04 1216.45   1
   6   1   4 -1924.2 1014.49   1
  -6  -1  -4 6144.01 1664.00   1
   6  -1   4 760.570 423.180   1
  -6   1  -4 80.8200 819.710   1
  -6  -1  -4 1011.67 888.420   1
   1   4  -5 36072.3 6254.92   1
   1   4  -5 31507.8 1590.30   1
  -1   4   5 31773.9 1938.33   1
   1  -4  -5 34929.8 2019.18   1
   1   2  -8 -518.77 407.790   1
   1   2  -8 3533.18 1346.40   1
   1  -2  -8 1091.54 767.810   1
   1  -2  -8 658.970 525.530   1
  -1   2   8 -945.99 930.230   1
  -5   4   3 2318.24 830.140   1
   5  -4  -3 -409.99 585.450   1
   5   4  -3 341.320 104.700   1
   5   4  -3 -1231.5 990.220   1
   7   0  -8 138202. 6620.25   1
   7   0  -8 142286. 6932.56   1
   7   0  -8 129305. 6024.62   1
  -5   3  -3 28597.9 2308.04   1
   5   3   3 21178.0 2435.17   1
  -5   3  -3 28467.3 1865.27   1
  -5  -3  -3 36247.7 2641.38   1
  -5  -3  -3 29781.1 3565.60   1
   5   3   3 31731.7 2412.42   1
   5  -3   3 25827.0 2889.77   1
   5  -3   3 30585.1 1755.82   1
   9  -1  -3 18065.8 2328.63   1
  -9   1   3 14797.0 2000.13   1
   9   1  -3 15365.3 2190.13   1
   9  -1  -3 10123.1 2377.39   1
   9   1  -3 16497.4 3495.37   1
  -9   0   5 3690.61 1845.17   1
   9   0  -5 970.440 803.180   1
   9   0  -5 -1570.9 1490.61   1
  -7   0  -3 2995.07 1280.18   1
   7   0   3 2082.86 690.370   1
  -7   0  -3 -501.60 981.020   1
   4   1   6 1703.11 810.100   1
  -4   1  -6 1284.61 846.690   1
  -4   1  -6 5314.04 1556.65   1
  -4  -1  -6 -289.39 684.850   1
  -4  -1  -6 1513.44 811.620   1
  -5  -2   8 155.180 145.590   1
   5   2  -8 1738.63 969.610   1
   5   2  -8 1619.11 1088.38   1
   5  -2  -8 304.240 404.420   1
   5   2  -8 2436.60 1520.81   1
  -5   2   8 -560.97 715.930   1
  -2   0   9 -1544.3 588.780   1
   2   0  -9 1372.89 566.380   1
   2   0  -9 991.120 810.540   1
   3   4  -5 1695.25 885.050   1
   3   4  -5 6448.67 1923.73   1
   3   4  -5 4336.25 1616.92   1
  -3   4   5 1002.19 821.050   1
   3  -4  -5 5009.58 1455.48   1
  -3  -3  -5 4177.25 1206.70   1
  -3   3  -5 3750.99 996.680   1
  -3  -3  -5 4225.43 1287.77   1
  -3   3  -5 3210.65 1183.17   1
   3   3   5 4411.16 1263.04   1
  -3   3  -5 3308.27 1098.00   1
   3   3   5 5216.72 2143.01   1
   4  -3  -7 46236.7 2482.74   1
   4   3  -7 50948.0 3016.29   1
   4   3  -7 51236.7 2933.68   1
  -4   3   7 39663.2 3032.11   1
   4   3  -7 44826.7 2201.41   1
  -8   1  -1 37062.1 2276.00   1
   8   1   1 43769.9 3993.18   1
   8  -1   1 43891.9 4348.70   1
   8  -1   1 42274.8 2721.67   1
  -8  -1  -1 41092.7 2189.67   1
   9   1  -4 484.440 1284.41   1
  -9   1   4 -356.30 1319.79   1
   9  -1  -4 -514.46 1299.95   1
   9   1  -4 1667.97 776.810   1
   9  -1  -4 369.560 639.320   1
   1   3  -7 14732.4 856.860   1
   1   3  -7 12786.1 2486.53   1
  -1   3   7 22691.8 1862.55   1
   1  -3  -7 18088.0 1389.64   1
   1  -3  -7 13235.2 2395.13   1
  -3   0  -7 -60.740 648.550   1
  -3   0  -7 2228.67 1022.89   1
   6  -3  -6 2864.67 1265.34   1
   6  -3  -6 -1478.1 671.290   1
  -6   3   6 2556.02 917.720   1
   6   3  -6 1427.99 506.380   1
   6   3  -6 2248.71 1724.91   1
   6   3  -6 1257.08 532.470   1
  -5   0   9 -483.86 465.410   1
   5   0  -9 -41.770 639.370   1
   5   0  -9 -174.92 930.450   1
   9   1  -2 43710.4 3011.88   1
   9  -1  -2 48110.1 2817.39   1
   9   1  -2 56229.8 3087.79   1
   9  -1  -2 49557.9 2950.66   1
  -3   4  -3 7686.16 2549.03   1
  -3   4  -3 14330.1 1583.41   1
  -3  -4  -3 9590.96 2274.62   1
   3  -4   3 8841.76 2139.03   1
   3   4   3 11781.9 2108.20   1
   3   4   3 9134.68 2473.16   1
  -3  -4  -3 7949.66 1860.50   1
  -5   4   0 -213.75 909.820   1
  -5   4   0 -1287.3 755.930   1
   5  -4   0 -65.080 228.260   1
   5  -4   0 964.220 554.080   1
   5   4   0 567.110 1879.53   1
   5   4   0 -251.52 687.650   1
  -5  -4   0 934.090 667.530   1
   3   1  -9 20413.2 4415.32   1
  -3   1   9 22909.3 1449.95   1
   3  -1  -9 21052.0 1723.97   1
   3   1  -9 20567.1 1529.20   1
   3  -1  -9 21357.2 2846.32   1
  -3  -1   9 25515.7 1407.43   1
   9   0  -1 -958.09 968.230   1
   9   0  -1 -150.91 687.880   1
  -1  -1  -8 60693.3 4952.52   1
   1   1   8 58013.3 3714.93   1
  -1  -1  -8 59288.3 3208.23   1
  -1   1  -8 59582.3 3681.36   1
   4   1  -9 40556.1 2485.91   1
   4  -1  -9 34814.9 1943.41   1
   4   1  -9 36399.9 2175.85   1
  -4   1   9 40910.2 2110.07   1
  -4  -1   9 39643.6 1826.54   1
   4  -1  -9 39669.2 2283.39   1
   7   2  -7 8156.04 1362.08   1
  -7   2   7 8064.85 1615.98   1
   7  -2  -7 9710.56 1319.83   1
   7   2  -7 3759.61 1343.46   1
   7  -2  -7 8704.49 1049.37   1
   7   2  -7 9749.32 1437.63   1
   0   4  -5 4100.03 993.200   1
   0   4  -5 6925.28 1799.70   1
   0  -4  -5 6491.90 850.790   1
   0   4   5 5388.18 1310.68   1
  -7  -2  -2 2054.36 875.240   1
  -7  -2  -2 3269.35 877.670   1
  -7   2  -2 1547.83 1148.73   1
   7  -2   2 6186.21 1897.81   1
   7   2   2 3828.69 1090.14   1
   8  -1  -7 16094.4 1797.85   1
   8   1  -7 19780.8 1565.63   1
  -8  -1   7 14463.9 1053.65   1
  -8   1   7 14138.5 3712.72   1
   8   1  -7 18561.0 2774.40   1
   8  -1  -7 17298.0 2464.06   1
   8   1  -7 16940.2 1912.41   1
   4   4   2 6633.04 893.950   1
   4  -4   2 6101.00 1513.21   1
   4  -4   2 5024.83 1128.00   1
   4   4   2 5630.37 2075.95   1
  -4  -4  -2 6255.13 1838.29   1
  -4   4  -2 5917.34 1863.71   1
  -4   4  -2 5850.48 1769.98   1
  -4  -4  -2 4831.92 1259.52   1
   2  -4   4 4006.31 930.260   1
  -2   4  -4 5252.17 1640.50   1
  -2   4  -4 5226.57 1523.91   1
   2   4   4 5235.40 1973.51   1
  -2  -4  -4 2593.77 722.980   1
   2   4   4 2745.86 701.980   1
  -2  -4  -4 4451.27 1137.34   1
  -8   2   0 461.790 906.160   1
  -8   2   0 287.620 1314.14   1
   8   2   0 1464.19 646.750   1
   8  -2   0 -188.21 581.840   1
   8  -2   0 -699.79 653.830   1
   8   2   0 -889.46 692.210   1
   7   1  -8 2749.07 1192.66   1
  -7  -1   8 1701.23 707.960   1
   7  -1  -8 2963.91 1093.84   1
   7   1  -8 16914.0 3309.73   1
   9  -1  -5 16829.7 1920.51   1
   9   1  -5 18123.2 1239.37   1
  -9   1   5 19507.7 2894.54   1
   9  -1  -5 21093.4 2679.46   1
   9   1  -5 17196.1 1967.36   1
   7   1   3 5511.77 1463.31   1
   7  -1   3 4640.62 1403.15   1
  -7   1  -3 4296.84 1491.03   1
  -7  -1  -3 5971.74 1541.52   1
  -7  -1  -3 10170.0 1586.51   1
   5   4  -4 2819.60 1124.40   1
   5  -4  -4 2337.90 757.070   1
  -5   4   4 3344.47 1193.25   1
   5   4  -4 1282.83 666.840   1
  -2  -1   9 4688.00 1219.85   1
   2   1  -9 6821.58 1283.92   1
   2  -1  -9 4742.29 1198.67   1
   2   1  -9 7074.11 1078.80   1
   2  -1  -9 7841.18 1329.26   1
  -2   1   9 1953.42 754.680   1
   2   2   7 -1895.9 1498.07   1
  -2   2  -7 1409.86 496.470   1
  -2  -2  -7 -1522.6 999.890   1
  -2   2  -7 1227.40 704.240   1
  -2  -2  -7 -0.7900 624.680   1
  -7   3   5 -1911.9 845.520   1
   7  -3  -5 1909.54 1100.36   1
   7  -3  -5 -382.66 642.060   1
   7   3  -5 1057.13 572.240   1
   7   3  -5 3290.37 1994.17   1
   7   3  -5 1268.93 478.910   1
   4   4  -5 146315. 6527.16   1
  -4   4   5 129344. 6676.73   1
   4  -4  -5 135066. 6107.56   1
   6  -3   2 69957.1 4171.62   1
  -6  -3  -2 53016.0 2647.30   1
   6   3   2 64034.1 4156.65   1
  -6  -3  -2 47772.0 2238.54   1
  -6   3  -2 58217.5 2917.54   1
  -6   3  -2 56682.0 4715.82   1
   7  -3   0 1427.07 498.850   1
  -7   3   0 -559.64 937.680   1
  -7   3   0 1859.30 957.020   1
   7  -3   0 888.450 518.850   1
   7   3   0 1577.91 510.470   1
  -1   0   9 -2767.0 998.370   1
   1   0  -9 3480.62 1613.73   1
   1   0  -9 -440.37 719.390   1
  -5   3   7 10983.8 2377.39   1
   5  -3  -7 11265.8 1375.64   1
   5   3  -7 8673.65 1226.87   1
   5   3  -7 11207.7 1664.38   1
   5   3  -7 7099.73 1141.23   1
  -3   1  -7 26323.0 2494.62   1
  -3  -1  -7 28105.9 4175.58   1
  -3   1  -7 31809.7 4342.32   1
  -3  -1  -7 29674.0 1772.87   1
  -2   3  -6 1323.68 813.400   1
  -2   3  -6 5355.55 1665.57   1
  -2   3  -6 985.240 468.210   1
   2   3   6 1905.52 1060.70   1
  -2  -3  -6 1736.10 619.410   1
  -2  -3  -6 2577.77 708.480   1
   2   3   6 3537.62 1665.96   1
   5   1  -9 2156.58 1559.78   1
   5  -1  -9 -636.64 781.220   1
   5   1  -9 1303.64 1208.13   1
  -5  -1   9 75.3900 350.120   1
  -5   1   9 2442.20 783.590   1
   5   1  -9 942.110 733.160   1
   5  -1  -9 1893.10 651.660   1
   0   2  -8 3390.99 1314.56   1
   0   2  -8 -109.64 480.740   1
   0   2   8 -1090.0 1121.88   1
   0  -2  -8 179.010 516.450   1
   0  -2  -8 1469.49 937.470   1
   8  -2  -6 4428.65 1086.85   1
   8   2  -6 3112.33 1477.23   1
   8  -2  -6 1996.43 1001.00   1
   8   2  -6 1679.13 957.740   1
  -8   2   6 2129.06 807.100   1
   8   2  -6 2101.27 607.940   1
  -9   0   6 27328.9 2295.17   1
   9   0  -6 30954.6 2243.51   1
   9   0  -6 28716.5 1963.37   1
   0   5   0 117.320 844.530   1
   0  -5   0 135.040 269.850   1
   0   5   0 -3.3300 211.560   1
   0   3  -7 12509.8 909.490   1
   0   3  -7 14893.4 2558.01   1
   0  -3  -7 14785.9 1213.15   1
   0  -3  -7 14614.5 2180.13   1
   0   3   7 11122.4 1599.44   1
   9   1  -1 14715.5 1497.45   1
   9  -1  -1 19350.7 2024.18   1
   9   1  -1 22739.5 3426.44   1
   9  -1  -1 18887.3 1478.80   1
   6   2  -8 1256.92 1569.08   1
  -6  -2   8 -132.07 313.610   1
  -6   2   8 1195.16 549.200   1
   6   2  -8 458.830 1126.74   1
   6  -2  -8 274.060 641.480   1
   6   2  -8 1015.94 619.730   1
   6   0  -9 2193.55 980.640   1
   6   0  -9 -221.44 976.400   1
  -6   0   9 302.550 291.500   1
   6   0  -9 -571.23 839.880   1
   1  -5   0 59572.0 2734.66   1
  -1  -5   0 50409.3 2254.56   1
  -1   5   0 53841.7 2843.20   1
   1   5   0 50170.4 2536.79   1
   1   5   0 62069.5 2839.52   1
   0  -5   1 7594.68 729.910   1
   0  -5  -1 8535.01 756.040   1
   0   5  -1 9735.67 1212.95   1
   0   5   1 9169.12 1513.11   1
   0   5  -1 8999.77 1902.01   1
   0   5   1 6491.38 509.820   1
   0   5  -1 5794.12 1378.90   1
   1   5  -1 8697.75 1063.92   1
   1  -5  -1 8806.15 1318.29   1
   1   5  -1 9927.65 711.720   1
  -1  -5   1 8876.12 452.680   1
  -1   5   1 6935.78 1166.19   1
   8   0   2 22633.9 4100.68   1
  -8   0  -2 12623.7 1031.89   1
  -5   4  -1 3480.48 1413.21   1
   5  -4   1 2490.19 572.830   1
  -5  -4  -1 3186.05 859.810   1
   5  -4   1 1839.33 496.870   1
  -5  -4  -1 1816.41 454.600   1
  -5   4  -1 2918.11 1286.63   1
   5   4   1 1831.71 1930.99   1
   5   4   1 1753.67 630.440   1
   1  -4   5 261.070 385.090   1
  -1   4  -5 929.750 406.870   1
  -1   4  -5 -18.440 1535.33   1
  -1  -4  -5 -991.09 505.570   1
   1   4   5 -492.59 565.010   1
  -1  -4  -5 -273.71 504.500   1
   1   4   5 2044.76 1546.38   1
   1  -1  -9 109798. 5335.09   1
   1   1  -9 120990. 5757.71   1
  -1   1   9 127177. 5862.47   1
   1  -1  -9 128953. 6482.74   1
  -9   0   0 13317.9 1064.80   1
   9   0   0 20500.8 2333.02   1
   9   0   0 11788.1 1158.30   1
  -1   5  -1 -366.32 730.300   1
   1   5   1 158.610 168.870   1
  -1  -5  -1 161.620 326.340   1
   1  -5   1 278.090 149.550   1
   1   5   1 -104.01 905.780   1
  -1   5  -1 -353.35 700.610   1
   9  -1  -6 9072.36 1719.89   1
   9   1  -6 9681.87 1797.03   1
   9  -1  -6 11573.9 1353.82   1
  -9   1   6 9914.61 1862.19   1
   9   1  -6 11426.3 1721.69   1
  -2   0  -8 11305.9 1992.44   1
  -2   0  -8 15432.2 1114.21   1
   6   4  -2 9262.88 1308.21   1
   6  -4  -2 7953.81 1001.12   1
   6  -4  -2 6101.15 1384.68   1
  -6   4   2 7711.00 1451.04   1
   6   4  -2 7926.28 606.940   1
  -5  -2  -5 20757.6 1788.49   1
  -5   2  -5 15183.7 1287.20   1
  -5   2  -5 19762.5 3267.49   1
  -5  -2  -5 15642.2 2546.68   1
   5   2   5 22530.4 2495.44   1
   5  -2   5 20397.4 1323.02   1
   2   5  -1 984.670 936.990   1
  -2  -5   1 717.470 202.960   1
   2  -5  -1 281.760 169.060   1
  -2   5   1 160.010 831.460   1
   2   5  -1 -2.9700 545.970   1
   1   5  -2 34134.3 1640.09   1
   1   5  -2 29351.3 1704.19   1
   1  -5  -2 35295.9 1793.13   1
  -1   5   2 32765.5 2218.08   1
   1   5  -2 35325.4 1851.31   1
   6  -4  -3 504.720 355.670   1
   6  -4  -3 1724.17 508.300   1
  -6   4   3 -500.88 803.200   1
   6   4  -3 1618.14 388.900   1
   6   4  -3 4271.84 1521.56   1
   2   4  -6 6568.91 436.530   1
   2   4  -6 4244.28 1653.86   1
   2  -4  -6 8076.08 1213.66   1
  -2   4   6 9900.02 1409.23   1
  -5   4   5 132514. 5963.33   1
   5  -4  -5 132355. 5824.88   1
   5   4  -5 155323. 7116.98   1
   2  -5   0 13257.8 835.770   1
   2   5   0 7758.34 1526.19   1
  -2   5   0 14022.5 3125.58   1
  -2  -5   0 12771.7 666.910   1
   2   5   0 12180.7 909.690   1
  -6   1   9 23777.4 3179.06   1
  -6  -1   9 15800.5 2290.93   1
   6   1  -9 16202.5 3048.25   1
   6  -1  -9 16918.3 1560.44   1
   6   1  -9 25375.2 2265.01   1
   6  -1  -9 18072.2 1317.43   1
   6   1  -9 20195.0 1732.87   1
   8   0  -8 2407.69 989.320   1
   8   0  -8 -447.09 1185.91   1
   8   0  -8 4437.43 1255.65   1
  -8   0   8 2306.63 835.310   1
   0  -5  -2 19571.5 1212.35   1
   0  -5   2 15047.5 785.660   1
   0   5  -2 16670.2 1196.05   1
   0   5  -2 18847.7 1176.96   1
   0   5   2 21907.0 1640.03   1
   0   5   2 18619.7 946.820   1
  -6   2  -4 35009.5 2606.37   1
  -6  -2  -4 32551.8 3743.19   1
   6   2   4 35112.8 4411.53   1
   6  -2   4 31324.5 5007.26   1
  -6  -2  -4 39580.1 2369.62   1
   6  -4  -1 3508.36 837.360   1
  -6   4   1 8011.30 1671.76   1
   6  -4  -1 7004.78 752.190   1
   6   4  -1 7248.11 1434.86   1
  -3   4   6 5360.49 1647.07   1
   3  -4  -6 8996.07 1352.13   1
   3   4  -6 7120.75 1297.92   1
   3   4  -6 7731.41 1561.25   1
  -9   2   3 833.520 1323.89   1
   9  -2  -3 -725.37 581.650   1
   9  -2  -3 -2941.7 1182.00   1
   9   2  -3 -2013.7 1199.77   1
   9   2  -3 367.440 283.530   1
  -8  -1  -2 904.200 895.340   1
  -8   1  -2 1370.20 1001.32   1
  -8  -1  -2 -1566.0 956.110   1
   8   1   2 721.350 610.220   1
   8  -1   2 -14.930 595.090   1
   8  -1   2 1924.20 1169.36   1
   0   0  -9 1842.01 897.330   1
   0   0  -9 -647.48 1199.54   1
   0   0   9 421.550 1225.59   1
   4   2   6 66029.7 4154.25   1
  -4   2  -6 60071.9 7203.41   1
   4   2   6 68738.0 5299.50   1
  -4   2  -6 61007.6 3121.33   1
  -4  -2  -6 67892.6 4960.64   1
   7  -3  -6 7138.28 1276.86   1
  -7   3   6 8048.35 1545.76   1
   7  -3  -6 9108.84 916.730   1
   7   3  -6 7259.39 1466.57   1
   7   3  -6 9566.38 1740.84   1
   7   3  -6 7920.95 1106.35   1
  -7   3  -1 8910.29 1467.77   1
  -7   3  -1 8099.30 1211.51   1
   7  -3   1 8073.87 683.390   1
   7  -3   1 8670.87 1022.47   1
   7   3   1 6218.61 1962.44   1
  -7  -3  -1 8621.07 1044.91   1
   8   2   1 1679.91 706.310   1
   8  -2   1 -150.09 758.420   1
  -8   2  -1 1194.60 1029.04   1
  -8  -2  -1 -766.82 453.910   1
   8  -2   1 447.500 335.690   1
   9  -2  -4 16302.4 2320.88   1
   9  -2  -4 11021.5 1768.23   1
  -9   2   4 14230.2 2123.38   1
   9   2  -4 17615.6 1430.76   1
   9   2  -4 13371.4 1984.08   1
  -6   3   7 92386.8 5039.20   1
   6  -3  -7 93016.9 5225.94   1
  -2   5   2 7011.39 1618.23   1
   2   5  -2 3521.80 1381.32   1
   2   5  -2 1099.42 525.510   1
   2  -5  -2 448.950 570.190   1
   2   5  -2 5.76000 505.950   1
   6   0   5 -699.19 1052.11   1
  -6   0  -5 1069.37 1249.78   1
  -6   0  -5 2305.17 918.370   1
   1   4  -6 5315.47 1865.99   1
   1   4  -6 186.840 185.050   1
   1   4  -6 1539.94 494.580   1
  -1   4   6 3364.85 1313.21   1
   1  -4  -6 2841.85 1103.89   1
   8  -3  -3 3125.35 1316.44   1
  -8   3   3 4124.89 1404.37   1
   8  -3  -3 3278.79 926.260   1
   8   3  -3 1905.46 463.130   1
   8   3  -3 1187.94 716.110   1
   5   0   6 96525.1 6273.08   1
  -5   0  -6 105057. 5298.97   1
  -9  -1   0 390.540 546.040   1
   9  -1   0 -419.15 707.090   1
   9   1   0 -717.55 803.100   1
  -9   1   0 2338.23 911.660   1
   9  -1   0 -614.69 787.670   1
   9   1   0 1109.01 391.480   1
   4   4   3 -3543.8 1653.80   1
  -4   4  -3 1798.95 1073.42   1
  -4  -4  -3 -177.27 386.890   1
   4   4   3 78.3600 318.870   1
   4  -4   3 1587.09 491.840   1
  -4  -4  -3 508.720 401.960   1
   4  -4   3 464.270 475.170   1
  -4   4  -3 866.860 689.970   1
  -5  -3  -4 7562.36 943.680   1
   5   3   4 6698.74 2023.94   1
  -5   3  -4 7808.11 1609.25   1
  -5  -3  -4 4755.90 1428.85   1
   5   3   4 5787.96 1429.71   1
   5  -3   4 10883.0 1564.84   1
   5  -3   4 6901.26 981.120   1
  -5   3  -4 3053.91 1144.53   1
  -9   2   2 2399.79 1058.50   1
   9   2  -2 301.830 1019.91   1
   9  -2  -2 -554.60 562.950   1
   9   2  -2 1414.60 546.890   1
   9  -2  -2 -3097.4 921.550   1
   3  -4   4 1446.56 514.080   1
  -3   4  -4 1384.68 1138.42   1
  -3   4  -4 -869.07 596.550   1
   3   4   4 1137.24 1510.67   1
  -3  -4  -4 2738.16 841.790   1
   3   4   4 2477.41 904.460   1
  -3  -4  -4 1274.11 560.410   1
  -2  -1  -8 304.600 647.920   1
  -2   1  -8 1810.62 650.970   1
  -2  -1  -8 -1141.0 1272.04   1
  -2   1  -8 88.8700 1291.31   1
   2   1   8 -453.95 1210.39   1
   4   3   5 13175.8 1776.02   1
  -4   3  -5 15393.1 1365.82   1
  -4  -3  -5 16864.9 2560.69   1
  -4   3  -5 19655.4 2688.14   1
   4   3   5 14411.4 1985.42   1
  -4  -3  -5 15017.5 2042.22   1
  -8   3   2 -2485.0 765.710   1
   8  -3  -2 247.000 427.440   1
   8   3  -2 -1589.1 1007.62   1
   8  -3  -2 -1927.4 611.090   1
   8   3  -2 730.820 350.520   1
  -1   3  -7 56760.5 2745.18   1
  -1   3  -7 59572.2 3488.87   1
   1   3   7 60861.0 3714.62   1
  -1  -3  -7 63536.3 3280.72   1
  -1  -3  -7 57886.3 2877.21   1
   3  -2  -9 -1522.7 886.720   1
   3   2  -9 326.690 275.280   1
   3  -2  -9 -664.39 932.830   1
   3   2  -9 -1197.2 1527.76   1
  -3   2   9 1304.62 917.710   1
   9   0  -7 -51.170 615.050   1
   9   0  -7 1028.52 1222.61   1
  -9   0   7 185.790 899.220   1
  -2   5  -1 3722.51 1249.33   1
   2   5   1 3402.36 1683.84   1
  -2   5  -1 5085.77 1609.17   1
   2   5   1 4001.31 1108.70   1
  -2  -5  -1 5328.64 1428.05   1
   2  -5   1 5287.64 1171.91   1
   6  -4  -4 8489.93 879.650   1
   6   4  -4 4815.83 1062.43   1
  -6   4   4 7048.81 1240.97   1
   6   4  -4 6140.02 1729.70   1
   6  -4  -4 7949.45 1180.40   1
   6   4  -4 8431.21 1783.75   1
  -1   2  -8 12135.2 1995.00   1
   1   2   8 10576.6 1923.55   1
  -1  -2  -8 12310.7 1118.11   1
  -1  -2  -8 11864.6 2277.13   1
  -1   2  -8 12652.7 1149.25   1
  -1  -5  -2 429.880 236.440   1
   1  -5   2 387.610 188.300   1
   1   5   2 1369.26 381.230   1
  -1   5  -2 555.220 803.110   1
  -1   5  -2 -864.90 644.700   1
   1   5   2 -925.67 957.920   1
  -8   3   4 13816.5 1428.10   1
   8  -3  -4 15838.8 1581.11   1
   8  -3  -4 12783.5 1604.99   1
   8   3  -4 9449.07 772.060   1
   8   3  -4 12961.3 1071.75   1
   8   3  -4 12913.3 1230.37   1
  -4   2   9 2731.18 1057.43   1
   4  -2  -9 4640.85 1272.98   1
   4   2  -9 3576.35 1178.25   1
   4  -2  -9 10055.3 1850.96   1
   4   2  -9 432.260 1234.52   1
  -3   3   8 27798.7 1927.98   1
   3  -3  -8 30688.0 2076.08   1
   3   3  -8 17599.1 4872.44   1
   3  -3  -8 33009.2 2239.83   1
   3   3  -8 24902.7 1656.69   1
   4   4  -6 2505.77 1244.65   1
  -4   4   6 3819.46 1177.08   1
   4  -4  -6 4339.11 1417.07   1
   4   4  -6 3633.68 1129.11   1
   8  -2  -7 2562.40 1335.47   1
  -8   2   7 -778.32 1042.22   1
   8   2  -7 -88.260 568.070   1
   8   2  -7 1598.46 1261.05   1
   8  -2  -7 2880.57 1051.62   1
   8   2  -7 2281.34 827.850   1
  -8   1   8 5455.67 1556.43   1
   8   1  -8 4266.77 1518.15   1
   8  -1  -8 6095.85 1504.47   1
   8   1  -8 8532.11 1341.29   1
   8   1  -8 4644.89 1552.02   1
   8  -1  -8 4463.30 1422.27   1
  -8  -1   8 2247.68 1171.73   1
   7   0  -9 1568.71 618.400   1
   7   0  -9 329.530 758.130   1
   7   0  -9 1431.48 1034.47   1
  -7   0   9 1151.91 621.470   1
   7   0   4 23723.2 2833.32   1
  -7   0  -4 18894.2 1675.18   1
  -7   0  -4 23325.1 3074.59   1
  -7  -2   8 4345.30 1449.56   1
  -7   2   8 6159.14 2227.69   1
   7   2  -8 7483.80 1120.56   1
   7  -2  -8 7407.55 1313.06   1
   7  -2  -8 6397.25 1209.71   1
   7   2  -8 5425.21 2864.98   1
   7   2  -8 5598.37 1625.56   1
   9   2  -5 7997.39 1247.10   1
   9  -2  -5 8284.40 702.840   1
   9   2  -5 7984.63 1753.48   1
   9  -2  -5 4325.69 1648.25   1
   9   2  -5 7176.87 1477.25   1
  -9   2   5 9233.54 1729.40   1
   2  -3  -8 153364. 6919.63   1
   2  -3  -8 168916. 45991.9   1
   2   3  -8 168741. 45929.3   1
  -2   3   8 165994. 45208.8   1
   0  -1  -9 118989. 5303.89   1
   0   1  -9 133705. 5950.33   1
   0  -1  -9 142807. 6844.49   1
   7  -2   3 35591.0 3978.30   1
   7   2   3 38090.5 4274.69   1
  -7  -2  -3 26613.6 2187.51   1
   7  -2   3 38898.6 2040.22   1
  -7  -2  -3 36119.1 2101.20   1
  -7   2  -3 38110.8 2459.45   1
   6  -4   0 875.880 512.030   1
   6  -4   0 1128.86 528.860   1
  -6   4   0 741.610 473.170   1
  -6   4   0 1436.27 839.080   1
  -6  -4   0 1904.09 901.650   1
   6   4   0 -61.550 823.030   1
   3  -5  -1 9114.40 1063.78   1
   3   5  -1 3896.99 1589.24   1
  -3   5   1 6587.33 1584.28   1
   3   5  -1 9213.85 1251.56   1
  -3  -5   1 7160.13 443.350   1
   4  -3  -8 63016.3 4113.54   1
   4   3  -8 56387.4 2602.38   1
   4   3  -8 65996.4 3499.83   1
   4   3  -8 64643.7 3460.60   1
  -4   3   8 57340.8 2924.86   1
  -2   2   9 7501.15 1330.20   1
   2   2  -9 3805.92 1507.57   1
   2  -2  -9 7421.81 1570.21   1
   2   2  -9 6628.46 740.350   1
   2  -2  -9 7281.21 915.590   1
   1   5  -3 2788.07 969.080   1
   1   5  -3 2401.45 1064.37   1
  -1   5   3 1124.85 387.360   1
   1  -5  -3 1625.14 627.750   1
  -1   5   3 6102.28 1647.60   1
   1   5  -3 1456.89 532.240   1
  -5   4  -2 5667.68 1490.87   1
   5   4   2 4.32000 1868.60   1
  -5   4  -2 7372.20 1429.91   1
  -5  -4  -2 4510.53 1083.66   1
   5   4   2 4984.81 1278.13   1
   5  -4   2 4971.76 1159.18   1
  -5  -4  -2 3806.56 997.030   1
   5  -4   2 5074.16 1132.84   1
   6  -3   3 44803.3 2209.26   1
  -6   3  -3 52898.8 3037.24   1
  -6   3  -3 46836.6 3906.36   1
   6  -3   3 42972.0 4842.77   1
  -6  -3  -3 42620.9 3600.88   1
   6   3   3 49248.7 3238.86   1
  -6  -3  -3 53316.9 2640.04   1
  -6  -1  -5 2477.09 1308.87   1
  -6   1  -5 3905.93 1367.29   1
   6   1   5 1090.20 472.290   1
   6  -1   5 1452.19 460.910   1
  -6   1  -5 -44.150 1714.25   1
  -6  -1  -5 -1142.9 1173.27   1
  -4   0  -7 -2052.1 1313.33   1
  -4   0  -7 -1163.3 707.830   1
  10   0  -4 550.800 1477.64   1
  10   0  -4 6540.25 778.310   1
   5  -1   6 7746.22 1407.05   1
   5   1   6 12039.3 1891.85   1
  -5   1  -6 8653.42 925.540   1
  -5  -1  -6 10732.1 1523.56   1
  -5  -1  -6 5505.33 1609.16   1
  -5   1  -6 10839.0 2275.33   1
   0   4  -6 2407.25 597.760   1
   0   4  -6 6896.47 1989.01   1
   0   4  -6 2906.92 735.020   1
   0   4   6 5935.31 1800.24   1
   0  -4  -6 3603.26 1141.84   1
   0  -4  -6 5935.67 1557.69   1
  10   0  -3 781.950 469.520   1
  10   0  -3 -638.12 1358.67   1
   3  -5  -2 30537.3 1526.04   1
   3   5  -2 32662.7 1861.58   1
  -3   5   2 31376.6 3920.47   1
   3   5  -2 22916.8 2023.81   1
   2  -4   5 8701.84 1525.56   1
  -2   4  -5 6396.51 1246.14   1
  -2   4  -5 7345.07 1426.83   1
  -2  -4  -5 8827.25 1649.71   1
   2   4   5 8940.61 1740.04   1
  -2  -4  -5 8706.96 874.250   1
   2   4   5 11380.4 1973.36   1
  -3   2  -7 7095.31 1202.90   1
  -3  -2  -7 8887.17 924.310   1
  -3   2  -7 10687.8 1776.16   1
   3   2   7 10159.8 2616.88   1
  -3  -2  -7 4183.72 1286.08   1
  -2   5   3 4917.50 1603.69   1
   2   5  -3 2656.68 793.960   1
   2   5  -3 2468.59 735.770   1
   2  -5  -3 4610.78 1206.10   1
   2   5  -3 6968.16 874.860   1
   8  -3  -1 4685.29 1118.46   1
  -8   3   1 2694.54 1225.36   1
   8  -3  -1 3535.63 1040.87   1
   8   3  -1 2506.17 776.180   1
   8   3  -1 3214.16 1141.82   1
  -3  -3  -6 35532.7 2034.21   1
  -3   3  -6 29834.5 1701.52   1
   3   3   6 32723.7 2527.47   1
  -3   3  -6 32255.3 3444.53   1
   3   3   6 35369.4 3902.56   1
  -3  -3  -6 29857.4 3319.77   1
  -3   3  -6 30591.4 4459.22   1
   3  -5   0 92477.4 4094.48   1
   3   5   0 112184. 5088.71   1
   3   5   0 99155.3 5035.48   1
  -3  -5   0 94076.7 4095.25   1
  -3   5   0 94138.4 5087.85   1
   5   2  -9 12785.6 2551.33   1
   5   2  -9 14760.4 1546.00   1
   5   2  -9 14676.2 1499.34   1
   5  -2  -9 14555.3 1943.16   1
  -5   2   9 13996.8 2530.63   1
  -5  -2   9 8873.66 479.220   1
   5  -2  -9 13833.1 1416.86   1
   0   5  -3 1216.04 559.890   1
   0  -5   3 -162.25 97.0000   1
   0  -5  -3 34.8900 470.210   1
   0   5   3 922.990 315.150   1
   0   5  -3 -835.34 898.260   1
   0   5   3 -734.64 892.860   1
   9  -2  -1 15760.1 2220.34   1
  -9   2   1 15768.1 2818.39   1
   9  -2  -1 15309.3 1527.82   1
   9   2  -1 12570.4 1363.19   1
   9   2  -1 13872.8 2326.92   1
  -9  -1   7 20727.2 1243.25   1
   9   1  -7 20459.8 1228.80   1
   9  -1  -7 23230.8 1516.52   1
   9   1  -7 19861.8 1898.72   1
   9   1  -7 20571.8 1292.95   1
   9  -1  -7 18550.6 1801.81   1
  -9   1   7 25020.0 3481.31   1
  -8   3   5 899.360 512.730   1
   8  -3  -5 2453.71 650.640   1
   8  -3  -5 1452.43 826.450   1
   8   3  -5 900.000 386.910   1
   8   3  -5 1303.86 566.050   1
   8   3  -5 -1080.2 1297.28   1
   9   0   1 512.200 915.740   1
   9   0   1 -957.56 588.100   1
  -9   0  -1 369.650 771.830   1
  10   0  -5 60.5800 400.640   1
  10   0  -5 1316.70 1499.72   1
   7  -1  -9 84274.9 3991.83   1
   7   1  -9 85690.9 4176.26   1
  -7  -1   9 81426.6 3664.67   1
  -7   1   9 90950.6 4383.33   1
   7  -1  -9 83691.4 3897.69   1
   7   1  -9 80940.1 4096.04   1
   7   1  -9 89802.5 4537.23   1
   7  -1  -9 85723.1 4854.28   1
  -1   3   8 23820.5 2143.00   1
   1   3  -8 18267.8 1656.14   1
   1  -3  -8 18466.7 4755.21   1
   1   3  -8 17303.5 4076.27   1
   1  -3  -8 22385.7 1633.93   1
  -7   1  -4 3726.20 1312.04   1
  -7  -1  -4 5272.05 1624.43   1
  -7  -1  -4 1818.65 1087.86   1
  -7   1  -4 2655.02 1538.73   1
   7   1   4 3676.03 1383.07   1
   7  -1   4 4687.31 1187.05   1
  -4   0  10 7124.96 883.270   1
   4   0 -10 6025.57 1804.87   1
   4   0 -10 5768.59 1606.01   1
  10   0  -2 1040.25 434.800   1
  10   0  -2 3453.25 1382.43   1
   5   3  -8 45171.7 2761.85   1
  -5   3   8 35220.8 2720.40   1
   5   3  -8 34254.3 3955.77   1
   5  -3  -8 36232.3 2851.48   1
   5   3  -8 36194.8 1928.24   1
   3   0 -10 39771.8 2062.21   1
  -3   0  10 45431.1 2233.39   1
   3   0 -10 41512.8 2834.81   1
   2   5   2 117123. 5336.58   1
   2   5   2 117591. 5507.81   1
  -2   5  -2 121026. 6365.11   1
  -2   5  -2 125148. 5704.63   1
  -2  -5  -2 119126. 5224.57   1
   2  -5   2 118950. 5173.30   1
   6   4  -5 2769.28 1017.52   1
  -6   4   5 2950.42 1071.06   1
   6   4  -5 3473.86 1448.95   1
   6  -4  -5 5728.21 1465.44   1
  -4   1  -7 5097.41 1868.37   1
  -4  -1  -7 -927.69 916.350   1
  -4   1  -7 1545.75 794.160   1
   1   2  -9 9464.29 1379.23   1
   1  -2  -9 12652.7 2145.40   1
  -1   2   9 6902.39 931.930   1
   1   2  -9 9403.96 1957.19   1
   1  -2  -9 9520.47 1078.16   1
   5  -4  -6 -57.100 814.300   1
   5   4  -6 2578.99 1248.79   1
   5   4  -6 4220.96 1241.29   1
  -5   4   6 840.830 626.030   1
   3  -5  -3 456.900 341.660   1
   3   5  -3 3620.14 1447.90   1
   3   5  -3 -206.13 548.210   1
  -3   5   3 -303.95 763.630   1
   3   5  -3 -712.85 827.140   1
  10  -1  -4 4374.96 1045.17   1
 -10   1   4 3916.74 1525.03   1
  10  -1  -4 2052.62 1347.59   1
  10   1  -4 2363.02 659.230   1
  10   1  -4 -244.91 1267.19   1
 -10   1   3 641.210 1364.71   1
  10   1  -3 2233.35 950.330   1
  10  -1  -3 2172.05 922.730   1
  10  -1  -3 650.180 241.930   1
  10   1  -3 502.800 303.880   1
  -1   0  -9 1835.92 806.740   1
  -1   0  -9 463.250 615.490   1
  -3  -5  -1 29448.6 2044.74   1
   3   5   1 30213.5 2225.83   1
   3  -5   1 29433.3 2051.13   1
   3   5   1 28818.0 2875.33   1
  -3   5  -1 26686.7 4940.53   1
  -3   5  -1 25530.8 2034.31   1
   9  -2  -6 8362.25 1404.64   1
   9   2  -6 4549.30 1175.89   1
   9  -2  -6 3931.94 1717.61   1
  -9   2   6 2735.57 1026.18   1
   9   2  -6 8313.54 1607.53   1
   9   2  -6 2884.64 1279.28   1
  -5   0  10 13417.0 1508.30   1
   5   0 -10 14217.7 2670.80   1
   5   0 -10 14517.3 2020.74   1
  -8   0  -3 -1284.0 1179.22   1
   8   0   3 -240.56 1009.17   1
  -8   0  -3 -2734.5 904.860   1
  -1   5  -3 -873.97 520.790   1
  -1   5  -3 -112.79 844.300   1
   1  -5   3 468.090 296.170   1
  -1  -5  -3 -13.430 401.630   1
   1   5   3 -967.04 930.120   1
   1   5   3 -615.30 432.400   1
   7   3  -7 3661.34 1529.51   1
   7   3  -7 1740.74 558.690   1
   7  -3  -7 4606.30 2308.95   1
  -7   3   7 3917.05 1791.20   1
   7   3  -7 3277.40 1372.21   1
   7  -3  -7 7696.29 1934.75   1
  -7   3  -2 29119.4 2533.02   1
  -7   3  -2 20583.9 4061.50   1
   7  -3   2 26619.3 2753.42   1
   7  -3   2 23093.0 2996.54   1
  -7  -3  -2 21242.0 1912.31   1
   7   3   2 26702.1 3642.44   1
  -7  -3  -2 25393.1 2138.16   1
   6   4   1 9555.14 2289.61   1
  -6   4  -1 7663.83 1712.72   1
  -6   4  -1 8277.53 975.680   1
  -6  -4  -1 12195.8 1117.74   1
   6  -4   1 12404.2 1390.48   1
   6   4   1 12515.1 1827.37   1
   6  -4   1 7526.81 1499.00   1
   9   1   1 1719.82 748.140   1
  -9   1  -1 -1128.1 756.040   1
  -9  -1  -1 -58.860 637.200   1
   9  -1   1 2817.88 921.940   1
   9   1   1 2554.80 1054.42   1
   9  -1   1 3691.47 1174.56   1
  -2   0  10 28452.7 2507.79   1
   2   0 -10 28696.3 2241.54   1
   2   0 -10 21059.1 4464.56   1
   6   2  -9 20430.8 1644.42   1
   6   2  -9 18991.7 1810.50   1
   6   2  -9 19465.7 3785.44   1
  -6  -2   9 15393.7 1100.98   1
   6  -2  -9 19228.3 1662.50   1
  -6   2   9 17873.0 3025.72   1
  10   1  -5 26237.5 2243.96   1
 -10   1   5 28133.6 3800.36   1
  10  -1  -5 20171.3 2287.11   1
  10   1  -5 29127.3 2787.80   1
  10  -1  -5 31571.7 2446.04   1
   8   3   0 2586.86 1018.44   1
   8  -3   0 2898.83 1037.25   1
  -8   3   0 4703.99 1848.75   1
   8  -3   0 2790.69 883.810   1
  -8   3   0 2561.15 1117.38   1
  -4  -1  10 5128.84 1506.56   1
  -4   1  10 7823.56 1183.15   1
   4   1 -10 3842.36 1393.54   1
   4  -1 -10 7203.29 1562.38   1
   4  -1 -10 6305.10 1881.36   1
   4   1 -10 5469.66 1971.52   1
   8  -2   2 -820.29 800.240   1
   8   2   2 743.000 520.550   1
  -8  -2  -2 -777.25 635.520   1
   8  -2   2 -138.86 422.650   1
  -8  -2  -2 -279.08 992.600   1
  -8   2  -2 1809.63 1330.01   1
  10   1  -2 19964.3 1933.49   1
  10  -1  -2 20209.4 1966.49   1
  10   1  -2 22699.7 3238.99   1
  10  -1  -2 18237.4 3258.62   1
  -1   4  -6 1808.72 682.770   1
  -1   4  -6 -525.58 1185.58   1
  -1   4  -6 1867.97 817.680   1
  -1  -4  -6 2093.44 936.360   1
   1   4   6 -3428.6 1034.32   1
  -1  -4  -6 -201.34 731.230   1
   1   4   6 2014.90 713.530   1
  -4  -5   1 7518.02 676.210   1
   4   5  -1 2508.50 1059.45   1
   4  -5  -1 5251.43 1535.93   1
   4   5  -1 4502.46 2122.42   1
  -4   5   1 7495.27 1627.89   1
   3  -1 -10 -1437.5 778.840   1
   3   1 -10 409.780 820.960   1
  -3   1  10 -768.32 711.110   1
   3  -1 -10 -290.81 1170.72   1
   3   1 -10 5167.37 1994.85   1
   4  -5  -2 21321.7 1605.79   1
  -4   5   2 19690.2 2955.75   1
   4   5  -2 23558.9 1902.69   1
   4   5  -2 26044.5 3481.65   1
  -2   3  -7 23541.9 1761.65   1
  -2   3  -7 21006.7 4265.47   1
  -2   3  -7 19692.8 1621.26   1
   2   3   7 16448.2 2526.68   1
  -2  -3  -7 22389.6 2770.93   1
  -2  -3  -7 21574.5 1743.59   1
 -10   0   6 49693.0 3449.26   1
  10   0  -6 62125.9 4172.43   1
  10   0  -6 33998.1 2776.47   1
   1  -5  -4 12208.7 1382.61   1
  -1   5   4 7374.77 1694.92   1
   1   5  -4 8815.03 1118.83   1
  -1   5   4 7625.29 1119.42   1
   1   5  -4 9755.99 1565.09   1
   2  -5  -4 16870.9 1466.14   1
   2   5  -4 14160.8 2567.00   1
   2   5  -4 15707.5 1500.55   1
   2   5  -4 16937.8 1671.77   1
  -2   5   4 14835.7 1614.86   1
   7  -4  -3 2317.18 926.540   1
  -7   4   3 3196.38 1266.46   1
   7   4  -3 701.080 1307.86   1
   7  -4  -3 519.570 318.960   1
   7   4  -3 133.290 228.210   1
  -7   4   2 1157.40 483.090   1
   7  -4  -2 2154.69 953.070   1
   7   4  -2 317.350 195.270   1
   7  -4  -2 707.950 271.250   1
   7   4  -2 2130.03 800.150   1
  -9   2   0 62963.7 4429.29   1
   9  -2   0 66736.6 5158.68   1
   9   2   0 59432.0 5067.66   1
   9   2   0 53206.3 4229.82   1
  -9   2   0 55293.9 4358.51   1
  10   0  -1 1527.50 1153.15   1
  10   0  -1 755.500 490.290   1
  -1  -1  -9 52035.4 4476.71   1
  -1   1  -9 51749.6 3916.78   1
   1   1   9 50059.8 4523.74   1
  -1  -1  -9 44860.1 3072.68   1
   0  -3  -8 -110.93 627.160   1
   0   3   8 -2909.6 1264.34   1
   0   3  -8 1273.55 1024.65   1
   0  -3  -8 1501.17 908.040   1
   0   3  -8 178.300 383.310   1
   8  -3  -6 39725.7 2943.47   1
   8   3  -6 44045.2 3165.60   1
  -8   3   6 37793.5 3847.30   1
   8   3  -6 37996.4 2767.33   1
   8  -3  -6 45490.3 3807.43   1
   8   3  -6 46246.8 3552.63   1
   5   1 -10 2060.30 954.990   1
   5  -1 -10 1051.23 586.260   1
   5   1 -10 2509.45 1131.03   1
  -5  -1  10 -398.89 282.430   1
   5  -1 -10 -485.80 760.860   1
  -5   1  10 -17.010 697.340   1
  -2   2  -8 32906.3 9018.89   1
  -2   2  -8 45495.2 4983.03   1
  -2  -2  -8 57491.3 4107.72   1
  -2  -2  -8 32338.9 9008.98   1
   2   2   8 42727.7 4086.45   1
  -8  -1  -3 -1616.6 997.720   1
  -8  -1  -3 -239.32 788.860   1
  -8   1  -3 502.870 981.280   1
   8  -1   3 3813.16 1159.41   1
   8   1   3 2959.18 1193.37   1
  -3   4   7 -355.84 768.920   1
   3  -4  -7 -1435.6 989.410   1
   3   4  -7 714.890 1052.16   1
   3   4  -7 461.460 832.740   1
   8   0  -9 2266.66 1153.59   1
   8   0  -9 -1959.3 1130.78   1
  -8   0   9 1127.73 578.030   1
   8   0  -9 1420.78 671.090   1
   2  -4  -7 1896.92 1054.72   1
   2   4  -7 1886.07 1241.29   1
   2   4  -7 990.220 429.190   1
  -2   4   7 -1324.2 805.610   1
  -4   4  -4 -1846.0 584.470   1
  -4   4  -4 615.380 1058.33   1
   4  -4   4 1875.15 708.080   1
  -4  -4  -4 612.360 362.140   1
  -4  -4  -4 613.380 349.440   1
   4   4   4 -2046.2 1764.06   1
   4   4   4 -108.97 972.410   1
  -6   0  10 126876. 31959.4   1
   6   0 -10 116927. 29459.5   1
   6   0 -10 106565. 7108.23   1
   4   5   0 23093.8 3298.61   1
  -4   5   0 14019.2 2976.74   1
   4   5   0 15059.7 2499.21   1
  -4  -5   0 18654.5 1324.12   1
   4  -5   0 17110.3 2158.31   1
   6   3  -8 4655.68 2021.26   1
   6   3  -8 3448.15 1842.37   1
  -6  -3   8 2839.31 1185.73   1
   6   3  -8 4335.50 1366.49   1
   6  -3  -8 3476.84 1148.08   1
  -6   3   8 8411.03 1491.45   1
   0   5   4 18323.3 1492.61   1
   0   5  -4 14870.6 1359.34   1
   0  -5   4 16038.7 1039.63   1
   0   5   4 12624.3 1375.32   1
   0  -5  -4 16047.4 1440.55   1
   0   5  -4 20090.1 2092.76   1
   4   5  -3 13229.2 1315.46   1
   4   5  -3 14334.2 1842.32   1
  -4   5   3 15153.8 2491.80   1
   4   5  -3 15565.1 1235.56   1
   4  -5  -3 14687.9 1291.74   1
  -2   1  10 4100.35 1929.16   1
   2   1 -10 652.570 1337.23   1
   2  -1 -10 2174.85 915.370   1
   2   1 -10 2315.38 968.130   1
   2  -1 -10 2295.56 890.520   1
   7  -4  -4 1298.06 582.190   1
   7   4  -4 826.160 302.930   1
   7  -4  -4 1243.78 794.890   1
   7   4  -4 1739.02 1308.37   1
  -7   4   4 -82.890 865.250   1
   3  -5  -4 6152.86 1989.66   1
   3   5  -4 6201.40 1924.63   1
  -3   5   4 8772.20 1455.61   1
   3   5  -4 7497.01 1710.92   1
   7   4  -1 11047.1 1859.19   1
   7  -4  -1 8887.13 1228.95   1
   7   4  -1 9651.72 1453.08   1
  -7   4   1 9221.95 1785.51   1
   7  -4  -1 13069.4 1360.58   1
   8  -2  -8 110011. 7686.80   1
   8  -2  -8 104397. 6960.30   1
   8   2  -8 103982. 7100.75   1
   8   2  -8 106459. 6871.07   1
   8   2  -8 114672. 8221.40   1
  -8   2   8 105735. 9282.20   1
  -3  -1  -8 2078.60 790.090   1
  -3   1  -8 649.650 808.290   1
  -3  -1  -8 1595.05 1038.77   1
  -3   1  -8 1928.38 942.770   1
   5  -4   3 4247.43 1562.23   1
  -5  -4  -3 7607.99 1172.32   1
   5  -4   3 6863.28 994.900   1
   5   4   3 -1172.2 1829.99   1
  -5   4  -3 5287.61 2004.29   1
  -5   4  -3 7440.62 1473.91   1
  -5  -4  -3 6872.40 979.270   1
   5   4   3 8843.87 1295.25   1
   0   2   9 23148.9 2396.37   1
   0   2  -9 25347.4 4747.70   1
   0  -2  -9 30485.1 7139.58   1
   0   2  -9 29593.3 2308.81   1
   0  -2  -9 31240.8 2392.60   1
   3   4   5 30379.3 2675.02   1
   3  -4   5 30598.9 2236.23   1
  -3  -4  -5 28697.8 3749.01   1
  -3   4  -5 30136.3 2812.03   1
  -3   4  -5 29881.6 3014.04   1
   3   4   5 33262.5 3248.41   1
  -3  -4  -5 29695.0 2532.43   1
   4  -4  -7 9551.62 1301.99   1
  -4   4   7 10576.0 1286.56   1
   4   4  -7 7575.02 2159.93   1
   4   4  -7 5845.03 1944.29   1
  10   1  -6 8610.61 1426.62   1
  10  -1  -6 5968.12 1845.88   1
  10  -1  -6 9801.63 2061.90   1
 -10   1   6 10282.9 1948.47   1
  10   1  -6 8284.35 1204.11   1
   3   5   2 53492.9 4013.44   1
   3  -5   2 56324.4 3808.79   1
  -3   5  -2 62436.0 4880.40   1
  -3   5  -2 56705.7 3894.51   1
   3   5   2 60286.0 4027.31   1
  -3  -5  -2 57013.8 3741.66   1
  -2  -5  -3 4906.61 1679.73   1
   2  -5   3 4966.86 1516.46   1
   2   5   3 4576.61 1500.17   1
   2   5   3 8117.05 1488.54   1
  -2   5  -3 5841.18 1939.24   1
  -2   5  -3 5160.76 1699.08   1
   1   0 -10 92.6400 794.500   1
  -1   0  10 7470.51 1865.31   1
   1   0 -10 1992.44 1027.76   1
  -6  -2  -5 -882.92 758.250   1
  -6   2  -5 1174.98 999.680   1
  -6  -2  -5 -13.450 874.800   1
   6   2   5 613.310 1243.94   1
  -6   2  -5 427.300 882.030   1
   6  -2   5 2898.22 1056.39   1
   1  -4  -7 620.570 740.270   1
   1   4  -7 1957.47 681.210   1
   1  -4  -7 1968.43 973.050   1
  -1   4   7 1211.78 1023.25   1
   1   4  -7 4216.94 1807.48   1
  -5   2  -6 16253.7 2573.81   1
  -5  -2  -6 15698.2 1425.63   1
  -5   2  -6 14790.0 1500.51   1
   5   2   6 10409.1 1765.37   1
  -5  -2  -6 13346.7 2008.06   1
   6  -4  -6 24760.5 2228.19   1
   6   4  -6 26395.7 2262.09   1
   6   4  -6 19116.4 1565.88   1
  -6   4   6 23807.8 2927.75   1
  10   1  -1 4598.34 1582.48   1
  10  -1  -1 5585.74 1628.13   1
  10  -1  -1 3052.48 1275.01   1
  10   1  -1 6446.62 1826.31   1
   9   1  -8 2808.34 1164.04   1
  -9  -1   8 2545.25 949.960   1
   9   1  -8 1655.09 636.370   1
   9  -1  -8 3456.44 1208.22   1
   9   1  -8 762.440 1273.32   1
   9  -1  -8 397.110 1213.70   1
  -9   1   8 3627.86 1322.03   1
  -5  -3  -5 5947.34 2082.10   1
  -5  -3  -5 6159.64 1972.40   1
   5  -3   5 7968.65 1296.67   1
   5   3   5 6104.15 1873.75   1
   5   3   5 2933.54 1686.58   1
  -5   3  -5 5527.91 1753.36   1
  -5   3  -5 6105.50 2182.68   1
   8  -1  -9 7039.83 1754.91   1
   8   1  -9 6259.90 2291.38   1
  -8  -1   9 4093.19 1470.14   1
   8   1  -9 4222.56 1745.61   1
  -8   1   9 5489.42 1958.58   1
   8  -1  -9 6029.85 1922.28   1
   8   1  -9 6907.16 1158.98   1
   9   2  -7 18845.6 1965.79   1
  -9   2   7 7939.21 4805.90   1
   9   2  -7 10449.2 1816.68   1
   9  -2  -7 23305.3 2235.96   1
   9  -2  -7 26062.3 2062.35   1
   6   1 -10 -578.33 1096.27   1
   6   1 -10 1417.78 798.060   1
   6  -1 -10 5009.05 1722.36   1
  -6   1  10 -357.03 825.180   1
  -6  -1  10 342.190 256.450   1
   6   1 -10 -183.09 1188.98   1
   6  -1 -10 589.460 480.860   1
   6   3   4 15223.9 2813.66   1
   6  -3   4 16257.4 3006.70   1
  -6   3  -4 13337.0 1977.70   1
  -6  -3  -4 11342.5 1526.07   1
   6  -3   4 13720.7 1769.18   1
  -6  -3  -4 16205.4 1549.27   1
   7   2  -9 43247.7 3446.99   1
   7  -2  -9 45664.1 3318.71   1
   7   2  -9 51492.4 3872.27   1
   7   2  -9 38996.3 5229.92   1
  -7  -2   9 40321.5 2664.99   1
  -7   2   9 48333.6 4977.18   1
   9   0   2 11578.5 1687.57   1
   9   0   2 7120.66 1118.47   1
  -9   0  -2 7730.75 1556.71   1
   4   5   1 835.860 692.620   1
  -4   5  -1 1057.92 879.990   1
  -4   5  -1 2932.28 1141.22   1
   4  -5   1 1799.94 702.240   1
  -4  -5  -1 2115.25 851.000   1
   4   5   1 5649.89 2111.03   1
  -7  -2  -4 30938.1 5737.93   1
  -7   2  -4 41712.4 3629.59   1
   7  -2   4 35441.7 4741.26   1
  -7  -2  -4 43914.6 3318.72   1
   7   2   4 35416.8 4753.30   1
   9  -3  -3 1757.58 1073.48   1
   9  -3  -3 -368.85 567.640   1
   9   3  -3 1364.41 474.320   1
  -9   3   3 1370.96 699.800   1
 -10   0   7 -794.63 983.760   1
  10   0  -7 1412.77 673.040   1
  10   0  -7 1081.99 1432.80   1
  -4   3  -6 -279.84 778.990   1
  -4   3  -6 -202.28 1768.97   1
  -4   3  -6 -284.05 551.790   1
  -4  -3  -6 -461.48 791.990   1
  -4  -3  -6 731.220 437.270   1
   4   3   6 37.8200 527.070   1
   4   3   6 4571.46 2247.48   1
  -1   5  -4 5281.54 1940.77   1
  -1   5  -4 7817.85 1303.99   1
   1   5   4 7654.31 1408.62   1
   1   5   4 5962.68 1875.39   1
  -1  -5  -4 7031.32 867.950   1
   1  -5   4 4806.95 1490.84   1
   4   5  -4 7066.91 1096.08   1
  -4   5   4 7465.83 1785.60   1
   4  -5  -4 7473.06 1005.04   1
   4   5  -4 4109.93 1227.68   1
   4   5  -4 6787.17 1564.05   1
   7  -4  -5 667.430 900.060   1
  -7   4   5 1036.31 651.370   1
   7  -4  -5 64.5200 537.110   1
   7   4  -5 -1726.6 1311.41   1
  -6  -4  -2 739.610 256.670   1
  -6   4  -2 1114.91 983.430   1
  -6   4  -2 725.870 664.290   1
   6   4   2 736.670 1354.29   1
   6   4   2 646.900 621.860   1
   6  -4   2 -521.34 490.240   1
  -6  -4  -2 36.8500 583.240   1
   6  -4   2 -290.65 496.970   1
  -8  -3  -1 3401.63 1077.84   1
  -8   3  -1 7198.34 1465.02   1
   8  -3   1 8001.27 962.440   1
   8  -3   1 5453.90 1618.35   1
  -8  -3  -1 1710.77 840.330   1
   8   3   1 4455.93 1413.27   1
  -8   3  -1 2474.11 1092.16   1
   9  -3  -4 66548.6 4440.02   1
   9   3  -4 51694.3 3924.11   1
   9  -3  -4 45031.7 3265.60   1
  -9   3   4 55702.2 5990.84   1
   9   3  -4 44176.9 2864.38   1
   7   4   0 50.6200 863.870   1
  -7   4   0 1374.08 715.050   1
  -7   4   0 -213.13 1077.23   1
   7  -4   0 607.080 356.620   1
   7  -4   0 -37.730 480.520   1
  -1   1  10 5166.79 2227.78   1
   1  -1 -10 10467.4 1222.44   1
   1   1 -10 7893.63 979.550   1
   1  -1 -10 7934.10 1033.83   1
   1   1 -10 6971.30 1697.55   1
  -6   0  -6 11104.5 1291.67   1
   6   0   6 15241.7 2011.60   1
  -6   0  -6 15201.2 2071.87   1
  -4   2  -7 69539.9 4760.18   1
   4   2   7 79183.6 5322.02   1
   4   2   7 54907.7 4855.35   1
  -4   2  -7 66477.5 9464.90   1
  -4  -2  -7 49390.7 4637.70   1
  10   2  -4 24008.2 2495.22   1
  10  -2  -4 24938.0 2461.01   1
 -10   2   4 24094.2 5095.34   1
  10   2  -4 25710.5 1826.65   1
  10  -2  -4 28534.8 2317.40   1
  10   2  -3 33643.4 3049.18   1
 -10   2   3 29706.7 3564.81   1
  10  -2  -3 27175.0 2315.20   1
  10  -2  -3 35854.2 2982.47   1
  10   2  -3 36652.0 3089.93   1
  -5   4   7 22997.1 3876.46   1
   5  -4  -7 17445.2 1627.10   1
   5   4  -7 19654.2 1966.10   1
   5   4  -7 15031.2 3097.68   1
  -2  -4  -6 3034.55 1104.11   1
   2   4   6 3188.80 1246.44   1
  -2   4  -6 4594.07 1609.85   1
  -2   4  -6 3141.40 1181.00   1
   2   4   6 7153.97 1950.25   1
  -2  -4  -6 942.630 578.980   1
 -10   0   0 143897. 36242.9   1
   7   0 -10 99276.7 6445.45   1
   7   0 -10 109920. 7221.83   1
   7   0 -10 107156. 7002.75   1
  -7   0  10 92788.9 5994.90   1
   9  -3  -2 12213.2 3437.10   1
  -9   3   2 12546.7 2055.53   1
   9   3  -2 17181.4 1826.61   1
   9   3  -2 14709.5 1554.68   1
   9  -3  -2 13512.5 2183.88   1
   5   5  -2 8950.53 1525.80   1
   5  -5  -2 7291.19 888.130   1
  -5   5   2 6889.83 1111.23   1
   5   5  -2 3484.14 1976.87   1
  -2   0  -9 2361.93 1076.50   1
  -2   0  -9 403.840 659.840   1
   7   0   5 412.360 1144.49   1
  -7   0  -5 -3927.2 1216.68   1
  -7   0  -5 1154.72 1375.44   1
   3  -3  -9 1679.66 938.030   1
   3  -3  -9 1878.68 1139.91   1
   3   3  -9 3322.23 1037.24   1
   3   3  -9 1996.55 1206.81   1
  -3   3   9 3761.79 1476.01   1
   0   4   7 62122.8 4421.08   1
   0   4  -7 76766.1 5886.53   1
   0  -4  -7 59011.2 4212.87   1
   0  -4  -7 67006.2 4517.04   1
   1   3   8 22406.7 3104.80   1
  -1   3  -8 23312.2 3434.54   1
  -1  -3  -8 18584.6 2321.86   1
  -1   3  -8 21749.2 1646.74   1
  -1  -3  -8 24215.0 1854.28   1
   2  -5  -5 16409.5 1365.22   1
  -2   5   5 22140.6 1612.10   1
   2   5  -5 19901.7 1554.73   1
   2   5  -5 18979.9 1767.81   1
   2   5  -5 16387.8 1443.64   1
  -2   5   5 18382.8 1888.99   1
  -5   5   1 40154.8 5851.21   1
   5   5  -1 30349.3 4860.29   1
   5  -5  -1 33541.9 2314.38   1
   5   5  -1 33464.2 3599.63   1
   4  -3  -9 221.830 862.460   1
   4  -3  -9 2924.87 1159.65   1
   4   3  -9 -23.800 1081.51   1
  -4   3   9 994.690 995.950   1
   4   3  -9 -170.65 410.260   1
  -5   0  -7 3142.93 2012.64   1
  -5   0  -7 146.420 733.810   1
   5   0   7 1742.63 965.020   1
  -9   2  -1 81848.3 5735.53   1
   9   2   1 76663.6 5992.16   1
   9  -2   1 70306.4 4577.02   1
  -9  -2  -1 88299.3 5734.81   1
  -8   3   7 14525.2 2416.13   1
   8   3  -7 13124.7 3159.25   1
   8  -3  -7 11693.0 1325.30   1
   8   3  -7 11468.8 1692.85   1
   8   3  -7 11626.6 1578.38   1
   8  -3  -7 13259.5 1255.01   1
 -10   2   5 3835.44 1479.91   1
  10   2  -5 356.340 388.560   1
  10   2  -5 4328.30 1306.13   1
  10   2  -5 4203.41 1796.30   1
  10  -2  -5 2785.67 974.730   1
  10  -2  -5 3842.52 1505.73   1
  -1   5   5 1354.40 528.380   1
  -1  -5   5 44.6500 49.0900   1
   1   5  -5 979.360 586.230   1
  -1   5   5 351.600 881.700   1
   1   5  -5 1426.77 1363.50   1
   1  -5  -5 1011.17 969.250   1
  -9  -1  -2 8409.56 1144.33   1
  -9   1  -2 14590.5 1576.69   1
   9   1   2 12169.2 1575.66   1
   9  -1   2 12868.8 2130.11   1
   9  -1   2 11575.8 1828.01   1
   4  -2 -10 4281.81 1682.99   1
   4   2 -10 4147.38 1383.96   1
   4  -2 -10 2795.96 995.770   1
  -4   2  10 9859.97 1371.88   1
   4   2 -10 -1064.2 1416.26   1
   5   5  -3 2480.57 1220.27   1
   5   5  -3 4448.24 2130.02   1
  -5   5   3 1108.92 627.080   1
   5  -5  -3 154.970 623.310   1
   7   3  -8 25800.8 2265.68   1
   7  -3  -8 35821.0 3061.73   1
  -7   3   8 29670.0 4543.46   1
   7   3  -8 30960.6 2425.87   1
   7   3  -8 27017.0 3753.40   1
   9  -3  -5 2347.57 1284.50   1
  -9   3   5 3733.97 1354.56   1
   9  -3  -5 5455.46 1669.60   1
   9   3  -5 3801.60 1237.45   1
   9   3  -5 2571.46 2055.36   1
  -7  -3  -3 47682.9 3528.58   1
   7  -3   3 35775.4 4659.65   1
   7   3   3 33970.2 4140.47   1
  -7  -3  -3 32920.3 3478.83   1
  -7   3  -3 36131.8 2775.37   1
  -7   3  -3 42182.3 3664.34   1
   7  -3   3 38730.2 3456.33   1
 -10  -1   7 15547.1 1910.54   1
  10   1  -7 19509.7 2593.43   1
 -10   1   7 11798.5 2320.85   1
  10  -1  -7 7675.04 1837.33   1
  10  -1  -7 15685.5 2118.30   1
  10   2  -2 7180.91 1464.50   1
  10  -2  -2 4583.20 1547.99   1
  10   2  -2 8372.90 1279.24   1
 -10   2   2 6368.77 2202.05   1
  10  -2  -2 4392.18 1342.20   1
   3   2 -10 14205.5 1323.38   1
   3   2 -10 9074.73 2641.18   1
  -3   2  10 13027.5 1521.73   1
   3  -2 -10 10701.3 1704.94   1
   3  -2 -10 15089.8 2534.51   1
  -2   3   9 27776.0 2488.55   1
   2   3  -9 22547.6 6052.91   1
   2  -3  -9 28390.8 4017.51   1
   2   3  -9 23823.1 2073.67   1
   2  -3  -9 25418.7 1930.49   1
   3  -5  -5 2619.03 1145.11   1
   3   5  -5 3871.31 1289.41   1
   3   5  -5 6126.13 2083.04   1
  -3   5   5 1975.50 1018.59   1
   3   5  -5 3965.61 1530.80   1
   6   1   6 4919.19 1607.92   1
  -6   1  -6 6514.32 2535.98   1
  -6  -1  -6 4844.52 1585.93   1
  -6   1  -6 5599.33 1896.54   1
  -6  -1  -6 6165.54 1988.57   1
   6  -1   6 8197.56 1399.04   1
   0   0 -10 5239.39 1967.41   1
   0   0 -10 264.120 706.250   1
   0   0  10 -98.490 991.700   1
  -3   3  -7 10.5800 689.760   1
  -3   3  -7 -542.62 1480.42   1
  -3   3  -7 3565.54 1416.47   1
  -3  -3  -7 1984.32 857.550   1
  -3  -3  -7 1392.45 1091.29   1
   3   3   7 -103.41 722.970   1
   3   3   7 6924.43 2743.97   1
  10   1   0 4905.15 1520.96   1
  10  -1   0 6032.30 1904.80   1
  10  -1   0 6560.93 2010.22   1
  10   1   0 5964.69 1868.42   1
 -10   1   0 2557.45 1059.29   1
   7  -1 -10 262.340 867.240   1
  -7   1  10 -246.51 886.150   1
  -7  -1  10 -415.43 515.980   1
   7   1 -10 1155.79 665.000   1
   7   1 -10 -692.81 1430.68   1
   7  -1 -10 2246.51 969.050   1
   7   1 -10 627.220 485.070   1
  -1  -2  -9 12959.8 2080.40   1
   1   2   9 7462.54 1853.32   1
  -1  -2  -9 11731.0 1240.37   1
  -1   2  -9 10495.8 1055.00   1
  -1   2  -9 10369.0 1863.21   1
  -5   3   9 2638.88 1291.75   1
   5   3  -9 1386.38 1230.15   1
   5  -3  -9 1648.21 617.670   1
   5   3  -9 4658.75 1417.15   1
   5   3  -9 1588.42 1179.52   1
  -3   5  -3 4724.33 1777.86   1
   3   5   3 8196.73 1099.27   1
  -3  -5  -3 9755.18 1291.98   1
   3   5   3 4179.45 1759.56   1
  -3   5  -3 8958.04 1773.59   1
   3  -5   3 6429.24 2068.54   1
   3  -5   3 7246.37 955.870   1
  -5   2  10 16605.9 2003.30   1
   5   2 -10 8446.65 1694.04   1
   5  -2 -10 15060.5 3702.29   1
   5   2 -10 13721.6 1308.30   1
   5  -2 -10 13492.1 1453.27   1
  -8   2  -3 -225.81 1404.54   1
  -8  -2  -3 1493.47 1091.40   1
   8  -2   3 2393.00 944.880   1
  -8  -2  -3 1118.84 1169.16   1
   8  -2   3 1726.96 606.320   1
  -2   1  -9 10454.7 1279.91   1
  -2  -1  -9 9501.10 1056.67   1
  -2  -1  -9 14733.3 2249.27   1
  -2   1  -9 6454.82 2465.02   1
   2   1   9 8384.48 2015.95   1
  -7   1  -5 4067.00 1364.66   1
  -7  -1  -5 7883.97 1269.38   1
   7  -1   5 6759.02 1057.90   1
  -7   1  -5 6100.58 2291.71   1
  -7  -1  -5 772.710 1722.96   1
   7   1   5 6374.17 1895.17   1
   5   5   0 63304.2 4298.60   1
   5  -5   0 64892.3 4230.10   1
  -5   5   0 66519.8 5591.84   1
   5   5   0 74761.7 6123.40   1
  -9   3   1 444.700 1212.40   1
   9  -3  -1 -582.78 754.300   1
   9   3  -1 1781.83 1131.06   1
   9  -3  -1 1358.94 535.170   1
   9   3  -1 -258.13 621.450   1
  -8   0  -4 8024.68 1587.25   1
  -8   0  -4 2109.55 1394.08   1
   8   0   4 7681.86 1305.04   1
   5   1   7 44788.6 6259.52   1
  -5   1  -7 48663.5 3514.42   1
  -5  -1  -7 51575.1 3582.87   1
  -5   1  -7 41771.5 5814.66   1
  -5  -1  -7 38749.7 5672.35   1
   0  -5   5 3097.92 1010.47   1
   0   5  -5 4910.21 1507.79   1
   0   5   5 7995.29 1342.08   1
   0   5   5 5228.30 1831.97   1
   0  -5  -5 7025.62 1123.14   1
   0   5  -5 8284.42 1205.37   1
   2   2 -10 10368.1 1790.94   1
  -2   2  10 7814.58 1255.05   1
   2  -2 -10 11448.0 1686.40   1
   2   2 -10 10496.6 1063.64   1
   2  -2 -10 8894.95 1357.02   1
   4   5   2 12655.8 1985.67   1
  -4  -5  -2 11187.6 1130.63   1
   4   5   2 9410.71 2208.78   1
  -4   5  -2 16177.1 3132.31   1
  -4   5  -2 16885.9 1970.84   1
   4  -5   2 10394.2 1534.22   1
  -9   0   9 2531.10 1089.16   1
   9   0  -9 2065.99 1333.25   1
   9   0  -9 -544.06 850.510   1
   9   0  -9 1066.71 456.300   1
  -2   5  -4 22324.3 2246.01   1
  -2  -5  -4 12445.0 1055.78   1
   2  -5   4 14567.2 1208.49   1
   2   5   4 9228.64 1506.81   1
   2   5   4 10501.7 1888.85   1
  -2   5  -4 10725.1 1887.31   1
  -3   2  -8 9332.06 1133.31   1
  -3   2  -8 4355.66 1452.89   1
  -3  -2  -8 5905.18 1720.33   1
  -3  -2  -8 5730.96 1901.60   1
   3   2   8 8157.16 2845.16   1
  11   0  -4 26411.9 2114.82   1
  11   0  -4 16562.0 2286.70   1
  -4   0  -8 532.150 1003.26   1
  -4   0  -8 5876.22 1878.77   1
   5   5  -4 10846.1 1490.41   1
   5  -5  -4 12281.4 1125.81   1
  -5   5   4 10107.6 2506.69   1
   5   5  -4 12578.8 1636.74   1
   7  -4  -6 -1125.8 869.970   1
   7   4  -6 3268.18 2012.51   1
   7   4  -6 -51.420 520.430   1
  -7   4   6 1344.94 1173.73   1
  10   2  -6 2866.08 1839.45   1
  10  -2  -6 7361.40 1460.72   1
  10   2  -6 1002.60 908.230   1
 -10   2   6 2751.72 1059.40   1
  10   2  -6 835.520 505.780   1
  10  -2  -6 1513.16 557.190   1
  -7   4  -1 -1754.6 1388.15   1
  -7   4  -1 787.020 698.540   1
   7  -4   1 329.010 316.780   1
   7  -4   1 246.220 178.520   1
   7   4   1 -430.42 801.010   1
  -7  -4  -1 -411.34 570.130   1
   4  -5  -5 41375.7 3381.12   1
   4   5  -5 39235.9 2880.01   1
  -4   5   5 30655.9 3093.44   1
   4   5  -5 35031.3 2911.55   1
   4   5  -5 35374.6 2705.53   1
   6  -4  -7 31727.9 1848.45   1
   6   4  -7 34281.3 1895.27   1
  -6   4   7 32239.5 3452.80   1
   6   4  -7 25558.7 2294.45   1
   0   1  10 16532.1 2627.89   1
   0   1 -10 15222.9 2058.37   1
   0  -1 -10 13634.4 2410.38   1
   0  -1 -10 9704.79 1102.00   1
   0   1 -10 12479.2 2016.62   1
  -1   3   9 1676.74 1408.07   1
   1  -3  -9 -347.48 1116.02   1
   1   3  -9 423.630 841.230   1
   1  -3  -9 2453.60 1051.57   1
   1   3  -9 -237.32 339.110   1
   8  -4  -3 1334.15 553.710   1
   8   4  -3 1815.26 1126.15   1
   8   4  -3 407.630 323.370   1
  -8   4   3 2140.31 1015.67   1
   8  -4  -3 684.890 590.930   1
  11   0  -3 2660.20 893.390   1
  11   0  -3 -223.46 356.180   1
  11   0  -5 1268.20 625.870   1
  11   0  -5 -3558.7 1641.79   1
  10   2  -1 10603.1 2392.50   1
  10  -2  -1 8940.59 1982.51   1
  10  -2  -1 5385.89 1585.32   1
 -10   2   1 15941.9 2241.42   1
  10   2  -1 12042.1 1788.58   1
   9  -2  -8 5574.62 1522.04   1
  -9   2   8 -248.47 1183.70   1
  -9  -2   8 3222.79 1099.53   1
   9  -2  -8 6306.25 1720.20   1
   9   2  -8 4509.99 1645.05   1
   9   2  -8 3708.44 1229.56   1
   9   2  -8 3880.82 1059.20   1
  -5   4  -4 1271.58 1170.67   1
  -5   4  -4 1764.93 885.440   1
   5  -4   4 1876.72 890.710   1
   5  -4   4 788.130 331.220   1
   5   4   4 1656.71 1080.29   1
  -5  -4  -4 1226.67 449.100   1
   5   4   4 1633.17 1992.11   1
  -5  -4  -4 2364.33 839.200   1
   9   3  -6 999.680 1292.93   1
  -9   3   6 1985.50 922.530   1
   9  -3  -6 348.110 736.450   1
   9  -3  -6 3259.61 824.840   1
   9   3  -6 1317.33 457.520   1
  -4   4  -5 206.870 1311.35   1
  -4   4  -5 650.470 763.400   1
   4  -4   5 502.950 328.460   1
  -4  -4  -5 1260.23 454.780   1
   4   4   5 3742.37 2270.22   1
  -4  -4  -5 1015.93 603.230   1
   4   4   5 925.040 506.830   1
   8   4  -2 1372.25 472.170   1
   8   4  -2 -174.64 944.590   1
  -8   4   2 179.300 356.920   1
   8  -4  -2 -766.05 612.850   1
   8  -4  -2 524.400 370.890   1
  -1  -4  -7 25190.7 1355.43   1
   1   4   7 20618.6 1107.56   1
  -1  -4  -7 18457.6 3692.46   1
   1   4   7 25133.6 2154.90   1
  -1   4  -7 21170.1 1291.94   1
  -1   4  -7 18693.2 2818.34   1
   8   2  -9 46142.8 2983.08   1
   8  -2  -9 48205.0 2358.14   1
  -8   2   9 63707.9 3100.78   1
  -8  -2   9 47908.8 1773.30   1
   8   2  -9 46255.1 3210.32   1
   8   2  -9 55762.8 2855.24   1
   8  -2  -9 49331.7 3046.33   1
  10   0  -8 16222.7 1965.62   1
  10   0  -8 18082.8 1196.77   1
 -10   0   8 15146.4 3397.63   1
   6  -2 -10 41298.2 2284.47   1
   6   2 -10 31456.3 1682.76   1
  -6   2  10 41442.8 1824.61   1
   6  -2 -10 42951.1 2964.84   1
   6   2 -10 41064.4 4611.30   1
   6   2 -10 40985.7 2050.71   1
  -8   1  -4 5684.41 1587.10   1
  -8  -1  -4 4683.37 1110.34   1
   8  -1   4 5130.69 1478.75   1
   8   1   4 4182.35 1188.53   1
  -8  -1  -4 5916.38 1646.47   1
   8   4  -4 3692.57 958.160   1
   8  -4  -4 5136.20 1462.36   1
   8   4  -4 5918.35 2036.19   1
   8  -4  -4 2137.77 752.540   1
  -8   4   4 6364.01 1694.84   1
   3   4  -8 8152.97 2498.62   1
  -3   4   8 8785.39 2192.95   1
   3  -4  -8 7670.05 1922.32   1
   6   3  -9 10673.8 3883.68   1
   6   3  -9 15586.0 1736.64   1
   6   3  -9 13558.5 3641.16   1
  -6   3   9 13198.2 2182.88   1
   6  -3  -9 11487.0 1806.03   1
   9  -1  -9 791.690 1227.77   1
  -9   1   9 2493.94 1100.93   1
   9  -1  -9 1133.44 691.180   1
   9   1  -9 -409.52 945.570   1
   9   1  -9 63.3000 1205.14   1
   9   1  -9 2187.52 875.910   1
  -9  -1   9 -32.060 687.040   1
  -4   0  11 1445.68 627.240   1
   4   0 -11 -986.89 922.690   1
   4   0 -11 -742.64 1238.69   1
   8   0 -10 13675.3 1290.04   1
   8   0 -10 13748.6 3199.08   1
   8   0 -10 10422.6 2736.68   1
  -8   0  10 11928.4 2304.17   1
   2   4  -8 11205.9 4429.83   1
   2  -4  -8 11262.8 4020.73   1
  -2   4   8 15049.0 1372.58   1
   2  -4  -8 14989.9 1811.51   1
   8   3   2 11011.6 4006.99   1
   8  -3   2 9460.74 1943.60   1
  -8  -3  -2 12209.5 1303.06   1
   8  -3   2 14289.4 1863.66   1
  -8   3  -2 8347.21 2041.82   1
  -8   3  -2 9368.36 2106.76   1
  -8  -3  -2 6384.90 1269.84   1
  11  -1  -4 3783.18 1584.57   1
  11  -1  -4 1480.74 511.750   1
  11   1  -4 2970.75 973.930   1
 -11   1   4 825.770 1116.42   1
  11   1  -4 -497.13 1478.28   1
  -5  -5  -1 32187.4 1123.46   1
   5   5   1 41118.7 3324.82   1
  -4  -1  -8 31462.1 4087.56   1
  -4  -1  -8 51039.5 2535.98   1
  -4   1  -8 38719.3 4826.43   1
   4   4  -8 3377.24 1613.44   1
   4   4  -8 1698.10 942.240   1
  -4   4   8 736.540 782.920   1
   4  -4  -8 3314.46 1045.63   1
  10   0   1 2208.55 904.390   1
  10   0   1 2000.49 882.150   1
 -10   0  -1 -672.30 883.440   1
   5   0 -11 786.290 1007.58   1
   5   0 -11 743.090 532.770   1
  -5   0  11 -217.02 498.120   1
   6   4   3 1403.86 552.830   1
   6  -4   3 2038.89 625.530   1
  -6  -4  -3 2546.34 972.630   1
   6  -4   3 900.630 307.440   1
  -6  -4  -3 1859.02 568.010   1
   6   4   3 9021.89 3205.18   1
  -6   4  -3 1699.48 948.100   1
  -6   4  -3 -921.70 1248.38   1
   1   2 -10 6670.60 1943.61   1
  -1   2  10 8587.99 2079.03   1
   1  -2 -10 8611.13 2003.68   1
   1   2 -10 6444.06 1790.44   1
   1  -2 -10 5333.08 1344.36   1
   1  -5   5 991.020 405.980   1
  -1  -5  -5 2830.05 911.050   1
   1   5   5 8550.61 2468.64   1
  -1   5  -5 518.570 589.520   1
  -1   5  -5 -206.92 1090.65   1
   1   5   5 2032.64 643.070   1
   3   0 -11 -79.060 1445.57   1
  -3   0  11 77.9200 661.470   1
   3   0 -11 1054.86 897.120   1
  11   0  -2 58262.3 2813.13   1
  11  -1  -3 63654.8 3409.17   1
  11   1  -3 69639.6 4036.57   1
   9   3   0 6860.91 1661.54   1
   9  -3   0 5951.34 1427.06   1
  -9   3   0 2219.13 1066.81   1
  -9   3   0 5700.28 1404.28   1
   9   3   0 7787.62 1778.91   1
   9  -3   0 6470.35 1465.72   1
 -11   1   5 2374.96 829.080   1
  11   1  -5 -137.36 1251.62   1
  11  -1  -5 2577.25 1539.86   1
  11  -1  -5 839.210 541.530   1
  11   1  -5 1799.12 574.110   1
   8   4  -1 55437.7 2230.32   1
   8   4  -1 54104.8 1938.57   1
   8  -4  -1 55661.0 2815.63   1
   3   4   6 2772.03 643.300   1
   3   4   6 2546.68 1752.08   1
  -3  -4  -6 2744.77 891.180   1
  -3   4  -6 1550.58 1440.97   1
  -3   4  -6 2166.14 956.640   1
  -3  -4  -6 5387.89 1178.12   1
 -11   0   6 -2091.5 1648.59   1
  11   0  -6 2291.01 1803.42   1
  11   0  -6 2379.18 736.590   1
  -2  -3  -8 6065.42 1454.16   1
   2   3   8 6408.72 2436.70   1
  -2   3  -8 3456.72 1747.59   1
  -2  -3  -8 1726.33 723.010   1
  -2   3  -8 3495.50 1073.35   1
   6   5  -2 2616.95 1237.79   1
   6   5  -2 824.310 1484.27   1
   6  -5  -2 1896.03 627.320   1
  -6   5   2 5568.03 1919.53   1
  10  -1  -8 58988.1 3211.84   1
 -10   1   8 51536.1 4458.09   1
 -10  -1   8 47286.2 6413.28   1
  10   1  -8 55420.9 2525.48   1
  10   1  -8 56751.8 3142.14   1
  10   1  -8 56045.6 2651.46   1
  10  -1  -8 60304.2 3145.03   1
  -9   0  -3 -780.85 1151.85   1
   9   0   3 1962.78 743.180   1
  -8   4   5 9175.43 2618.79   1
   8  -4  -5 7068.17 1560.21   1
   8  -4  -5 12464.0 1175.72   1
   8   4  -5 7010.49 2001.68   1
  -6   5   3 7929.79 1931.63   1
   6   5  -3 2924.62 1268.94   1
   6  -5  -3 3699.80 922.740   1
   2  -5  -6 4854.82 1234.19   1
  -2   5   6 1707.38 982.920   1
   2   5  -6 798.000 1281.25   1
   5  -5  -5 955.430 698.630   1
   5   5  -5 -233.83 1034.47   1
   5   5  -5 96.9400 542.330   1
  -5   5   5 1151.47 1008.81   1
   8   3  -8 12349.3 2232.71   1
   8  -3  -8 16138.8 1736.05   1
   8   3  -8 12901.0 1614.85   1
   8   3  -8 12879.9 1648.07   1
   8  -3  -8 10270.7 2071.54   1
  -8   3   8 18598.5 3418.98   1
  -4   1  11 22958.7 2796.38   1
  -4  -1  11 18863.0 1130.03   1
   4   1 -11 13427.2 2229.49   1
   4   1 -11 17252.7 1220.76   1
   4  -1 -11 16150.6 1509.17   1
   4  -1 -11 17976.0 2220.36   1
   8   1 -10 958.640 566.260   1
  -8  -1  10 2568.85 686.420   1
   8  -1 -10 -284.81 832.290   1
   8   1 -10 -251.36 1095.98   1
   8   1 -10 5855.11 2022.10   1
   8  -1 -10 4728.19 2059.05   1
  -8   1  10 2406.01 700.200   1
   8  -1 -10 6774.45 1758.76   1
   9  -2   2 33808.7 3342.10   1
  -9  -2  -2 31597.9 1651.50   1
   9   2   2 30170.6 3292.42   1
  -9   2  -2 37271.8 2288.56   1
   9  -2   2 33277.4 1562.34   1
  -9  -2  -2 38881.1 2171.80   1
  -1   0 -10 203897. 6687.08   1
   1   4  -8 790.480 545.740   1
   1   4  -8 2232.87 1289.74   1
  -1   4   8 430.340 965.600   1
   1  -4  -8 2842.95 894.130   1
   1  -4  -8 -3.1600 856.560   1
   6   5  -1 25777.9 4288.51   1
  -6   5   1 22535.7 2503.04   1
   6   5  -1 18672.3 2073.39   1
   6  -5  -1 24681.5 1234.95   1
  -3   5   6 40.5900 880.880   1
   3  -5  -6 3053.57 976.360   1
   3   5  -6 2163.23 1204.84   1
   3   5  -6 466.210 410.700   1
   0   3   9 5910.70 1720.55   1
   0   3  -9 5330.58 1138.80   1
   0  -3  -9 5515.63 1422.43   1
   0  -3  -9 8155.60 1861.56   1
   0   3  -9 9430.54 2313.34   1
  10  -2  -7 5748.95 1468.46   1
  10   2  -7 4595.49 2374.20   1
  10  -2  -7 4438.02 1747.52   1
  10   2  -7 5795.95 2587.03   1
 -10   2   7 8032.54 3643.27   1
   5   4  -8 2136.57 1230.06   1
   5   4  -8 -313.97 1170.51   1
   5  -4  -8 -24.490 1003.86   1
  -5   4   8 -1295.4 752.380   1
  10  -1   1 2919.73 992.850   1
 -10   1  -1 -2397.3 947.380   1
 -10  -1  -1 1496.08 779.550   1
  10   1   1 2366.01 780.780   1
  10   1   1 2371.98 769.110   1
  10  -1   1 275.590 529.140   1
  -6   0  11 -1030.5 578.840   1
   6   0 -11 -1289.4 1103.29   1
   6   0 -11 -221.74 883.430   1
  -5   1  11 39470.5 1698.97   1
  -5  -1  11 35431.4 1342.88   1
   5  -1 -11 30827.0 1737.24   1
   5   1 -11 31243.3 5119.77   1
   5  -1 -11 33626.2 3865.82   1
   5   1 -11 35185.3 2042.27   1
  -3   0  -9 3366.90 1090.13   1
  -3   0  -9 -334.70 701.080   1
  -2   0  11 59.9800 965.180   1
   2   0 -11 1450.85 703.530   1
   2   0 -11 -423.98 811.900   1
   6  -2   6 3087.42 883.720   1
  -6  -2  -6 2941.82 905.330   1
  -6   2  -6 4696.23 1678.68   1
  -6  -2  -6 4314.42 1216.78   1
   6   2   6 4302.14 1089.75   1
  -6   2  -6 2381.72 925.120   1
   6  -3   5 4677.21 1214.74   1
   6   3   5 1982.27 743.890   1
  -6   3  -5 697.690 1125.33   1
  -6   3  -5 5004.57 1670.47   1
  -6  -3  -5 3221.27 987.270   1
  -6  -3  -5 3522.13 1329.12   1
   3  -1 -11 11562.9 1027.66   1
  -3  -1  11 10910.5 3907.32   1
  -3   1  11 11103.9 3957.43   1
   3  -1 -11 10300.1 2505.51   1
   3   1 -11 11013.9 4097.79   1
   3   1 -11 14073.5 2053.19   1
  -1   5   6 35331.8 2541.87   1
   1   5  -6 35119.5 2484.85   1
  -1   5   6 23491.3 1049.91   1
   1  -5  -6 27084.0 1417.76   1
  11  -1  -2 6773.66 1650.84   1
  11   1  -2 9378.46 2210.17   1
  11  -1  -2 5297.54 1182.61   1
  11   1  -2 2085.42 646.450   1
  -5  -3  -6 -949.14 745.880   1
  -5   3  -6 1247.91 808.640   1
   5   3   6 653.210 616.250   1
   5   3   6 -1165.0 1547.10   1
  -5   3  -6 -131.04 362.550   1
  -5   3  -6 -2650.3 1640.32   1
  -5  -3  -6 1434.46 929.230   1
  11  -1  -6 4845.91 1575.91   1
  11   1  -6 10477.9 2332.07   1
  11  -1  -6 9145.65 1817.69   1
 -11   1   6 14010.3 2131.72   1
  11   1  -6 11067.7 4296.16   1
   4  -5   3 363.410 171.320   1
  -4  -5  -3 -521.25 384.970   1
   4  -5   3 -124.44 315.670   1
  -4   5  -3 1982.40 1468.93   1
   4   5   3 4841.67 2458.46   1
  -4   5  -3 1962.81 808.460   1
   4   5   3 1447.94 564.870   1
  -4  -5  -3 423.140 217.000   1
  10   2   0 26977.2 1464.89   1
  10  -2   0 27621.1 4346.88   1
  10  -2   0 24031.8 1672.38   1
  10   2   0 25685.4 3479.26   1
 -10   2   0 20528.2 1819.95   1
 -10   2   0 25639.3 2798.63   1
   7   2 -10 3033.80 1028.51   1
   7   2 -10 4988.43 2000.21   1
   7  -2 -10 2759.76 1108.55   1
   7   2 -10 1374.10 1067.61   1
  -7  -2  10 2705.61 771.150   1
  -7   2  10 4000.86 1135.39   1
   7  -2 -10 1386.77 954.400   1
   3  -5   4 17087.0 1159.90   1
  -3  -5  -4 18916.4 1120.48   1
  -3  -5  -4 10234.3 2664.58   1
  -3   5  -4 20173.2 1565.27   1
  -3   5  -4 19760.4 3738.55   1
   3   5   4 16130.2 2123.04   1
   3   5   4 14133.9 2602.93   1
  -2  -2  -9 8488.13 1933.72   1
   2   2   9 11129.4 4396.03   1
  -2   2  -9 5869.05 1753.31   1
  -2  -2  -9 7612.43 2069.48   1
  -2   2  -9 5731.71 1376.17   1
  -7  -2  -5 10731.2 3913.96   1
  -7   2  -5 11334.8 2520.74   1
   7  -2   5 11005.2 3966.37   1
   7   2   5 11359.3 1240.02   1
  -7  -2  -5 8247.33 1881.74   1
   0   6   0 -124.42 904.290   1
   0  -6   0 56.3200 136.510   1
   9  -3  -7 11362.6 1402.93   1
   9   3  -7 11490.3 2017.13   1
   9   3  -7 12390.8 1874.68   1
   9   3  -7 11387.9 1520.84   1
  -9   3   7 13012.6 2386.89   1
  -9  -1  -3 6928.15 1634.10   1
   9  -1   3 8001.37 1757.79   1
  -9  -1  -3 8240.48 1967.58   1
   9  -1   3 8484.30 2244.61   1
   9   1   3 9951.90 2091.16   1
  -9   1  -3 5556.68 1492.25   1
  -6   5   4 43397.1 5431.42   1
   6   5  -4 51108.7 2557.12   1
   6  -5  -4 48053.4 1927.47   1
   7   4  -7 54051.6 2439.81   1
   7  -4  -7 65322.7 2833.62   1
   7   4  -7 72142.9 5180.02   1
  -7   4   7 57371.1 5479.27   1
  -5   2  -7 22649.5 1415.56   1
  -5  -2  -7 27347.2 1544.09   1
   5   2   7 30643.4 3367.78   1
  -5   2  -7 31474.7 3771.73   1
  -5  -2  -7 26847.7 2907.30   1
   7  -4   2 5181.45 1303.36   1
   7   4   2 7382.98 1659.17   1
  -7   4  -2 11009.9 4076.43   1
   7  -4   2 7133.84 1599.57   1
  -7   4  -2 5885.72 1422.11   1
  -7  -4  -2 7827.24 1909.39   1
   4  -5  -6 10351.5 2208.82   1
  -4   5   6 6287.15 1922.42   1
   4   5  -6 7212.12 1913.20   1
   4   5  -6 5552.27 1595.91   1
  11   0  -1 2497.74 1299.16   1
  11   0  -1 2472.37 742.440   1
   7   3  -9 1135.66 640.410   1
  -7  -3   9 -208.12 317.830   1
   7  -3  -9 -1121.9 740.290   1
   7   3  -9 2744.72 1705.13   1
  -7   3   9 626.460 498.990   1
   7   3  -9 3260.80 1224.53   1
  -1   1 -10 3510.87 1292.34   1
   1   1  10 3595.04 1935.15   1
  -1  -1 -10 2023.16 868.190   1
  -1   1 -10 1227.06 821.720   1
  -1  -1 -10 994.150 923.470   1
   1   6   0 13140.8 1712.03   1
  -1   6   0 11171.9 3997.25   1
  -1  -6   0 8308.60 1714.01   1
   1  -6   0 9864.27 2209.65   1
   0   6  -1 2543.20 1175.11   1
   0   6   1 1027.78 1007.89   1
   0  -6  -1 -985.90 348.330   1
   0  -6   1 450.070 288.170   1
   8   4   0 64498.8 2847.14   1
   8  -4   0 56768.3 2148.09   1
  -8   4   0 62417.1 2750.12   1
  -8   4   0 59491.8 3229.29   1
  -7  -3  -4 11168.2 4105.36   1
   7  -3   4 13801.3 2337.33   1
   7   3   4 15517.3 1828.11   1
  -7  -3  -4 15161.1 1165.01   1
   7  -3   4 16640.6 2450.96   1
  -7   3  -4 16816.8 2650.30   1
  -7   3  -4 16620.0 1733.52   1
   1  -6  -1 1206.64 562.870   1
   1   6  -1 -639.00 1060.33   1
  -1   6   1 -280.08 883.780   1
   6   5   0 8288.83 1768.17   1
  -6  -5   0 11911.9 1117.02   1
   6  -5   0 9698.50 2103.75   1
   6   5   0 6597.42 2722.48   1
  -6   5   0 3049.50 1337.36   1
  11   0  -7 -4423.3 1634.32   1
 -11   0   7 -1313.6 1121.84   1
  11   0  -7 654.200 377.220   1
   6  -1 -11 47527.8 5125.38   1
   6  -1 -11 55234.8 3372.37   1
  -6  -1  11 53672.8 1876.65   1
  -6   1  11 62438.2 2460.33   1
   6   1 -11 62437.6 2794.49   1
   6   1 -11 51593.9 2909.17   1
  -2   4  -7 18786.0 1279.07   1
  -2  -4  -7 21062.9 1115.34   1
  -2  -4  -7 20926.6 2868.96   1
  -2   4  -7 12739.8 2429.46   1
   2   4   7 30296.9 2942.76   1
   5  -5   2 6941.43 1603.75   1
  -5  -5  -2 10565.0 2091.92   1
  -5   5  -2 8598.71 2008.32   1
  -5  -5  -2 4710.61 1052.13   1
  -5   5  -2 7051.05 1805.05   1
   5   5   2 6796.89 1798.75   1
   5   5   2 5011.87 1899.91   1
   5  -5   2 4071.67 1219.11   1
  -3  -1  -9 -1372.5 805.440   1
  -3   1  -9 6954.80 1787.90   1
  -3  -1  -9 4635.79 1512.25   1
  -3   1  -9 3702.14 1134.95   1
   2   1 -11 32046.1 1507.00   1
   2   1 -11 26429.6 4364.64   1
   2  -1 -11 30675.7 4677.86   1
  -2   1  11 34899.9 2207.44   1
   2  -1 -11 34670.2 2373.43   1
   4   3   7 22338.1 4141.36   1
  -4   3  -7 21818.0 1454.51   1
  -4  -3  -7 27661.7 2869.92   1
  -4   3  -7 23621.7 2808.35   1
  -4   3  -7 28101.5 4317.79   1
   4   3   7 32677.4 3558.69   1
  -4  -3  -7 23170.5 2821.77   1
   0  -2 -10 72106.8 4917.93   1
   0   2 -10 74009.3 2654.90   1
   0   2  10 68778.5 3377.01   1
   0  -2 -10 69456.8 2731.69   1
   0   2 -10 79389.9 3584.81   1
  10  -3  -4 10660.1 3955.38   1
  10  -3  -4 13683.3 1493.67   1
 -10   3   4 8816.45 2572.93   1
  10   3  -4 9878.86 2244.06   1
  10   3  -4 10664.7 4124.11   1
   0   5  -6 18033.6 1657.53   1
   0   5   6 14266.0 1564.69   1
   0   5   6 11622.4 2082.44   1
   0  -5  -6 15715.7 1155.56   1
   0  -5   6 15442.9 1058.90   1
 -10   3   3 27103.3 3776.62   1
  10   3  -3 29155.8 2370.95   1
  10  -3  -3 33927.0 1744.88   1
  10   3  -3 32696.5 2217.30   1
   2  -5   5 6328.78 1554.20   1
  -2  -5  -5 5829.48 1245.22   1
  -2  -5  -5 7678.25 1948.83   1
  -2   5  -5 1364.27 1179.87   1
  -2   5  -5 5753.32 1498.33   1
   2   5   5 6807.86 2352.64   1
   2   5   5 7134.47 1668.41   1
  -1  -6  -1 392.410 279.580   1
   1  -6   1 2241.53 949.390   1
   1   6   1 5016.06 1653.85   1
  -1   6  -1 3164.35 1434.85   1
   0   4  -8 4420.30 1405.83   1
   0   4  -8 4871.04 1188.99   1
   0   4   8 7805.67 2222.30   1
   0  -4  -8 7228.20 1758.81   1
   0  -4  -8 4697.50 1179.93   1
   8  -4  -6 1303.26 936.890   1
   8  -4  -6 2506.77 1274.31   1
  -8   4   6 4762.67 1566.59   1
   8   4  -6 -1789.4 1228.56   1
   7   0 -11 -417.04 792.440   1
   7   0 -11 -851.96 1101.02   1
  -7   0  11 -229.51 523.310   1
   8   2   4 4283.39 1151.25   1
   8  -2   4 3068.31 898.530   1
  -8  -2  -4 -1225.3 901.500   1
  -8   2  -4 1974.00 1487.49   1
  -8  -2  -4 5615.55 1916.30   1
   8  -2   4 208.870 835.530   1
   6   4  -8 2000.95 1261.54   1
   6   4  -8 2811.34 966.210   1
   6  -4  -8 6210.93 1494.64   1
  -6   4   8 2681.05 792.550   1
   2   6  -1 2950.02 1706.81   1
  -2   6   1 2057.02 889.630   1
   2  -6  -1 1614.74 736.200   1
   1   6  -2 1835.44 881.210   1
  -1   6   2 146.320 738.740   1
   1   6  -2 1528.51 844.840   1
   1  -6  -2 1792.45 679.220   1
  -7   0  -6 -2001.3 1473.91   1
   7   0   6 409.080 833.300   1
  -7   0  -6 3694.00 1650.99   1
  -9   3  -1 5671.16 1813.69   1
  -9   3  -1 6027.88 1815.92   1
   9   3   1 10731.2 3807.00   1
   9  -3   1 10553.7 2152.32   1
   9  -3   1 10651.8 3936.75   1
  10   0  -9 -1000.8 656.530   1
 -10   0   9 2644.53 1181.78   1
  10   0  -9 858.970 1264.79   1
   1   0 -11 1409.32 783.750   1
   1   0 -11 5275.37 1560.76   1
  -1   0  11 228.750 1046.92   1
   2  -6   0 287.210 313.680   1
   2   6   0 413.490 1130.26   1
  -2   6   0 -658.60 762.620   1
  -2  -6   0 -36.440 164.440   1
  11  -1  -1 22648.1 3422.50   1
  11   1  -1 25889.0 1931.41   1
  11  -1  -1 28754.9 2071.54   1
  11   1  -1 26006.5 2844.08   1
   9   2  -9 1667.53 1096.82   1
   9  -2  -9 3135.91 1526.73   1
  -9   2   9 3582.09 1002.44   1
   9   2  -9 1241.94 643.620   1
   9  -2  -9 591.880 842.620   1
   9   2  -9 4016.18 1553.61   1
  -9  -2   9 1104.09 665.540   1
   6   0   7 2351.70 692.640   1
  -6   0  -7 -1189.4 1528.10   1
  -6   0  -7 -1772.7 1025.61   1
  10   3  -5 -530.51 464.550   1
  10  -3  -5 -189.74 315.210   1
  10   3  -5 -1005.9 1500.22   1
 -10   3   5 1165.12 783.200   1
  10  -3  -5 399.160 1007.86   1
   0  -6  -2 -976.33 387.430   1
   0   6  -2 1975.26 931.160   1
   0   6  -2 844.310 750.360   1
   0   6   2 1940.84 962.040   1
  -9   0  10 320933. 10252.3   1
   9   0 -10 355154. 121770.   1
   9   0 -10 362540. 124332.   1
   9   0 -10 344576. 10974.3   1
   4   3 -10 21258.2 960.420   1
   4   3 -10 15698.1 3755.52   1
  -4   3  10 24410.3 1744.23   1
   4  -3 -10 25316.2 4028.74   1
   4  -3 -10 20593.5 1319.12   1
  11   2  -4 15608.9 2298.21   1
 -11   2   4 18445.0 2052.09   1
  11  -2  -4 10891.1 3905.15   1
  11   2  -4 11898.3 1603.45   1
 -10   3   2 59088.8 3788.04   1
  10  -3  -2 69642.6 3364.69   1
  10   3  -2 66676.5 2628.57   1
  10   3  -2 69637.4 4078.41   1
  -4  -2  -8 6174.34 1748.79   1
  -4   2  -8 3469.42 1585.12   1
  -4  -2  -8 1828.99 599.570   1
  -4   2  -8 2189.61 910.690   1
   4   2   8 2959.24 1013.88   1
  -3   3  10 4821.22 1773.12   1
   3  -3 -10 -681.03 821.670   1
   3   3 -10 156.480 423.540   1
   3  -3 -10 989.090 651.660   1
   3   3 -10 -601.83 1072.83   1
  11  -1  -7 17103.9 2414.94   1
  11   1  -7 2952.95 1518.23   1
  11  -1  -7 6232.71 1398.41   1
   6   5  -5 648.920 1221.54   1
  -6   5   5 1439.54 969.050   1
   6  -5  -5 415.500 677.050   1
   2  -6  -2 567.860 510.430   1
   2   6  -2 395.980 974.760   1
  -2   6   2 1588.55 944.960   1
  -5   5   6 5012.51 1407.11   1
   5  -5  -6 4158.08 1220.45   1
   5   5  -6 1874.09 1018.62   1
 -11   2   3 49714.0 5936.30   1
  11  -2  -3 44842.9 3476.94   1
  11   2  -3 42041.7 2479.84   1
  11  -2  -5 16384.8 1889.90   1
  11   2  -5 12976.9 2438.56   1
  11  -2  -5 14225.1 2161.31   1
  11   2  -5 12273.7 1747.77   1
 -11   2   5 14099.7 2263.49   1
 -10   0  -2 2642.49 1098.31   1
  10   0   2 9131.76 2049.96   1
  10   0   2 4870.55 1262.98   1
  -1  -3  -9 3003.44 975.130   1
   1   3   9 -547.63 1971.38   1
  -1  -3  -9 3616.89 1073.32   1
  -1   3  -9 219.540 801.720   1
  -1   3  -9 695.190 583.400   1
  -8   0  -5 1448.87 647.780   1
   8   0   5 -1804.3 1041.41   1
  -8   0  -5 500.010 1098.16   1
   5  -3 -10 11677.8 1098.01   1
   5   3 -10 10997.8 4508.15   1
   5   3 -10 12273.8 926.460   1
  -5   3  10 13356.3 1624.18   1
   5  -3 -10 11010.9 3878.33   1
  -8   3  -3 1927.51 1173.61   1
  -8  -3  -3 295.550 366.540   1
   8   3   3 -225.33 1049.65   1
  -8   3  -3 3398.85 1592.66   1
   8  -3   3 645.080 513.620   1
  -8  -3  -3 1501.33 961.430   1
   8  -3   3 -51.070 559.320   1
   5  -4   5 10763.5 4043.65   1
  -5   4  -5 11765.8 1959.16   1
   5   4   5 6394.54 3258.24   1
  -5  -4  -5 9377.17 2115.18   1
  -5   4  -5 9037.45 2254.43   1
  -5  -4  -5 9632.97 2090.49   1
   5   4   5 10807.7 4303.52   1
   5  -4   5 12110.8 2119.25   1
  10   2  -8 2727.50 934.590   1
  10  -2  -8 2020.85 1177.30   1
  10  -2  -8 3436.85 1293.87   1
  10   2  -8 2265.10 1707.81   1
 -10   2   8 1597.98 1178.42   1
  -2  -6  -1 63667.8 2094.62   1
  -2   6  -1 69177.8 2909.29   1
   2   6   1 63642.4 3091.40   1
   2  -6   1 68122.4 2360.40   1
  -1   6  -2 4197.83 1016.06   1
   1   6   2 4973.04 1598.00   1
  -1   6  -2 4809.58 1435.32   1
  -1  -6  -2 7278.21 1427.74   1
   1  -6   2 4655.65 903.840   1
   7  -1 -11 39110.2 2416.06   1
   7   1 -11 33590.3 2582.53   1
   7   1 -11 37271.0 2095.30   1
   7  -1 -11 29369.0 4160.49   1
  -7   1  11 37633.2 4646.47   1
  -7  -1  11 32240.2 1294.00   1
   7   1 -11 31984.7 4264.72   1
  -7  -1  -6 -601.28 1413.27   1
   7   1   6 -1670.0 1168.11   1
  -7   1  -6 8591.55 2039.29   1
   7  -1   6 3257.42 858.040   1
  -7   1  -6 888.210 949.360   1
  -7  -1  -6 6815.20 1798.03   1
  -6   5  -1 5127.73 1677.71   1
   6  -5   1 5568.15 1152.40   1
  -6  -5  -1 5782.17 1243.21   1
   6   5   1 5911.34 1400.29   1
  -6   5  -1 9345.85 2399.30   1
   6   5   1 6684.88 2089.35   1
  -2   3  10 -446.35 1129.62   1
   2   3 -10 -465.89 904.230   1
   2  -3 -10 1494.58 866.340   1
   2  -3 -10 247.480 807.770   1
   2   3 -10 -217.51 473.680   1
  -1   1  11 72995.6 3467.25   1
   1  -1 -11 66295.9 2692.31   1
   1  -1 -11 61835.4 4384.15   1
   1   1 -11 71261.1 2883.56   1
  -6   1  -7 85924.8 3543.71   1
  -6  -1  -7 62996.1 7148.94   1
  -6   1  -7 79085.4 7185.74   1
   6   1   7 71258.5 5042.17   1
   6  -1   7 73971.9 4977.22   1
   6   4   4 -1332.1 1812.09   1
  -6  -4  -4 1429.68 843.120   1
   6  -4   4 781.630 625.960   1
   6  -4   4 -281.50 620.090   1
  -6   4  -4 2574.80 1572.26   1
  -6  -4  -4 2009.37 787.480   1
   6   4   4 554.290 1298.27   1
   4  -2 -11 16392.1 2331.79   1
   4   2 -11 18591.7 1446.42   1
   4  -2 -11 19246.1 3325.95   1
   4   2 -11 19135.4 2678.22   1
  -4   2  11 17598.1 1368.03   1
  -8   2  10 14059.7 2567.43   1
  -8  -2  10 12603.0 2176.32   1
   8   2 -10 11898.3 2227.27   1
   8   2 -10 13079.9 2653.73   1
   8   2 -10 15217.6 3162.47   1
   8  -2 -10 16141.2 1603.44   1
   3   3   8 22214.7 3571.91   1
  -3   3  -8 24903.8 3619.51   1
  -3  -3  -8 26522.8 3910.96   1
   3   3   8 36442.4 2238.80   1
  -3  -3  -8 35595.5 2197.55   1
  -3   3  -8 23232.0 1732.86   1
   9  -1 -10 70382.1 4659.17   1
   9  -1 -10 58828.2 3229.83   1
   9   1 -10 66759.0 4641.74   1
  -9   1  10 58478.8 8616.51   1
  -9  -1  10 61949.9 3238.64   1
   9  -1 -10 64803.5 3572.06   1
   9   1 -10 63507.4 3654.74   1
   9   1 -10 65644.4 4001.43   1
   9  -4  -3 62733.5 3304.22   1
  -9   4   3 79062.1 4450.27   1
   9   4  -3 78300.5 4112.03   1
  -4   4  -6 7776.95 1811.29   1
   4   4   6 10860.6 3080.41   1
  -4   4  -6 2391.48 1764.55   1
  -4  -4  -6 4982.50 925.940   1
   4   4   6 5781.66 1266.41   1
  -4  -4  -6 7519.05 1467.38   1
  -1   5  -6 10467.7 2026.17   1
   1  -5   6 7956.12 1732.52   1
  -1  -5  -6 10326.9 1728.73   1
   1   5   6 8790.90 2107.55   1
   1   5   6 9158.22 2279.36   1
  -1  -5  -6 8671.58 1758.31   1
   3  -6  -1 398.170 209.170   1
   3   6  -1 7643.92 2340.55   1
 -10  -2  -1 3052.82 1180.88   1
  10  -2   1 6396.29 1213.86   1
 -10   2  -1 6093.04 1739.93   1
  10   2   1 7417.56 1467.46   1
  10   2   1 4822.02 1098.92   1
  10  -2   1 4865.65 994.540   1
 -11   0   0 209582. 70696.6   1
  11   0   0 206392. 10209.4   1
   1  -6  -3 3472.46 1380.20   1
   1   6  -3 1015.84 968.450   1
  -1   6   3 2313.59 1123.07   1
   1   6  -3 358.860 790.460   1
  10  -3  -6 8928.00 1989.53   1
  10   3  -6 7339.63 1831.61   1
  10  -3  -6 9556.57 1837.72   1
  10   3  -6 8372.46 2290.92   1
 -10   3   6 13084.6 2989.33   1
   8  -4   1 1498.44 648.320   1
  -8   4  -1 3110.95 1505.87   1
  -8   4  -1 4279.61 1503.87   1
   8   4   1 2364.40 1024.18   1
   8  -4   1 1730.57 772.420   1
  -8  -4  -1 1646.37 924.180   1
   9  -4  -4 3022.82 1307.59   1
   9  -4  -4 1606.67 1035.18   1
  -9   4   4 4732.79 1233.29   1
   9   4  -4 3427.88 2072.82   1
   9   4  -4 860.560 353.610   1
   5  -2 -11 22574.1 1858.27   1
  -5   2  11 23517.8 1730.94   1
   5   2 -11 18242.8 3483.36   1
   5  -2 -11 21237.2 4631.72   1
   5   2 -11 18802.8 2135.98   1
  -2   0 -10 116626. 5691.61   1
  -7   5   3 3049.79 1228.97   1
   7  -5  -3 2494.87 1009.01   1
   7   5  -3 1817.13 1365.61   1
   7  -5  -2 2477.32 991.000   1
  -7   5   2 3069.50 1356.66   1
   7   5  -2 3578.13 1228.36   1
  -3   2  11 8981.31 1760.76   1
   3   2 -11 10904.4 3805.91   1
   3   2 -11 5701.85 1141.78   1
   3  -2 -11 9277.07 2073.74   1
   3  -2 -11 8369.66 1906.66   1
  11   2  -2 43183.4 2340.65   1
  11  -2  -2 43908.8 5200.18   1
 -11   2   2 51543.4 6940.46   1
  11   2  -2 46640.2 3114.40   1
   3  -6  -2 38.0900 192.230   1
   3   6  -2 815.190 1250.25   1
  -3   6   2 2369.57 1417.02   1
   2   6  -3 45.9500 531.460   1
   2   6  -3 8636.15 1672.45   1
  -2   6   3 9124.81 1916.34   1
 -10   3   1 5648.97 1861.90   1
  10   3  -1 5434.01 1139.99   1
  10  -3  -1 3530.54 1472.51   1
  10   3  -1 5307.21 1288.69   1
  10  -3  -1 5278.65 1176.03   1
 -10  -1  -2 18663.1 1536.53   1
  10  -1   2 16102.6 1979.58   1
  10   1   2 12432.7 2578.33   1
 -10   1  -2 12223.5 2329.33   1
  10  -1   2 16290.4 2800.51   1
  11   2  -6 -1753.8 1756.15   1
  11  -2  -6 1818.95 1410.76   1
  11  -2  -6 -1367.4 773.840   1
 -11   2   6 4033.14 1233.76   1
  11   2  -6 516.900 564.100   1
   9  -3  -8 52718.9 3362.59   1
   9   3  -8 46545.0 2676.54   1
   9   3  -8 40618.3 2678.85   1
  -9   3   8 43208.1 6277.42   1
   9   3  -8 39100.8 4712.69   1
   9  -3  -8 40435.4 2798.21   1
  -3   6   0 11373.4 2684.72   1
   3   6   0 12198.4 2438.49   1
   3  -6   0 10668.8 1734.60   1
   9  -4  -2 1903.56 1059.26   1
   9  -4  -2 -926.47 710.100   1
  -9   4   2 1254.26 829.460   1
   9   4  -2 572.200 248.480   1
   9   4  -2 216.030 1093.94   1
  -8   1  -5 11814.8 2238.46   1
  -8  -1  -5 8373.82 1818.37   1
   8  -1   5 10108.4 2149.17   1
  -8  -1  -5 7740.26 1809.33   1
   8   1   5 14268.7 5097.15   1
  -8   1  -5 9958.96 2551.74   1
   0  -6  -3 49690.3 2547.01   1
   0   6   3 44010.2 2700.34   1
   0   6  -3 42378.1 2388.16   1
   0   6  -3 46571.1 2922.78   1
   3   5  -7 3186.40 1462.87   1
  -3   5   7 2344.76 1183.49   1
   3  -5  -7 2163.65 1299.33   1
   8   3  -9 6537.90 1611.31   1
   8   3  -9 5693.62 1738.93   1
  -8  -3   9 3936.75 1364.71   1
   8  -3  -9 7736.70 1400.66   1
  -8   3   9 12809.4 2512.07   1
   8   3  -9 2474.81 1488.72   1
   3   4  -9 7493.93 1831.58   1
  -3   4   9 5184.29 1522.15   1
   3  -4  -9 5879.74 1377.99   1
   3  -4  -9 8265.95 1794.54   1
   2   5  -7 2597.79 1161.89   1
   2  -5  -7 -642.05 751.900   1
  -2   5   7 3527.82 1473.78   1
   9  -2   3 18757.4 2766.98   1
  -9  -2  -3 16280.5 1753.77   1
   9  -2   3 17764.5 2359.09   1
   9   2   3 18953.1 2984.76   1
  -9  -2  -3 13736.8 2316.36   1
  -9   2  -3 13003.5 2518.70   1
  -4   5  -4 11526.5 2296.94   1
   4  -5   4 10795.9 2063.93   1
  -4   5  -4 9321.75 2457.02   1
   4   5   4 8909.60 1898.65   1
  -4  -5  -4 6504.19 1585.26   1
   4   5   4 5852.52 2931.82   1
   4  -5   4 8367.11 2062.83   1
  -4  -5  -4 10849.3 2076.99   1
  -6   3  10 7736.01 1983.13   1
   6  -3 -10 10080.9 1937.76   1
   6   3 -10 16253.0 1319.40   1
   6   3 -10 11223.7 2454.30   1
   6   3 -10 16750.0 1796.00   1
  -1   4  -8 15815.3 1222.91   1
  -1   4  -8 15941.5 2678.01   1
  -1  -4  -8 14982.1 1557.87   1
  -1  -4  -8 17482.6 2546.10   1
   1   4   8 15808.2 2079.08   1
   4   4  -9 17373.0 2625.24   1
   4  -4  -9 13945.5 4860.81   1
  -4   4   9 13254.7 2538.07   1
   5   1   8 9794.54 4449.23   1
  -5   1  -8 16922.0 1738.75   1
  -5  -1  -8 10931.1 2054.90   1
  -5   1  -8 9845.82 2618.58   1
  -5  -1  -8 10147.9 2076.39   1
  -8   4   7 14710.5 4095.68   1
   8  -4  -7 25046.5 2530.96   1
  -7   5   4 4274.57 1109.84   1
   7  -5  -4 6274.14 1324.24   1
   7   5  -4 4869.67 1304.28   1
  -7   5   1 1317.31 682.160   1
   7  -5  -1 206.430 288.360   1
   7   5  -1 1126.68 1014.61   1
  -8   0  11 -236.83 372.110   1
   8   0 -11 5235.11 1425.15   1
   8   0 -11 2745.71 1458.21   1
   8   0 -11 -39.230 794.990   1
   1   2  10 37177.4 3923.06   1
  -1   2 -10 22621.4 3147.95   1
  -1  -2 -10 25065.5 3369.90   1
  -1   2 -10 23339.3 1521.25   1
  -1  -2 -10 25950.6 1746.52   1
   7   4  -8 7905.23 1775.29   1
   7   4  -8 4649.39 1606.29   1
  -7   4   8 8441.01 2642.88   1
   7  -4  -8 11414.0 2105.66   1
   5   5   3 4547.82 2632.04   1
   5  -5   3 1513.27 630.740   1
  -5   5  -3 -20.080 1077.41   1
   5   5   3 1583.21 702.450   1
  -5   5  -3 4837.34 1232.43   1
  -5  -5  -3 1767.54 717.840   1
   5  -5   3 -559.17 407.800   1
  -5  -5  -3 1133.28 516.670   1
   9  -4  -5 7839.30 1567.42   1
   9  -4  -5 9253.58 1651.30   1
  -9   4   5 8206.30 1964.85   1
   9   4  -5 9717.31 2376.05   1
   9   4  -5 5884.60 1374.39   1
   9   0   4 11900.0 2593.11   1
  -9   0  -4 8375.10 2023.06   1
  -9   0  -4 3292.84 2265.18   1
  -7   4  -3 18952.7 3441.10   1
  -7   4  -3 22812.3 2293.36   1
   7   4   3 21826.0 3030.93   1
   7  -4   3 19030.0 3016.31   1
  -7  -4  -3 23527.4 1698.31   1
   7  -4   3 28798.1 1849.09   1
   2   4  -9 11263.9 2120.68   1
   2  -4  -9 15104.8 2540.93   1
   2  -4  -9 13725.6 2530.45   1
  -2   4   9 13785.0 2557.80   1
   0   0 -11 6444.79 1762.20   1
   0   0 -11 -1263.1 853.590   1
   2  -6   2 17442.2 1392.76   1
  -2  -6  -2 13780.5 2190.23   1
   2   6   2 11287.5 2512.77   1
  -2   6  -2 15589.2 1181.40   1
  -2   6  -2 15704.1 1529.18   1
   6  -2 -11 10949.7 1994.81   1
   6   2 -11 10089.2 2248.66   1
  -6   2  11 11263.1 2171.87   1
   6  -2 -11 13244.4 3210.98   1
   6   2 -11 10526.0 2335.40   1
 -11   1   0 -1210.1 1075.93   1
  11   1   0 -1845.8 654.550   1
  11  -1   0 -367.54 777.690   1
  11   1   0 1445.02 690.010   1
  11  -1   0 -25.710 1064.34   1
   3   5   5 -452.51 1899.15   1
   3  -5   5 5789.65 1269.13   1
  -3  -5  -5 4601.88 1201.53   1
  -3  -5  -5 4443.95 828.500   1
   3   5   5 6627.12 1447.49   1
  -3   5  -5 5442.74 1447.62   1
  -3   5  -5 5467.58 1112.53   1
   4   5  -7 13244.6 2960.40   1
   4   5  -7 14310.0 5970.80   1
  -4   5   7 14895.7 1559.65   1
   4  -5  -7 17614.6 1956.79   1
  -2  -1 -10 22278.1 1986.36   1
  -2   1 -10 17742.9 1672.01   1
  -2  -1 -10 17590.5 2230.42   1
  -2   1 -10 17267.5 2607.81   1
   1  -3 -10 27150.8 4048.66   1
   1  -3 -10 32177.7 4320.42   1
  -1   3  10 27154.0 2481.75   1
   1   3 -10 24026.2 3967.90   1
   1   3 -10 27527.7 1941.64   1
  -3   2  -9 2218.94 1506.06   1
  -3  -2  -9 2763.42 1245.06   1
  -3  -2  -9 -2051.8 1309.45   1
  -3   2  -9 -280.66 654.900   1
   3   2   9 4306.41 1924.01   1
   2  -2 -11 13712.1 2581.25   1
   2  -2 -11 15891.8 1394.28   1
   2   2 -11 14857.4 1753.22   1
  -2   2  11 8697.20 1904.03   1
   2   2 -11 5271.25 1558.43   1
   1   5  -7 19518.3 2498.80   1
  -1   5   7 19280.7 1992.43   1
   1  -5  -7 15955.3 1578.35   1
   3   6  -3 12154.8 1955.25   1
   3  -6  -3 12122.7 2285.92   1
   3   6  -3 15804.9 2077.53   1
  -3   6   3 15923.2 1653.76   1
   3   4   7 71905.5 4891.93   1
  -3  -4  -7 55130.1 6028.82   1
   3   4   7 62204.1 4857.50   1
  -3   4  -7 64812.3 7159.71   1
  -6   5   6 2176.26 1130.60   1
   6  -5  -6 2036.03 1204.08   1
   6   5  -6 2832.04 1836.21   1
  11  -1  -8 41922.4 3412.38   1
  11   1  -8 34874.3 2183.67   1
 -11  -1   8 34470.6 4935.00   1
 -11   1   8 37452.2 4716.92   1
  11   1  -8 37475.4 2036.17   1
  11  -1  -8 41338.4 2361.76   1
  11   1  -8 38420.7 3111.18   1
  12   0  -4 12557.4 2342.02   1
  12   0  -4 14919.2 2446.67   1
   5   4  -9 43273.2 6482.40   1
   5   4  -9 48042.5 2934.54   1
  -5   4   9 33301.5 2687.89   1
   5  -4  -9 41519.7 2890.44   1
   3   6   1 142710. 7346.85   1
  -3   6  -1 142012. 7098.02   1
  -3  -6  -1 148739. 7129.52   1
   3  -6   1 141274. 6876.61   1
   1   6   3 11205.9 2300.64   1
  -1  -6  -3 8718.97 1469.50   1
  -1   6  -3 6474.09 1274.88   1
  -1   6  -3 9779.69 1771.67   1
  -4   0  -9 2413.92 1191.45   1
  -4   0  -9 2719.06 1353.66   1
  12   0  -5 1647.03 685.260   1
  12   0  -5 4857.25 1901.89   1
  -9   4   1 12201.0 2414.02   1
   9  -4  -1 11045.5 3662.13   1
   9  -4  -1 15797.5 2422.25   1
   9   4  -1 9987.41 2650.78   1
   9   4  -1 15984.0 1523.44   1
  11  -2  -1 54512.4 3516.07   1
 -11   2   1 54224.2 5807.45   1
  11   2  -1 49422.7 3270.94   1
  11   2  -1 55941.3 3287.76   1
  -8   1  11 36288.5 4541.76   1
   8   1 -11 43952.2 4669.55   1
   8  -1 -11 37506.6 3048.30   1
   8   1 -11 40093.8 5361.88   1
  -8  -1  11 39974.8 2163.74   1
   8   1 -11 42315.1 3763.72   1
   8  -1 -11 46640.7 2747.98   1
  -9   3  -2 321.530 713.060   1
  -9   3  -2 1301.17 1107.07   1
   9   3   2 608.870 488.520   1
   9  -3   2 2536.65 984.330   1
   9  -3   2 1943.23 834.400   1
  -9  -3  -2 3031.05 1662.92   1
  12   0  -3 -1708.7 1544.95   1
  12   0  -3 1902.29 780.510   1
  -9   1  -4 3808.05 1854.01   1
   9  -1   4 2553.84 1149.67   1
  -9  -1  -4 2117.30 1603.39   1
   9   1   4 8453.79 1741.48   1
  -9  -1  -4 6627.93 1430.93   1
 -10   3   7 2449.11 1155.08   1
  10  -3  -7 177.260 1010.63   1
  10  -3  -7 166.190 735.600   1
  10   3  -7 -292.84 403.740   1
  10   3  -7 748.100 1379.71   1
   4  -6  -1 4021.23 839.430   1
   4   6  -1 3067.39 1500.93   1
 -11   2   7 38170.3 4771.63   1
  11   2  -7 32057.6 1829.04   1
  11  -2  -7 43961.5 3059.92   1
  11   2  -7 34331.6 1758.84   1
  11   2  -7 38689.5 3171.94   1
  11  -2  -7 49733.4 3278.10   1
   0   1 -11 9209.62 2001.85   1
   0  -1 -11 10922.4 1988.30   1
   0  -1 -11 12095.0 2645.34   1
   0   1 -11 7155.78 1946.95   1
   0   1  11 2822.51 2243.48   1
   4  -6  -2 9142.23 1776.28   1
   4   6  -2 9528.41 1957.02   1
   4   6  -2 11051.4 2913.07   1
  -4   6   2 5870.83 1692.28   1
  -7   5   5 1806.58 1108.92   1
   7  -5  -5 1962.17 914.260   1
   7   5  -5 2072.43 1358.58   1
  -6   5  -2 131.420 1121.29   1
   6   5   2 3871.98 1112.18   1
   6  -5   2 262.390 201.970   1
   6  -5   2 -544.12 442.800   1
  -6  -5  -2 1930.40 966.090   1
   6   5   2 -2120.7 1613.05   1
  -6   5  -2 -1349.8 967.100   1
   7  -5   0 4501.65 850.870   1
  -7   5   0 2350.59 1089.80   1
   7   5   0 7853.39 1778.99   1
   1   6  -4 22391.5 2248.62   1
   1  -6  -4 15947.6 1338.82   1
   1   6  -4 11713.5 2083.80   1
  -1   6   4 14080.2 5025.56   1
  -2   6   4 4106.27 1311.85   1
   2   6  -4 2313.27 1028.55   1
   2  -6  -4 2446.62 1222.04   1
   2   6  -4 5802.62 1566.60   1
  -6   3  -6 6526.26 2384.68   1
  -6   3  -6 909.460 1322.58   1
   6  -3   6 3948.13 815.310   1
  -6  -3  -6 2012.87 915.330   1
   6   3   6 1559.74 667.060   1
  -6  -3  -6 1041.05 889.400   1
   1   4  -9 58125.4 10150.9   1
  -1   4   9 53911.5 3573.93   1
   1  -4  -9 53372.5 2847.70   1
   1  -4  -9 61090.0 3355.73   1
   5   5  -7 21623.7 1988.30   1
   5   5  -7 16589.5 4500.99   1
  -5   5   7 21528.1 2521.01   1
   5  -5  -7 23042.0 2224.40   1
  -2   5  -6 11773.6 2417.15   1
   2   5   6 14958.7 2384.26   1
   2  -5   6 11871.8 2664.68   1
  -2  -5  -6 12561.1 2769.80   1
  -2  -5  -6 12835.4 2172.13   1
   2   5   6 14510.3 5344.24   1
  10  -3   0 -96.070 839.150   1
 -10   3   0 3514.57 1549.32   1
  10   3   0 1988.34 956.940   1
 -10   3   0 1615.66 986.350   1
  10  -3   0 -319.96 719.980   1
  10   3   0 3317.53 1703.11   1
  12   1  -4 11520.9 2442.05   1
  12  -1  -4 10488.3 2825.16   1
  12   1  -4 14936.7 2019.01   1
  12  -1  -4 11208.1 2843.88   1
 -12   1   4 13876.6 5302.34   1
   7   3 -10 30697.0 2236.89   1
   7  -3 -10 30466.1 2121.61   1
   7   3 -10 25049.0 3286.57   1
   7   3 -10 27922.3 5088.52   1
  -7   3  10 35591.5 3397.08   1
  -4   0  12 42114.0 2390.44   1
   4   0 -12 43334.5 9567.31   1
   4   0 -12 43207.6 2501.66   1
  -9   4   6 3527.22 1473.11   1
   9  -4  -6 1853.12 936.290   1
   9  -4  -6 1537.29 1103.26   1
   9   4  -6 2635.37 1488.45   1
   2   3   9 53375.1 4212.43   1
  -2   3  -9 60770.7 8263.33   1
  -2  -3  -9 49770.4 5627.70   1
  -2  -3  -9 61341.3 3274.20   1
   5   0 -12 7566.82 2078.30   1
  -5   0  12 14219.3 4906.34   1
   5   0 -12 15699.4 1603.92   1
   7  -3   5 2032.97 811.090   1
  -7  -3  -5 2420.15 973.230   1
   7  -3   5 3393.30 1330.08   1
   7   3   5 3058.56 1355.58   1
  -7   3  -5 2668.66 1535.75   1
  -7   3  -5 9832.61 2511.26   1
  -7  -3  -5 4913.45 1393.32   1
  -4  -1  -9 1119.49 1383.83   1
  -4   1  -9 2111.36 1036.81   1
  -4  -1  -9 4163.32 1071.67   1
  -4   1  -9 -1861.4 1650.46   1
  12   1  -5 2257.52 872.230   1
 -12   1   5 1148.33 1120.01   1
  12   1  -5 4590.17 1446.52   1
  12  -1  -5 2233.47 1675.37   1
  12  -1  -5 5324.76 1149.81   1
   0   5  -7 8270.85 1776.04   1
   0  -5   7 7111.39 1207.26   1
   0   5   7 7012.58 1895.73   1
   0  -5  -7 14199.3 5053.23   1
  10   0 -10 2647.30 1297.39   1
  10   0 -10 4508.62 2045.47   1
  10   0 -10 -624.08 919.310   1
 -10   0  10 535.490 997.090   1
  -7   2  11 36439.0 4682.04   1
   7   2 -11 34743.3 5554.34   1
   7  -2 -11 37907.0 2827.80   1
   7   2 -11 33569.4 4557.88   1
   7   2 -11 33016.4 2400.47   1
   7  -2 -11 35739.7 2661.26   1
  -4   6   0 153626. 8313.34   1
   4   6   0 161420. 8010.30   1
   4  -6   0 150060. 7241.85   1
   4   6   0 149217. 8032.96   1
   5   3   7 5349.27 1354.20   1
  -5  -3  -7 3145.14 1418.83   1
  -5   3  -7 11584.2 2537.40   1
  -5   3  -7 8041.63 1756.11   1
   5   3   7 5476.50 1761.39   1
  -5   3  -7 5354.15 1266.12   1
  -5  -3  -7 3855.54 1155.52   1
  -7   2  -6 16122.8 1525.37   1
  -7  -2  -6 15894.8 1432.19   1
   7   2   6 18938.5 2870.83   1
  -7  -2  -6 14818.3 2048.01   1
  -7   2  -6 16810.1 2575.99   1
   7  -2   6 17647.5 3437.72   1
   0   6  -4 18915.1 1442.23   1
   0   6  -4 18591.9 1730.56   1
   0  -6  -4 20608.5 1383.04   1
   0   6   4 19852.8 2000.93   1
   4  -6  -3 19094.4 1374.81   1
   4   6  -3 19518.9 2428.18   1
  -4   6   3 17115.4 2286.91   1
   4   6  -3 16450.9 1393.74   1
  10  -2  -9 11586.6 2201.79   1
  10   2  -9 13242.2 2902.35   1
  10  -2  -9 13400.7 2286.03   1
  10   2  -9 15112.4 1148.71   1
 -10   2   9 15198.1 1943.12   1
 -10  -2   9 13515.7 2970.51   1
  10   2  -9 14895.2 2771.48   1
   1  -2 -11 10741.1 1866.91   1
   1  -2 -11 9644.07 2438.31   1
  -1   2  11 11013.1 2459.24   1
   1   2 -11 4240.76 1718.81   1
   1   2 -11 11417.3 2078.73   1
   6   4  -9 1692.84 830.970   1
  -6   4   9 1435.42 818.470   1
   3   6  -4 40828.4 2360.56   1
   3  -6  -4 46426.6 2692.80   1
   3   6  -4 39430.6 2604.01   1
  -3   6   4 39720.3 2413.91   1
  -6   2  -7 16878.2 3722.62   1
  -6  -2  -7 17208.2 1456.01   1
  -6   2  -7 15192.9 1461.55   1
   6  -2   7 19227.5 2625.66   1
   6   2   7 16915.7 2861.06   1
  -6  -2  -7 15452.0 3411.82   1
  12   1  -3 67692.9 5560.51   1
  12  -1  -3 73545.5 4915.28   1
   9  -2 -10 1582.07 898.490   1
   9   2 -10 1264.72 833.820   1
   9   2 -10 347.850 1612.31   1
   9   2 -10 2498.59 1262.15   1
  -9  -2  10 2236.65 897.250   1
  -9   2  10 1553.93 827.640   1
   9  -2 -10 2.34000 1075.64   1
  -8   4  -2 14778.9 2171.66   1
  -8   4  -2 17533.3 1735.86   1
   8  -4   2 9915.93 2606.72   1
   8   4   2 9479.89 2005.61   1
  -8  -4  -2 12944.2 2187.24   1
   8  -4   2 16437.0 2105.70   1
  11   0   1 829.500 764.090   1
 -11   0  -1 -1313.7 847.370   1
  11   0   1 -2.5900 985.210   1
   3   0 -12 13050.6 3236.85   1
   3   0 -12 11905.3 3241.67   1
  -3   0  12 12590.3 2361.52   1
  12   0  -2 91564.3 4899.97   1
   3   6   2 44428.9 3254.94   1
  -3   6  -2 59648.4 4389.01   1
  -3   6  -2 45267.6 2641.86   1
  -3  -6  -2 54520.3 2792.88   1
   3  -6   2 47814.7 2817.84   1
  -2   6  -3 56.3600 843.100   1
   2   6   3 -384.95 1166.21   1
  -2  -6  -3 1402.06 597.870   1
   2  -6   3 -55.120 237.740   1
  -2   6  -3 1319.08 997.280   1
  -6   0  12 39309.8 2210.31   1
   6   0 -12 33478.9 5572.39   1
   6   0 -12 40137.8 2780.21   1
   0  -3 -10 1015.96 897.600   1
   0   3  10 -196.55 1646.57   1
   0   3 -10 7419.95 2151.44   1
   0   3 -10 539.470 559.720   1
   0  -3 -10 2632.84 1175.77   1
  12   1  -6 480.520 460.790   1
 -12   1   6 2281.00 1052.67   1
  12  -1  -6 -293.81 838.150   1
  12   1  -6 -4435.7 1604.35   1
  12  -1  -6 1936.91 1569.21   1
   9  -4   0 1854.57 762.440   1
   9  -4   0 2249.09 1202.95   1
  -9   4   0 -363.99 930.160   1
  -9   4   0 1675.71 1093.61   1
   9   4   0 2806.53 1340.07   1
  10   0   3 2449.10 1199.56   1
 -10   0  -3 -785.79 912.300   1
  11   0  -9 1105.81 480.040   1
 -11   0   9 872.230 567.670   1
  11   0  -9 1626.66 1529.68   1
  10   2   2 8109.25 1697.51   1
  10  -2   2 3151.49 1241.70   1
  10  -2   2 8675.25 1697.25   1
 -10   2  -2 2633.57 1444.83   1
 -10  -2  -2 4160.85 1000.26   1
   4   1 -12 -1364.3 1539.54   1
   4  -1 -12 -1054.0 967.300   1
   4   1 -12 2624.54 1152.36   1
  -4   1  12 2404.89 1304.87   1
   4  -1 -12 1962.46 1005.91   1
  -8   2  -5 5048.44 2375.08   1
  -8  -2  -5 -1219.6 965.640   1
   8   2   5 1974.92 1095.11   1
  -8  -2  -5 -160.43 1068.22   1
   8  -2   5 1602.81 832.370   1
  -2   4  -8 570.160 829.680   1
  -2   4  -8 450.110 1027.53   1
  -2  -4  -8 357.630 695.070   1
   2   4   8 1218.82 625.580   1
  -2  -4  -8 1336.36 817.170   1
   2   4   8 779.740 1662.17   1
   5  -1 -12 3564.32 1353.74   1
   5   1 -12 -2291.5 1413.07   1
  -5   1  12 -385.97 657.700   1
   5  -1 -12 1666.36 765.480   1
   5   1 -12 945.730 867.780   1
  10   1 -10 9857.52 2321.01   1
  10  -1 -10 4912.93 1761.95   1
  10   1 -10 12734.4 2673.15   1
  10   1 -10 12063.1 2463.65   1
 -10  -1  10 9575.52 2036.76   1
 -10   1  10 10250.2 2389.43   1
  10  -1 -10 10330.0 1836.25   1
   8  -3   4 3707.09 932.770   1
  -8  -3  -4 7959.89 1927.48   1
   8  -3   4 2915.09 1182.83   1
   8   3   4 5851.15 1498.53   1
  -8  -3  -4 3345.95 1414.28   1
  -8   3  -4 3321.60 1624.86   1
  -8   3  -4 3091.46 1915.93   1
   9   0 -11 4837.22 1474.10   1
  -9   0  11 640.610 633.300   1
   9   0 -11 1390.10 911.600   1
   9   0 -11 -308.60 793.020   1
 -12   0   7 536.910 1221.51   1
  12   0  -7 -463.83 464.270   1
  12   0  -7 -52.810 1738.20   1
   5   2   8 2547.31 1102.53   1
  -5  -2  -8 3926.14 1060.66   1
  -5   2  -8 2413.06 1441.16   1
  -5  -2  -8 2268.77 1071.44   1
  -5   2  -8 -544.63 860.580   1
   9  -3  -9 36802.9 4951.71   1
   9   3  -9 33996.4 2104.82   1
   9   3  -9 26479.9 2615.34   1
   9  -3  -9 29991.3 2066.09   1
   9   3  -9 26997.4 3954.00   1
  -9  -3   9 29838.8 1741.94   1
  -9   3   9 37725.7 3834.76   1
   8   4  -8 8102.20 1950.81   1
  -8   4   8 8374.06 2036.81   1
   8  -4  -8 9489.39 1864.88   1
  -4  -6  -1 92832.7 4534.35   1
  -4   6  -1 75934.1 5431.03   1
   4   6   1 96143.4 4810.39   1
   4  -6   1 85918.8 4222.52   1
   4   6   1 80413.2 5087.62   1
  -4   6  -1 78651.4 4128.28   1
  -1   0 -11 1224.86 873.620   1
  -1   0 -11 -343.81 1500.01   1
 -11  -1  -1 8606.43 1521.67   1
 -11   1  -1 14036.2 4942.32   1
  11   1   1 13107.5 3012.58   1
  11  -1   1 16343.7 1894.45   1
  11  -1   1 18420.4 2461.19   1
  11   1   1 12487.3 2821.55   1
   0   4  -9 17587.2 1254.01   1
   0   4  -9 20858.2 2783.60   1
   0  -4  -9 15079.6 1431.00   1
   0   4   9 17664.8 2631.58   1
   0  -4  -9 23159.1 3083.91   1
 -11   3   4 7340.73 1544.60   1
  11  -3  -4 4110.08 1311.40   1
  11  -3  -4 9792.50 1920.57   1
  11   3  -4 5493.66 1110.19   1
  11   3  -4 2306.82 1806.15   1
  -3   1  12 12489.0 2233.48   1
   3  -1 -12 19827.9 1900.37   1
   3   1 -12 14779.3 1339.86   1
   3   1 -12 14179.2 5761.85   1
   3  -1 -12 12248.2 3051.98   1
   1   6   4 1713.87 1251.75   1
  -1   6  -4 1052.61 876.670   1
  -1   6  -4 4310.24 1476.24   1
  -1  -6  -4 3306.72 1231.04   1
   4   3   8 46770.7 4152.48   1
  -4  -3  -8 58707.9 5424.10   1
  -4  -3  -8 58735.9 3612.41   1
  -4   3  -8 67368.2 7975.10   1
   7  -5  -6 65789.7 3461.22   1
  -7   5   6 46254.1 5377.82   1
   7   5  -6 66283.6 3998.13   1
  11   2   0 4941.77 920.320   1
  11  -2   0 6154.60 1140.68   1
  11   2   0 6533.10 1633.98   1
  11  -2   0 5071.64 1125.89   1
 -11   2   0 1637.76 887.820   1
 -11   2   0 4016.77 2173.19   1
  -3   0 -10 774.820 856.760   1
  -3   0 -10 -669.88 821.470   1
  12   1  -2 4328.14 1911.45   1
  12  -1  -2 901.750 635.260   1
  12  -1  -2 -498.97 820.180   1
  12   1  -2 1514.72 767.580   1
  -7   5  -1 2102.41 1819.12   1
   7  -5   1 662.070 460.400   1
  -7   5  -1 -1235.2 833.300   1
   7   5   1 -300.77 852.610   1
  -7  -5  -1 -1243.0 491.760   1
   4   6  -4 1895.42 1317.62   1
   4  -6  -4 10779.7 1831.79   1
   4   6  -4 7892.69 1685.12   1
  -4   6   4 5947.36 1616.92   1
  -2   2 -10 25547.8 2674.75   1
  -2   2 -10 25661.6 4075.93   1
  -2  -2 -10 26134.4 3946.12   1
  -2  -2 -10 27017.9 3290.50   1
   2   2  10 18558.1 3242.92   1
   6   5  -7 -966.54 1078.73   1
  -6   5   7 1322.01 773.510   1
   6  -5  -7 -831.06 817.810   1
   6   1 -12 5265.59 1624.90   1
  -6   1  12 9276.66 1907.35   1
   6  -1 -12 12329.9 2384.68   1
   6  -1 -12 6411.94 2409.42   1
   6   1 -12 10110.0 2147.70   1
  -6  -4  -5 74662.0 5242.01   1
   6   4   5 91944.1 5829.70   1
   6  -4   5 92359.6 4731.88   1
   6   4   5 95028.7 6458.22   1
  -6  -4  -5 71724.7 4387.31   1
   2   0 -12 25640.3 3558.50   1
  -2   0  12 26800.2 2374.41   1
   2   0 -12 29487.4 2013.72   1
   8  -5  -3 7885.88 1814.08   1
  -8   5   3 6563.53 1845.70   1
   8   5  -3 2801.20 1304.91   1
  -5  -4  -6 3624.14 995.920   1
   5  -4   6 2503.79 1099.14   1
   5   4   6 2729.14 1474.91   1
  -5   4  -6 6292.92 2708.11   1
  -5   4  -6 3242.93 1320.77   1
  -5  -4  -6 4598.39 1222.13   1
   5   4   6 -476.70 2059.05   1
   5  -4   6 944.050 384.430   1
 -11   3   3 7436.38 2257.32   1
  11  -3  -3 5626.91 1513.63   1
  11  -3  -3 7254.41 1708.59   1
  11   3  -3 7090.74 1616.90   1
  11   3  -3 7461.28 1910.10   1
 -10   1  -3 4955.41 1792.63   1
  10  -1   3 6449.97 1806.32   1
  10  -1   3 6888.37 1734.58   1
  10   1   3 4546.51 1231.90   1
 -10  -1  -3 7962.06 1948.27   1
  11  -1  -9 86878.9 6177.14   1
  11   1  -9 81030.3 5571.67   1
  11   1  -9 84879.5 6341.53   1
 -11  -1   9 59020.3 4203.57   1
 -11   1   9 89599.8 6414.75   1
  11   1  -9 90404.0 6545.16   1
  11  -3  -5 24337.1 1912.37   1
  11  -3  -5 17439.6 8745.78   1
 -11   3   5 22330.4 2791.78   1
  11   3  -5 21567.0 2638.43   1
  11   3  -5 22729.5 1896.93   1
  11   2  -8 2313.80 970.230   1
  11  -2  -8 2470.98 1199.15   1
  11  -2  -8 12.6000 1285.73   1
  11   2  -8 -3392.2 1669.39   1
 -11   2   8 2423.26 1338.80   1
  11   2  -8 1543.59 760.650   1
   5   5   4 26586.8 3531.28   1
   5  -5   4 22195.0 3131.32   1
  -5  -5  -4 24633.3 1882.72   1
   5  -5   4 13761.8 4125.42   1
  -5   5  -4 23699.8 2418.11   1
   5   5   4 19436.8 4031.47   1
  -5  -5  -4 16708.5 8546.40   1
  -5   5  -4 21516.7 3734.29   1
   5  -6  -2 6328.32 1564.63   1
   5   6  -2 -993.34 2063.53   1
   5   6  -2 2441.95 1292.58   1
  -5   6   2 9556.03 2535.96   1
   4   5   5 -885.25 1027.84   1
  -4   5  -5 1021.51 1352.95   1
  -4  -5  -5 1157.74 718.830   1
   4  -5   5 395.530 400.870   1
  -4  -5  -5 -390.68 455.270   1
  -4   5  -5 624.700 895.140   1
   4   5   5 4211.68 3038.48   1
  -8   5   2 4535.49 1282.43   1
   8  -5  -2 3109.80 898.070   1
   8   5  -2 3163.68 1354.28   1
  -1   5  -7 8335.89 2545.49   1
   1  -5   7 92.6700 212.420   1
   1   5   7 178.190 1448.31   1
  -1  -5  -7 4943.16 1373.90   1
   1   5   7 1028.90 555.090   1
  -1  -5  -7 2017.27 899.000   1
   7   0 -12 56922.1 4667.69   1
   7   0 -12 41864.3 5852.91   1
  -7   0  12 47370.7 3356.59   1
  10  -3  -8 6171.56 1890.79   1
  10  -3  -8 18515.2 1702.03   1
  10   3  -8 16832.9 8467.20   1
   9  -4  -7 22646.7 1960.02   1
   9  -4  -7 12346.3 2926.69   1
  -9   4   7 19238.8 3022.32   1
   9   4  -7 15907.0 3628.34   1
  -7   0  -7 3254.09 1410.72   1
  -7   0  -7 2814.83 987.280   1
   7   0   7 2005.51 955.120   1
  -2   6   5 5013.33 1725.39   1
   2  -6  -5 3439.76 1074.62   1
   2   6  -5 2125.28 1095.94   1
   8  -5  -4 18946.9 1945.01   1
  -8   5   4 18858.7 3785.97   1
   8   5  -4 15178.4 3562.48   1
   5   6  -1 9550.68 2734.69   1
  -5   6   1 1980.99 837.640   1
   5  -6  -1 2223.52 827.310   1
   5   6  -1 -92.900 1000.22   1
   9  -1 -11 -28.300 1102.58   1
   9   1 -11 2242.31 1245.96   1
  -9  -1  11 -307.45 685.150   1
   9  -1 -11 720.040 966.100   1
   9   1 -11 837.380 822.670   1
  -9   1  11 730.660 759.530   1
   9   1 -11 -1326.2 1502.07   1
   9  -1 -11 -610.63 1167.37   1
   3   5  -8 87239.3 6698.80   1
  -3   5   8 63909.4 4537.83   1
   3  -5  -8 71646.9 5154.89   1
  12  -1  -7 -304.95 742.820   1
  12   1  -7 504.470 261.310   1
 -12   1   7 -3421.4 1314.27   1
 -12  -1   7 334.760 1490.23   1
  12  -1  -7 1438.51 1519.73   1
  12   1  -7 1679.33 1737.18   1
   8  -2 -11 134063. 9245.99   1
  -8   2  11 156361. 10678.4   1
   8   2 -11 168662. 83529.1   1
   8  -2 -11 136660. 9324.71   1
   8   2 -11 151639. 10615.6   1
   8   2 -11 137154. 9320.98   1
   7   4  -9 -1318.3 1219.62   1
   7   4  -9 -410.62 961.210   1
   7  -4  -9 -1866.6 870.610   1
  -7   4   9 2020.50 1019.74   1
   4   3 -11 1855.71 913.190   1
   4   3 -11 1188.86 772.720   1
  -4   3  11 1529.26 1154.54   1
   4  -3 -11 1811.38 1120.61   1
   4  -3 -11 1159.62 596.640   1
   8   3 -10 25048.4 6322.52   1
   8  -3 -10 21850.8 2306.87   1
   8   3 -10 16991.9 8632.96   1
   8   3 -10 22552.1 2561.19   1
  -8   3  10 20854.1 3889.25   1
   1  -6  -5 -118.76 601.490   1
   1   6  -5 297.810 1065.78   1
  -1   6   5 614.570 1101.73   1
  -8   0  -6 88946.4 6719.20   1
   8   0   6 72898.1 8819.48   1
  -8   0  -6 75707.1 8606.77   1
  12   0  -1 698.650 1387.37   1
  12   0  -1 1188.02 624.120   1
   7  -4   4 1588.50 812.280   1
  -7   4  -4 -3719.2 1319.30   1
   7   4   4 -334.43 648.590   1
   7  -4   4 2732.52 1531.80   1
  -7  -4  -4 280.640 798.520   1
  -7   4  -4 2674.83 1133.20   1
  -5   6   3 -785.13 971.730   1
   5  -6  -3 -42.920 428.370   1
   5   6  -3 2518.86 1308.23   1
   5   6  -3 1161.13 1577.53   1
  -1   1 -11 1026.43 991.590   1
   1   1  11 -1293.5 1285.59   1
  -1  -1 -11 2385.32 1000.12   1
  -1   1 -11 102.280 287.440   1
  -1  -1 -11 6837.28 2007.04   1
   2   5  -8 25562.5 4546.64   1
  -2   5   8 25800.9 2140.95   1
   2  -5  -8 30931.7 2496.32   1
   9  -2   4 985.000 475.030   1
  -9   2  -4 4088.65 1961.04   1
  -9  -2  -4 5510.11 1525.03   1
   9   2   4 2834.53 881.610   1
   9  -2   4 1948.27 1005.98   1
  -9  -2  -4 2635.64 1414.21   1
   4   5  -8 3279.63 1654.85   1
   4   5  -8 1850.90 826.610   1
  -4   5   8 8394.29 2060.61   1
   4  -5  -8 6699.33 1802.69   1
 -10   3  -1 3254.43 1503.44   1
  10  -3   1 5338.84 1307.22   1
  10   3   1 4349.96 1358.11   1
 -10   3  -1 2324.19 1731.78   1
  10  -3   1 8294.41 1878.69   1
   0   2 -11 39516.9 7205.02   1
   0   2  11 42779.2 3963.57   1
   0  -2 -11 48364.4 3725.54   1
   0   2 -11 45352.2 3582.17   1
   0  -2 -11 40865.7 5993.18   1
   3  -6  -5 4391.54 1283.29   1
   3   6  -5 1933.17 948.310   1
  -3   6   5 3180.11 1106.19   1
  -3   1 -10 31994.2 2405.27   1
  -3  -1 -10 33850.8 3030.30   1
  -3   1 -10 34943.1 4539.81   1
  -3  -1 -10 30556.0 4167.61   1
   6   0   8 66453.1 5843.19   1
  -6   0  -8 57852.3 7210.96   1
   5   3 -11 17620.0 2781.96   1
   5   3 -11 19423.7 3284.90   1
   5  -3 -11 13143.0 2979.94   1
   5  -3 -11 21450.2 3970.36   1
  -5   3  11 19227.4 1992.39   1
   6  -5   3 1775.54 717.600   1
  -6   5  -3 1713.34 1074.04   1
   6   5   3 2040.00 2220.94   1
  -6   5  -3 -1436.0 1320.55   1
   6   5   3 2642.75 1024.92   1
  -6  -5  -3 623.340 612.620   1
   6  -5   3 2005.24 763.120   1
  -4  -4  -7 31918.3 2617.02   1
   4   4   7 28698.3 4994.22   1
  -4  -4  -7 31245.3 3837.76   1
  -4   4  -7 35702.7 5151.25   1
   4   4   7 32159.4 3484.47   1
   3   3 -11 9613.27 2613.19   1
   3   3 -11 14696.7 3506.83   1
  -3   3  11 12791.9 3072.65   1
   3  -3 -11 13385.5 3047.87   1
   3  -3 -11 11848.7 2803.24   1
   2   1 -12 18698.3 5746.81   1
   2  -1 -12 20207.7 2394.99   1
  -2   1  12 15407.0 3658.93   1
   2   1 -12 20933.4 1917.74   1
   2  -1 -12 20334.8 3023.56   1
  11  -3  -2 42185.3 3402.34   1
  11  -3  -2 38943.7 3426.12   1
 -11   3   2 47433.2 5932.49   1
  11   3  -2 46531.2 3766.52   1
  11   3  -2 47342.7 3526.05   1
 -10   4   4 4384.00 1565.23   1
  10  -4  -4 3392.83 1099.86   1
  10  -4  -4 4069.47 1178.84   1
  10   4  -4 1089.30 1332.12   1
  10   4  -4 2417.19 860.310   1
 -10   4   3 57695.4 5999.66   1
  10  -4  -3 68050.8 4856.91   1
  10   4  -3 70209.4 4775.00   1
  10   4  -3 65866.3 5129.43   1
   8  -5  -1 1999.62 776.400   1
  -8   5   1 3208.05 1169.14   1
   8   5  -1 1406.56 640.010   1
  -3  -5  -6 45852.0 3650.13   1
  -3  -5  -6 43402.3 4573.88   1
   3  -5   6 57166.5 3909.40   1
   3   5   6 47270.7 4441.61   1
  -3   5  -6 47879.1 3917.49   1
   3   5   6 41299.1 3966.70   1
 -11   3   6 25529.3 3396.59   1
  11  -3  -6 19822.4 1911.46   1
  11  -3  -6 21692.7 2589.29   1
  11   3  -6 17607.2 2652.67   1
  11   3  -6 21550.3 1562.51   1
  12  -2  -4 10055.0 2265.56   1
  12   2  -4 14520.1 3565.24   1
 -12   2   4 13397.8 3193.03   1
  12  -2  -4 17894.0 2245.00   1
  12   2  -4 12365.3 3133.83   1
   3   6   3 1905.12 1703.62   1
  -3  -6  -3 5723.04 1248.66   1
   3  -6   3 5520.01 1506.81   1
  -3   6  -3 3691.81 1037.62   1
  -3   6  -3 8921.69 2194.91   1
   3   6   3 6496.41 1584.34   1
   5   6   0 2090.46 2029.27   1
   5   6   0 -990.61 936.800   1
   5  -6   0 2162.19 900.480   1
  -5   6   0 1806.71 961.160   1
  -7   1  12 13075.8 3018.50   1
  -7  -1  12 5242.44 1295.11   1
   7   1 -12 9708.40 2400.74   1
   7  -1 -12 9620.28 2455.79   1
   7   1 -12 17184.1 8645.87   1
   7  -1 -12 13691.5 3639.58   1
   4   2   9 7385.70 2144.36   1
  -4  -2  -9 4680.97 1735.81   1
  -4   2  -9 8585.80 2437.50   1
  -4  -2  -9 5820.75 1369.48   1
  -4   2  -9 4087.68 1100.40   1
  12   2  -5 661.410 1617.35   1
  12  -2  -5 -286.18 796.410   1
  12  -2  -5 1424.39 1477.31   1
 -12   2   5 486.970 796.930   1
  12   2  -5 1167.13 552.680   1
   9  -3   3 2185.65 1218.14   1
   9   3   3 -123.71 1210.90   1
  -9   3  -3 1158.81 1140.09   1
  -9  -3  -3 1016.27 1069.06   1
  -9   3  -3 4863.08 1689.79   1
   9  -3   3 2456.85 1159.27   1
  -7  -1  -7 2143.79 1312.95   1
  -7   1  -7 9059.93 2381.84   1
   7  -1   7 2006.25 870.750   1
  -7   1  -7 4355.88 1286.12   1
   7   1   7 4425.38 1197.42   1
  -7  -1  -7 5746.55 1803.80   1
   0   6   5 11617.0 3162.60   1
   0   6  -5 6700.33 2102.62   1
   0  -6  -5 15355.5 3781.06   1
   8  -5  -5 2492.10 1147.14   1
  -8   5   5 -1073.2 1434.58   1
   8   5  -5 2311.51 1904.85   1
  -9   4  -1 2995.86 999.650   1
   9  -4   1 1718.38 663.490   1
   9  -4   1 -732.17 530.610   1
  -9   4  -1 -61.470 1020.96   1
   9   4   1 606.630 620.390   1
   4   6   2 -2.8800 731.900   1
   4   6   2 3648.96 1855.19   1
   4  -6   2 484.200 356.120   1
  -4  -6  -2 284.520 419.300   1
  -4   6  -2 -32.560 858.310   1
  -4   6  -2 2024.33 1295.98   1
 -12   0   8 15497.5 4371.03   1
  12   0  -8 10825.9 2676.87   1
  12   0  -8 28326.0 2721.69   1
  10  -4  -5 6660.11 1662.06   1
  10  -4  -5 3950.58 1298.83   1
 -10   4   5 4611.80 1633.62   1
  10   4  -5 -62.180 1413.06   1
  -1  -3 -10 14562.5 3089.67   1
  -1   3 -10 9201.61 2256.44   1
  -1  -3 -10 13962.6 3443.08   1
  -1   3 -10 9239.68 3000.90   1
   1   3  10 15044.8 4269.76   1
   1   5  -8 11664.6 3087.21   1
   1  -5  -8 15172.0 3301.54   1
   1  -5  -8 13855.4 3030.13   1
  -1   5   8 10146.5 2590.93   1
 -12   2   3 5623.99 1830.62   1
  12  -2  -3 -583.92 1341.93   1
  12   2  -3 -231.02 1523.79   1
  12  -2  -3 -1012.4 750.490   1
  12   2  -3 1450.50 742.100   1
   2   6   4 5183.52 1779.38   1
  -2   6  -4 349.460 269.540   1
  -2   6  -4 2850.55 1120.75   1
   2   6   4 1154.30 606.260   1
  -2  -6  -4 1000.78 462.330   1
  -8  -1  -6 5027.50 1470.53   1
   8  -1   6 2903.51 928.970   1
   8   1   6 3525.80 1791.32   1
  -8  -1  -6 6727.09 2064.00   1
  -8   1  -6 4542.01 1311.15   1
  -8   1  -6 4189.35 1431.03   1
  12   1  -1 52253.3 4154.05   1
  12  -1  -1 49081.0 4002.19   1
  12  -1  -1 43748.6 3749.75   1
   4   4 -10 7403.04 2326.83   1
   4  -4 -10 1947.42 1271.44   1
   4  -4 -10 3414.42 1724.90   1
  -4   4  10 2746.29 1810.92   1
  10  -4  -2 41728.1 3114.81   1
  10  -4  -2 38505.4 3002.00   1
 -10   4   2 34028.7 5155.70   1
  10   4  -2 33209.3 3192.87   1
  10   4  -2 39314.4 2902.27   1
   9   0   5 1847.87 1638.57   1
  -9   0  -5 -1146.4 1211.51   1
  -9   0  -5 -312.95 1470.51   1
   5   5  -8 1279.83 688.540   1
   5   5  -8 2986.32 1345.95   1
  -5   5   8 8875.32 2136.47   1
   5  -5  -8 7074.12 1807.92   1
   3   4 -10 1492.79 1773.04   1
  -3   4  10 761.290 1123.78   1
   3  -4 -10 1719.66 1484.13   1
   3  -4 -10 4166.48 1413.64   1
   5   6  -4 2230.51 1207.36   1
   5   6  -4 2228.53 1334.71   1
  -5   6   4 2240.33 1283.77   1
   5  -6  -4 1987.85 880.580   1
   6   3 -11 26330.8 8254.50   1
   6  -3 -11 31841.9 4283.18   1
   6  -3 -11 35055.3 2871.06   1
   6   3 -11 32638.1 2851.52   1
  -6   3  11 39602.1 3102.94   1
   1   0 -12 167883. 83172.8   1
   1   0 -12 144492. 9783.55   1
  -1   0  12 158753. 78634.1   1
  -4   6   5 10938.6 2879.97   1
   4   6  -5 4480.89 1233.34   1
   4   6  -5 6928.18 1895.90   1
   4  -6  -5 8656.84 1960.62   1
   6  -1   8 4427.75 1281.36   1
   6   1   8 1564.83 972.780   1
  -6  -1  -8 4259.96 1279.63   1
  -6   1  -8 4555.62 1537.96   1
  -6  -1  -8 1913.81 1149.55   1
  -6   1  -8 5775.43 1575.47   1
   3   3   9 -1271.8 1976.63   1
  -3   3  -9 -741.70 1966.32   1
  -3  -3  -9 1827.60 726.290   1
   3   3   9 1149.99 1405.58   1
  -3  -3  -9 -1742.3 705.210   1
  -3   3  -9 1410.58 920.410   1
   2   3 -11 40714.0 7333.93   1
   2   3 -11 44296.3 3395.20   1
  -2   3  11 49163.3 4003.01   1
   2  -3 -11 50586.8 7162.20   1
   2  -3 -11 44579.1 3377.57   1
  12   2  -6 115.080 1735.86   1
  12   2  -6 154.960 661.490   1
  12  -2  -6 627.000 810.840   1
  12  -2  -6 1599.80 1470.20   1
 -12   2   6 2900.44 1047.33   1
  -1   4  -9 983.360 679.010   1
  -1   4  -9 -769.16 1802.62   1
  -1  -4  -9 2159.41 1018.00   1
  -1  -4  -9 1823.36 1001.56   1
   1   4   9 -154.68 1668.32   1
   4  -2 -12 27620.4 2927.46   1
   4   2 -12 26426.7 2142.06   1
   4  -2 -12 18892.0 5497.34   1
   4   2 -12 20122.5 3813.30   1
  -4   2  12 31096.9 2557.03   1
   5   4 -10 3268.05 1144.02   1
   5  -4 -10 -2099.3 1091.46   1
  -5   4  10 908.370 1002.82   1
   8   0 -12 33161.9 4914.35   1
   8   0 -12 38488.7 4122.10   1
   8  -4   3 60812.0 4255.96   1
   8   4   3 54774.2 7066.16   1
  -8   4  -3 72297.3 5601.63   1
  -8   4  -3 65455.3 4875.47   1
  -8  -4  -3 74805.7 5421.31   1
   8  -4   3 49180.0 3434.11   1
  -5   2  12 75949.8 5376.60   1
   5  -2 -12 79938.8 5844.99   1
   5   2 -12 70872.5 5007.39   1
   5  -2 -12 73404.5 5371.76   1
   5   2 -12 78584.7 5670.34   1
  -5   0  -9 -1348.2 1388.93   1
  -5   0  -9 3204.71 1694.71   1
 -11   0  -2 31730.8 2596.38   1
  11   0   2 29518.1 3568.40   1
  11   0   2 35619.0 5179.08   1
  10  -2 -10 49868.6 4757.99   1
  10   2 -10 50731.1 4139.88   1
 -10  -2  10 36370.3 6704.48   1
 -10   2  10 46604.3 5267.67   1
  10   2 -10 44826.9 4078.53   1
  10  -2 -10 50623.1 4710.17   1
  10   2 -10 47557.7 4013.26   1
   7   5  -7 1577.43 1272.06   1
   7  -5  -7 1103.02 856.940   1
  -7   5   7 1470.25 922.300   1
   7  -5   2 33522.1 2764.62   1
  -7   5  -2 31223.5 2912.65   1
  -7   5  -2 25507.1 2411.37   1
   7   5   2 32645.4 5121.43   1
  -7  -5  -2 41760.6 3209.87   1
   2   4 -10 2414.04 1131.51   1
   2  -4 -10 -735.31 925.190   1
   2  -4 -10 158.110 844.060   1
  -2   4  10 2528.41 1733.82   1
 -11   3   1 2662.73 1462.79   1
  11  -3  -1 1466.58 1075.00   1
  11  -3  -1 1531.63 670.290   1
  11   3  -1 2007.25 1679.69   1
  11   3  -1 -406.44 855.890   1
  12   1  -8 1436.93 686.480   1
  12  -1  -8 1744.28 1052.28   1
  12   1  -8 2120.40 1868.84   1
  12  -1  -8 3401.49 2011.98   1
 -12  -1   8 1516.08 868.050   1
 -12   1   8 3989.17 1502.82   1
  -8   5   0 4289.93 1365.62   1
   8  -5   0 4809.86 1114.94   1
   8   5   0 5378.30 1559.33   1
  -3   4  -8 1794.95 1092.04   1
  -3   4  -8 -3917.6 2038.10   1
  -3  -4  -8 2921.65 952.010   1
   3   4   8 726.210 508.650   1
   3   4   8 -473.55 1932.19   1
  -3  -4  -8 3561.05 1122.32   1
  11  -2   1 1889.98 1199.73   1
  11  -2   1 2393.89 1051.67   1
  11   2   1 2144.86 1037.44   1
 -11   2  -1 3112.22 1653.74   1
  11   2   1 904.740 806.410   1
 -11   0  10 14488.1 3958.42   1
  11   0 -10 15493.0 3927.41   1
  11   0 -10 21502.9 1792.68   1
  11   0 -10 15588.0 3383.61   1
   5   6   1 20258.2 3547.01   1
   5  -6   1 22250.8 1633.17   1
  -5  -6  -1 22370.4 1789.64   1
   5   6   1 20065.0 1796.23   1
  -5   6  -1 19452.8 3126.44   1
  -5   6  -1 17489.4 8930.58   1
   3  -2 -12 7293.22 2032.07   1
   3  -2 -12 5583.96 1881.05   1
   3   2 -12 4080.03 1652.65   1
  -3   2  12 7521.92 1952.53   1
  -9   1  -5 3584.54 1657.58   1
   9   1   5 -573.68 1359.84   1
  -9  -1  -5 -763.81 1150.95   1
  -9  -1  -5 641.670 1147.52   1
   9  -1   5 -821.63 1124.83   1
  11  -3  -7 634.990 828.040   1
 -11   3   7 2898.24 1072.15   1
  11  -3  -7 -237.67 885.330   1
  11   3  -7 -372.03 427.140   1
  11   3  -7 3585.34 1719.90   1
  -1   1  12 -830.26 1477.00   1
   1  -1 -12 -647.69 1429.66   1
   1   1 -12 -765.74 742.650   1
   1   1 -12 3247.86 1561.16   1
   1  -1 -12 984.540 988.100   1
  12   2  -2 44756.5 3185.90   1
  12  -2  -2 44296.3 3472.16   1
  12  -2  -2 33725.9 8227.16   1
  12   2  -2 36741.5 7615.86   1
 -12   2   2 49971.7 7375.03   1
  -2   5  -7 1195.16 1565.71   1
   2  -5   7 1311.60 522.610   1
  -2  -5  -7 -134.23 776.490   1
   2   5   7 1463.92 1780.39   1
   2   5   7 823.390 666.790   1
  -2  -5  -7 498.660 618.950   1
  10  -4  -6 4638.56 1246.35   1
 -10   4   6 5704.19 2011.02   1
  10  -4  -6 8911.80 2145.83   1
  10   4  -6 999.520 1448.68   1
  10   0 -11 -4.8200 1032.83   1
 -10   0  11 310.360 496.320   1
  10   0 -11 -887.16 761.940   1
  10   0 -11 2014.96 1526.52   1
   6  -2 -12 32330.1 3154.03   1
   6   2 -12 31688.5 2563.43   1
   6   2 -12 31497.1 6131.32   1
   6  -2 -12 32511.7 6193.92   1
  -6   2  12 40020.6 3095.53   1
  -1   6  -5 2849.99 1246.92   1
  -1  -6  -5 6887.61 1572.48   1
   1   6   5 6193.00 2303.43   1
  10  -2   3 12217.4 3039.73   1
 -10  -2  -3 8127.06 1919.16   1
 -10   2  -3 11714.5 2932.63   1
 -10  -2  -3 11093.3 2469.31   1
  10   2   3 13309.2 3322.77   1
  10  -2   3 15022.2 3527.83   1
  11  -2  -9 -271.41 897.660   1
 -11   2   9 2354.66 1073.94   1
 -11  -2   9 1284.99 1002.58   1
  11   2  -9 1388.05 798.950   1
  11   2  -9 745.060 1560.88   1
  11  -2  -9 977.700 1417.94   1
  11   2  -9 -513.72 948.240   1
 -10   4   1 7836.22 2084.04   1
  10  -4  -1 9745.12 2317.78   1
  10  -4  -1 9209.47 2160.72   1
  10   4  -1 8545.00 2432.27   1
  10   4  -1 6773.39 2002.94   1
   9  -4  -8 19291.7 1816.85   1
  -9   4   8 18059.8 3023.80   1
   9   4  -8 19072.4 2563.89   1
  12   0   0 80648.8 6599.40   1
  12   0   0 101059. 7726.94   1
   0   5  -8 13403.9 3671.45   1
   0   5   8 19684.5 1600.63   1
   0   5   8 13082.5 3315.89   1
   0  -5  -8 13074.4 4354.53   1
   0  -5  -8 20726.7 2218.62   1
   8  -5  -6 3184.25 1279.35   1
  -8   5   6 1225.01 763.650   1
   8   5  -6 4469.65 1471.99   1
   8   1 -12 4138.18 1008.09   1
   8  -1 -12 3361.97 1171.95   1
   8   1 -12 6392.15 1812.34   1
   8  -1 -12 1928.83 1482.00   1
  -8   1  12 4640.80 1360.80   1
  -8  -1  12 2216.50 920.090   1
   8   1 -12 2545.94 1494.65   1
  -2   0 -11 -764.17 864.130   1
  -2   0 -11 1609.06 1187.87   1
  -5   1  -9 18611.4 3210.37   1
  -5  -1  -9 17301.3 8851.71   1
   5   1   9 19355.9 1912.04   1
  -5   1  -9 21841.0 1994.27   1
  -5  -1  -9 23289.2 2427.52   1
  -6   6   2 613.760 671.500   1
   6  -6  -2 -145.70 526.910   1
   6   6  -2 6190.26 3345.46   1
   6   6  -2 2478.76 1407.28   1
   8   4  -9 9684.42 2683.24   1
  -8   4   9 10419.1 3025.39   1
   8  -4  -9 10757.6 2494.16   1
   8   4  -9 10612.0 2634.82   1
  11   1   2 24376.8 2316.64   1
  11   1   2 23112.3 2518.45   1
  11  -1   2 26804.3 4305.47   1
 -11  -1  -2 25591.8 2280.73   1
 -11   1  -2 24249.7 2403.09   1
  11  -1   2 29021.7 3613.58   1
   6  -4 -10 21332.7 2718.80   1
  -6   4  10 20234.3 2041.06   1
   6   4 -10 16132.2 8518.44   1
   6   4 -10 18861.8 3007.40   1
  -7   3  11 22945.6 3695.88   1
   7   3 -11 21296.0 5405.92   1
   7  -3 -11 26658.2 2756.70   1
   7   3 -11 22536.9 2360.12   1
   7   3 -11 21658.0 2274.51   1
   7  -3 -11 20572.8 1931.75   1
   6   5  -8 51928.3 4096.18   1
   6   5  -8 52407.9 3958.47   1
   6  -5  -8 54504.7 4277.46   1
  -6   5   8 42940.4 6385.62   1
  -9   2  11 4792.68 1419.20   1
   9  -2 -11 2926.12 1119.24   1
   9   2 -11 5454.24 2239.56   1
   9   2 -11 3331.77 1346.46   1
   9   2 -11 5049.69 2272.86   1
   6  -6  -3 5606.57 1368.61   1
  -6   6   3 6070.81 1653.18   1
   6   6  -3 3995.38 1654.55   1
   6   6  -3 424.670 1233.34   1
  -7   3  -6 26922.7 3155.10   1
  -7  -3  -6 16955.5 8912.37   1
  -7  -3  -6 25181.3 2134.44   1
   7  -3   6 20856.1 4156.64   1
   7   3   6 29423.0 3837.22   1
  12  -2  -7 4371.06 1220.93   1
  12  -2  -7 1063.79 1451.62   1
  12   2  -7 1948.53 1805.71   1
  12   2  -7 1854.24 737.340   1
 -12   2   7 10408.0 5470.25   1
   2   6  -6 2636.85 1400.15   1
  -2   6   6 471.760 1100.73   1
   2  -6  -6 1139.63 603.140   1
  10   3  -9 621.880 1552.91   1
  10   3  -9 350.510 634.310   1
  10  -3  -9 1240.56 643.140   1
  10  -3  -9 28.4700 923.700   1
 -10   3   9 -1011.4 1158.19   1
   1   3 -11 4190.80 1712.26   1
   1   3 -11 2812.16 957.470   1
   1  -3 -11 5054.26 1228.19   1
   1  -3 -11 4740.63 1379.54   1
  -1   3  11 14209.3 3603.75   1
   5   6  -5 6944.94 1875.40   1
   5  -6  -5 4466.90 1309.23   1
  -5   6   5 3323.75 1586.60   1
  -6   3  -7 -2028.5 833.790   1
  -6  -3  -7 -672.48 753.070   1
   6  -3   7 2465.55 1089.84   1
   6   3   7 2629.20 1193.86   1
  -6  -3  -7 1323.69 883.800   1
  -6   3  -7 -189.24 1871.68   1
   9   3 -10 58737.4 4828.32   1
   9   3 -10 48355.0 6617.26   1
   9  -3 -10 59791.2 4533.71   1
  -9   3  10 53459.5 4745.51   1
   9   3 -10 51763.3 3931.46   1
  -6   6   1 3267.14 1325.92   1
   6  -6  -1 2855.20 865.660   1
   6   6  -1 1953.62 1988.01   1
   6   6  -1 3939.84 1646.06   1
  -1  -2 -11 8335.39 2072.90   1
  -1   2 -11 9597.97 2245.25   1
  -1  -2 -11 8005.46 2152.64   1
  -1   2 -11 6198.54 2074.48   1
   1   2  11 1733.36 1803.17   1
   3   6  -6 58209.6 4266.09   1
  -3   6   6 50099.5 3789.39   1
   3  -6  -6 68113.2 4794.32   1
 -10   0  -4 28415.5 2452.82   1
  10   0   4 24445.3 3010.10   1
  11   1 -10 11112.1 3097.28   1
  11  -1 -10 12488.1 3253.18   1
  11   1 -10 15727.3 4554.28   1
 -11  -1  10 15943.4 4213.66   1
 -11   1  10 4017.65 1793.23   1
  11  -1 -10 12838.9 2835.99   1
  11   1 -10 16060.4 8026.49   1
  -3   2 -10 48655.9 7691.64   1
  -3  -2 -10 51875.6 7886.93   1
   3   2  10 57910.3 5215.22   1
  10   1 -11 5259.24 1680.93   1
  10  -1 -11 3186.02 1245.05   1
  10  -1 -11 5532.53 2051.94   1
  10   1 -11 3422.12 1667.32   1
  10   1 -11 5496.44 1389.92   1
  10  -1 -11 6897.71 1786.73   1
 -10  -1  11 3974.23 1351.86   1
 -10   1  11 5137.13 1728.58   1
   1   4 -10 12639.4 3035.33   1
  -1   4  10 14645.6 3303.57   1
   1  -4 -10 9682.72 2550.34   1
   1  -4 -10 16712.6 8686.63   1
   1   6  -6 -482.11 1263.78   1
   1  -6  -6 -353.77 570.840   1
  -1   6   6 3177.78 1276.58   1
   2  -2 -12 11113.0 3007.24   1
   2   2 -12 8117.97 1924.90   1
   2  -2 -12 8007.52 2232.96   1
   2   2 -12 7474.60 2462.25   1
  -2   2  12 6895.01 2005.47   1
  13   0  -5 886.120 781.100   1
  13   0  -5 2986.66 1858.76   1
  10  -3   2 56984.5 6948.81   1
 -10   3  -2 67213.8 8056.19   1
  10   3   2 55857.5 7738.60   1
 -10   3  -2 68812.5 5302.89   1
   4   6   3 2053.78 931.320   1
  -4   6  -3 -2568.6 1017.46   1
   4   6   3 1799.22 2133.18   1
  -4   6  -3 712.700 295.730   1
  -4  -6  -3 219.150 393.330   1
   4  -6   3 1884.74 739.250   1
  12  -1   0 1821.08 751.810   1
  12   1   0 2427.36 1011.90   1
  12   1   0 3916.14 1141.23   1
  12  -1   0 2984.50 853.150   1
  13   0  -4 19987.0 2422.59   1
  13   0  -4 19419.2 3596.42   1
   3   6   4 1560.01 1866.71   1
  -3   6  -4 1389.63 582.280   1
  -3   6  -4 1806.20 1490.56   1
  -3  -6  -4 2080.04 1040.76   1
   3   6   4 2801.51 907.340   1
   3  -6   4 2019.24 734.750   1
  -3  -6  -4 2836.99 744.140   1
  -8   3  -5 -1208.8 1875.49   1
  -8  -3  -5 852.430 1010.07   1
   8   3   5 -328.60 851.840   1
   8  -3   5 1205.22 595.390   1
  -8  -3  -5 1579.92 1051.69   1
   8  -3   5 891.960 499.270   1
  -8   3  -5 -1350.9 1321.41   1
  -2  -1 -11 10740.9 2688.14   1
  -2   1 -11 10240.4 2309.27   1
  -2   1 -11 4726.80 1767.14   1
  -2  -1 -11 3587.75 1235.84   1
   7  -2 -12 7033.31 2063.96   1
   7  -2 -12 9190.08 2523.66   1
   7   2 -12 4644.49 1751.76   1
  -7   2  12 3239.71 1311.67   1
   7   2 -12 5753.73 1750.86   1
   5  -5   5 98.1700 329.570   1
  -5  -5  -5 1759.78 999.090   1
   5   5   5 1381.13 1021.77   1
   5   5   5 1403.73 2325.39   1
  -5   5  -5 2574.14 1048.16   1
   5  -5   5 404.300 260.140   1
  -5   5  -5 3636.40 1651.37   1
   0   0 -12 4703.34 1350.57   1
   0   0 -12 9173.88 2813.58   1
 -12   0   9 1345.33 826.540   1
  12   0  -9 422.610 448.880   1
  12   0  -9 2634.58 1687.51   1
   6  -6  -4 8595.16 2670.34   1
  -6   6   4 961.930 996.960   1
   6   6  -4 3283.75 1353.10   1
   7  -2   7 47493.6 5109.20   1
  -7   2  -7 51082.9 4042.05   1
  -7  -2  -7 53685.5 4301.55   1
  -7   2  -7 48814.3 6399.27   1
  -7  -2  -7 41588.9 4708.50   1
   7   2   7 43268.1 6169.02   1
  -4   0 -10 4743.06 1674.43   1
  -4   0 -10 4824.68 1682.65   1
  -5   3  -8 14213.8 2225.59   1
  -5  -3  -8 10146.2 1657.37   1
   5   3   8 15775.3 1887.73   1
  -5   3  -8 11915.8 1421.07   1
  -5  -3  -8 10537.2 1392.09   1
   4   6  -6 31349.7 2444.19   1
  -4   6   6 30474.1 2619.49   1
   4  -6  -6 32135.8 2766.39   1
   6   5   4 15434.5 3053.00   1
  -6   5  -4 11841.5 2535.28   1
   6   5   4 12401.2 2648.39   1
   6  -5   4 12268.8 1467.11   1
  -6  -5  -4 13795.9 1485.29   1
   6  -5   4 13715.9 2055.98   1
  -6   5  -4 11901.4 1474.69   1
   9  -4   2 2637.28 839.620   1
  -9   4  -2 2059.29 1085.51   1
  -9   4  -2 -2025.8 1148.32   1
   9  -4   2 3145.28 964.840   1
   9   4   2 3246.17 1097.25   1
  -9  -4  -2 3958.13 1606.38   1
  13   0  -6 18544.8 2845.04   1
  13   0  -6 19625.3 3062.26   1
 -13   0   6 14906.9 2032.38   1
   8   2   6 13683.5 1942.45   1
   8  -2   6 5324.68 1720.85   1
  -8  -2  -6 6334.89 2318.54   1
  -8  -2  -6 7672.54 2500.94   1
  -8   2  -6 9506.03 4805.13   1
  12  -2  -1 3092.62 1539.99   1
 -12   2   1 7100.70 3004.79   1
  12   2  -1 657.230 1340.15   1
  12  -2  -1 648.630 519.090   1
  12   2  -1 1244.78 741.570   1
   9  -5  -3 15011.6 2147.19   1
  -9   5   3 7946.02 2872.02   1
   9   5  -3 8424.60 2704.86   1
 -10   1  -4 176.330 1470.63   1
  10   1   4 6832.81 2195.09   1
  10  -1   4 3793.32 1438.75   1
 -10  -1  -4 4731.08 2082.03   1
  10  -1   4 4100.71 1607.42   1
 -10  -1  -4 4924.40 1649.68   1
  10  -4  -7 29578.7 2345.79   1
  10  -4  -7 22111.6 2060.13   1
 -10   4   7 24246.1 3467.61   1
  10   4  -7 28605.8 2891.55   1
   6  -6   0 30188.9 2428.25   1
  -6   6   0 26837.4 5051.87   1
   6   6   0 29882.5 2668.25   1
   6   6   0 20932.7 3865.52   1
  -4  -5  -6 11432.2 2085.32   1
   4   5   6 11888.1 1870.96   1
  -4  -5  -6 9051.55 4443.07   1
   4   5   6 18855.7 3132.42   1
   4  -5   6 9246.97 4859.76   1
  -4   5  -6 8930.66 4536.15   1
  11  -3   0 27581.4 3360.71   1
  11  -3   0 28422.2 2449.96   1
 -11   3   0 17377.6 1813.97   1
 -11   3   0 19589.9 3925.68   1
  11   3   0 16163.6 2118.98   1
  11   3   0 21616.8 2527.95   1
  -9   0  12 -577.07 660.900   1
   9   0 -12 -270.48 896.850   1
   9   0 -12 2935.68 1910.79   1
   9   0 -12 2908.70 1395.07   1
  -8   5  -1 5971.77 2480.57   1
  -8   5  -1 6108.22 2290.41   1
   8  -5   1 9719.82 4699.36   1
   8   5   1 5392.15 1942.43   1
  -8  -5  -1 8837.49 2670.87   1
  -9   5   4 55423.0 5254.55   1
   9   5  -4 63963.7 5038.29   1
  -6  -2  -8 9719.24 4977.79   1
  -6   2  -8 7391.13 2708.53   1
  -6  -2  -8 13820.8 2146.30   1
  -6   2  -8 9880.23 4873.33   1
   6  -2   8 12954.3 2747.83   1
   6   2   8 17954.3 2640.66   1
   5  -6   2 3359.64 1070.64   1
  -5  -6  -2 2425.73 1375.91   1
   5   6   2 -211.59 766.590   1
  -5   6  -2 3738.67 1493.44   1
  -5   6  -2 4171.10 1666.59   1
   5   6   2 -1289.5 1987.48   1
  -2  -3 -10 1537.40 1035.25   1
   2   3  10 980.410 2054.63   1
  -2   3 -10 -533.90 1696.21   1
  -2  -3 -10 1352.66 899.040   1
  -2   3 -10 561.800 751.910   1
  13   0  -3 -1077.9 822.360   1
  13   0  -3 -3455.1 1577.60   1
   6   4   6 4712.89 2143.66   1
  -6   4  -6 295.220 950.340   1
  -6   4  -6 4945.83 2001.72   1
  -6  -4  -6 5533.61 1829.25   1
   6   4   6 5543.58 1900.35   1
   6  -4   6 5855.49 2187.70   1
  -6  -4  -6 9703.97 4706.78   1
   6  -4   6 5523.01 1810.92   1
   0   6  -6 3892.32 2122.75   1
   0  -6  -6 954.330 691.680   1
   0   6   6 3634.39 1572.91   1
  13  -1  -5 1456.17 1609.16   1
  13   1  -5 1670.08 943.030   1
  13   1  -5 -132.37 1560.53   1
  13  -1  -5 2620.92 1078.53   1
 -13   1   5 1128.53 1757.07   1
  -2  -6  -5 11840.6 2281.17   1
   2   6   5 13429.1 3050.89   1
   2   6   5 11824.9 1670.76   1
  -2  -6  -5 3514.86 1345.52   1
  -2   6  -5 10593.6 1841.80   1
  11  -3  -8 -132.74 900.370   1
 -11   3   8 801.270 766.790   1
  11  -3  -8 5736.47 2049.13   1
  11   3  -8 1647.65 1815.30   1
  10  -4   0 3731.31 1460.98   1
  10  -4   0 5397.29 1721.44   1
 -10   4   0 4357.67 1657.28   1
  10   4   0 3291.66 1058.19   1
  10   4   0 1542.05 1374.50   1
  13   1  -4 2158.30 720.050   1
  13  -1  -4 1907.58 1046.78   1
  13   1  -4 5260.13 1973.83   1
  13  -1  -4 6805.69 2429.96   1
 -13   1   4 7495.94 3352.52   1
   7   4 -10 1002.91 985.160   1
   7   4 -10 8033.80 2856.55   1
   7  -4 -10 5764.76 2013.68   1
  -7   4  10 5633.79 2086.69   1
   9  -5  -2 8063.57 2582.23   1
  -9   5   2 8225.41 3024.05   1
   9   5  -2 4571.67 1869.98   1
   5   0 -13 850.400 986.830   1
  -5   0  13 142.320 651.830   1
   5   0 -13 1.37000 987.410   1
  -2   4  -9 2585.03 1666.89   1
  -2   4  -9 1851.89 1176.35   1
   2   4   9 1907.55 2216.66   1
  -2  -4  -9 1102.37 634.480   1
  -2  -4  -9 1975.46 823.790   1
   2   4   9 1101.54 973.780   1
   7  -4   5 -380.03 674.310   1
  -7  -4  -5 838.420 957.680   1
   7  -4   5 -2135.9 969.190   1
   7   4   5 4878.44 1821.76   1
  -7   4  -5 5320.65 1976.85   1
  -7   4  -5 1995.87 1139.68   1
   3   5  -9 20455.1 4025.10   1
  -3   5   9 23661.2 2426.33   1
   3  -5  -9 19569.6 2067.80   1
   0   1 -12 45798.6 3560.96   1
   0  -1 -12 41103.7 5193.51   1
   0  -1 -12 42119.3 3576.58   1
   0   1  12 53852.0 5202.55   1
   0   1 -12 29672.5 6419.98   1
  12  -1  -9 30993.8 2595.66   1
  12   1  -9 27463.5 3880.47   1
 -12   1   9 28928.9 4395.11   1
  12   1  -9 28975.9 2387.81   1
  12   1  -9 32826.9 3233.46   1
 -12  -1   9 23785.6 3956.45   1
  12  -1  -9 31253.8 3059.82   1
  -1   5  -8 6999.62 2626.15   1
  -1  -5  -8 4581.05 1489.96   1
  -1  -5  -8 3906.17 1421.72   1
   1   5   8 3559.93 1868.92   1
   1   5   8 7684.05 2394.53   1
  -4   0  13 3155.72 1432.32   1
   4   0 -13 1796.11 1249.62   1
   4   0 -13 2928.87 1127.65   1
  -4   1 -10 4819.83 2318.00   1
  -4  -1 -10 3369.81 1209.84   1
  -4   1 -10 4368.82 1773.98   1
  -4  -1 -10 3525.65 1621.24   1
   4   5  -9 36816.6 9031.48   1
  -4   5   9 40032.1 3153.39   1
   4  -5  -9 50227.6 3818.36   1
   5   4   7 -497.29 790.420   1
  -5  -4  -7 799.980 884.260   1
  -5   4  -7 689.090 1895.37   1
   5   4   7 4059.54 3075.98   1
  -8   5   7 -1132.7 897.030   1
   8  -5  -7 1999.00 708.830   1
   8   5  -7 -565.11 1243.93   1
  12   2  -8 12125.3 2527.26   1
  12  -2  -8 14707.2 2638.42   1
  12  -2  -8 6362.40 2497.43   1
 -12   2   8 10796.4 2108.32   1
  12   2  -8 9208.47 4892.70   1
   8  -3 -11 11893.8 1777.47   1
   8   3 -11 7430.29 2946.84   1
  -8   3  11 9927.61 1866.97   1
   8   3 -11 7099.54 3100.08   1
 -13   1   6 1474.29 1536.98   1
  13   1  -6 -328.14 679.050   1
  13  -1  -6 1426.07 967.280   1
  13   1  -6 1895.97 1920.35   1
  13  -1  -6 -1459.3 1422.97   1
   6   0 -13 -1201.8 1607.28   1
  -6   0  13 1093.72 686.410   1
   6   0 -13 -1826.9 1092.18   1
   7  -5  -8 647.280 873.640   1
  -7   5   8 1943.10 1197.02   1
   7   5  -8 -210.10 1350.66   1
  -9   5   5 6143.40 2358.33   1
   9  -5  -5 6181.46 1927.35   1
   9   5  -5 -275.11 1378.41   1
  -9   3  -4 3198.30 1582.66   1
  -9   3  -4 4175.96 2040.68   1
  -9  -3  -4 5330.10 1994.65   1
   9  -3   4 798.740 510.770   1
   9  -3   4 293.800 443.240   1
   9   3   4 1738.57 1083.91   1
  -7   5  -3 911.170 1241.20   1
  -7   5  -3 4571.64 1763.15   1
   7  -5   3 4033.80 1305.22   1
   7   5   3 3727.69 1346.24   1
  -7  -5  -3 3007.32 1084.86   1
   9  -2   5 1745.20 1101.70   1
  -9  -2  -5 1117.20 1203.04   1
  -9   2  -5 5049.60 2313.37   1
  -9  -2  -5 3232.15 1115.01   1
   9   2   5 3466.44 1325.65   1
   2   5  -9 -252.26 1694.30   1
   2  -5  -9 2070.90 1384.43   1
  -2   5   9 -287.84 1087.14   1
   2  -5  -9 886.050 1137.82   1
   0   3 -11 16500.3 3581.04   1
   0   3 -11 14009.2 1210.34   1
   0   3  11 16893.3 2527.22   1
   0  -3 -11 19901.8 2043.68   1
   0  -3 -11 15007.3 2940.62   1
  13   0  -7 -3238.3 1633.26   1
  13   0  -7 -152.25 336.090   1
 -13   0   7 -610.33 1348.98   1
   1   2 -12 2561.22 1811.66   1
   1  -2 -12 2523.72 1074.13   1
   1   2 -12 3130.34 1271.39   1
  -1   2  12 -3042.2 1273.51   1
   1  -2 -12 2025.77 1431.35   1
   9  -1 -12 9705.38 4803.90   1
   9   1 -12 11044.0 2280.61   1
   9   1 -12 4530.62 1847.53   1
  -9  -1  12 3943.35 1393.26   1
  -6   6   5 13011.8 2482.61   1
   6  -6  -5 16040.7 1955.22   1
   6   6  -5 12525.9 1540.86   1
  13  -1  -3 20253.3 2431.32   1
  13   1  -3 25851.1 5523.16   1
  13   1  -3 26496.8 2482.49   1
  13  -1  -3 22964.5 4021.35   1
 -13   1   3 25195.7 3824.97   1
   0   4 -10 3287.07 1787.90   1
   0  -4 -10 1414.89 847.020   1
   0  -4 -10 -378.96 730.720   1
   0   4  10 2980.00 1589.71   1
   5   6  -6 3022.13 1255.41   1
  -5   6   6 2333.39 1305.59   1
   5  -6  -6 2353.03 975.480   1
  -3   5  -7 7274.37 2717.98   1
   3  -5   7 6408.90 2107.01   1
  -3  -5  -7 6581.57 2088.09   1
   3   5   7 7877.62 2986.41   1
  -3  -5  -7 8412.84 2621.46   1
   3   5   7 9547.85 4718.53   1
  12  -3  -4 2388.66 1345.95   1
  12  -3  -4 1782.35 995.160   1
 -12   3   4 -180.39 1216.76   1
  12   3  -4 932.590 535.080   1
  12   3  -4 -655.19 1665.50   1
   5  -5  -9 1610.08 880.910   1
   5   5  -9 -457.49 1297.68   1
   5   5  -9 3921.82 1601.88   1
  -5   5   9 672.780 951.010   1
   3   0 -13 1037.36 1508.88   1
   3   0 -13 1374.74 848.370   1
  -3   0  13 1202.64 1562.02   1
   8   2 -12 -386.52 1386.36   1
   8   2 -12 -2001.6 723.120   1
   8  -2 -12 701.900 1135.68   1
   8  -2 -12 844.680 863.870   1
  -8   2  12 3106.07 1306.80   1
   8   2 -12 -2773.4 1529.65   1
   5   1 -13 7492.16 3143.64   1
   5   1 -13 5038.09 1635.90   1
   5  -1 -13 7296.48 2294.11   1
   5  -1 -13 6083.22 2332.72   1
  -5   1  13 8667.56 2696.36   1
   5   2   9 2523.32 1007.22   1
  -5  -2  -9 2453.14 1119.66   1
  -5   2  -9 3722.30 1515.77   1
  -5   2  -9 3883.37 1448.66   1
  -5  -2  -9 2586.53 1196.85   1
   4   3   9 3594.58 1420.52   1
  -4   3  -9 2222.20 1116.85   1
  -4  -3  -9 -397.16 1248.45   1
  -4   3  -9 6454.15 2050.29   1
   4   3   9 2992.88 1837.81   1
  -4  -3  -9 929.170 855.250   1
 -12   3   5 1334.83 871.800   1
  12  -3  -5 446.540 530.830   1
  12  -3  -5 1764.31 1311.08   1
  12   3  -5 302.210 346.300   1
  12   3  -5 1258.97 1776.79   1
  11  -2   2 36036.4 5344.44   1
  11  -2   2 28754.4 3010.13   1
  11   2   2 27335.2 3958.52   1
 -11   2  -2 31093.5 2987.31   1
  12   0   1 1007.63 1156.57   1
  12   0   1 -3151.7 980.770   1
 -12   0  -1 -1242.6 783.830   1
   0   7   0 -2212.5 1325.78   1
   9  -5  -1 3087.28 1004.29   1
  -9   5   1 5727.17 2123.59   1
   9   5  -1 6501.74 2190.25   1
  13   0  -2 57603.7 5329.96   1
  13   0  -2 55544.0 5209.49   1
   8  -4   4 25129.0 4201.05   1
  -8  -4  -4 20368.9 1909.13   1
   8  -4   4 15609.6 2968.60   1
  -8   4  -4 21838.3 4013.57   1
  -8   4  -4 24412.3 2848.93   1
   8   4   4 20230.9 3245.38   1
   4   1 -13 27232.2 6754.91   1
  -4   1  13 25995.0 2089.21   1
   4  -1 -13 21278.3 5218.50   1
   4   1 -13 24103.9 3952.31   1
   4  -1 -13 23743.8 2403.78   1
 -11   0  -3 1024.58 1038.78   1
  11   0   3 -239.08 896.920   1
  11   0   3 3925.87 1352.90   1
  -6   6  -1 -170.92 1303.95   1
   6  -6   1 1479.73 823.150   1
  -6   6  -1 -1778.8 1097.05   1
  -6  -6  -1 182.990 536.310   1
   6   6   1 2846.84 1227.44   1
   6   6   1 1650.01 2250.62   1
   9  -4  -9 26230.2 3901.55   1
  -9   4   9 23547.9 3877.31   1
   9   4  -9 21523.6 2621.43   1
  -1   7   0 13959.7 1912.05   1
   1   7   0 19587.3 2360.04   1
   0   7  -1 7393.60 2448.96   1
   0   7   1 5710.06 2282.32   1
  12  -3  -3 3371.79 1226.98   1
 -12   3   3 3317.39 1654.65   1
  12  -3  -3 5281.56 1999.18   1
  12   3  -3 1770.41 930.250   1
  12   3  -3 2556.30 1039.14   1
   6   1 -13 20318.1 5094.06   1
   6  -1 -13 29476.5 5448.33   1
   6   1 -13 30017.3 3239.00   1
   6  -1 -13 27920.1 4551.93   1
  -6   1  13 26084.4 2191.51   1
   1   7  -1 1364.66 1369.65   1
  -1   7   1 490.320 939.540   1
 -11  -2  10 7521.66 2639.97   1
  11   2 -10 6755.63 2245.97   1
 -11   2  10 10706.2 2081.14   1
  11  -2 -10 7417.25 2716.58   1
  11   2 -10 7214.78 2503.43   1
  11  -2 -10 10719.2 1586.43   1
  11   2 -10 6342.55 1970.95   1
 -11   4   4 9589.10 4900.95   1
  11  -4  -4 5971.49 2006.87   1
  11  -4  -4 12466.7 1416.14   1
  11   4  -4 11559.4 1811.44   1
  -1   6  -6 2992.75 1471.69   1
  -1  -6  -6 6578.57 2006.36   1
  -1  -6  -6 5637.50 1942.68   1
   1   6   6 5233.24 1998.05   1
  -4   4  -8 3353.55 1252.30   1
  -4   4  -8 1455.77 1001.74   1
   4   4   8 -1255.2 2106.49   1
  -4  -4  -8 398.470 555.140   1
  -4  -4  -8 486.540 1145.47   1
   4   4   8 -162.89 1115.67   1
  -8   0  -7 -23.810 1210.92   1
  -8   0  -7 -1457.0 1660.71   1
   8   0   7 -2202.7 1420.31   1
   7   0 -13 -1664.0 1137.23   1
   7   0 -13 2757.45 1323.91   1
  -7   0  13 -1162.6 516.720   1
  13  -1  -7 -1846.4 1403.80   1
 -13   1   7 2456.81 1023.36   1
  13   1  -7 1015.62 762.960   1
  13   1  -7 422.880 1741.53   1
  13  -1  -7 2130.23 901.950   1
 -10  -2  11 35582.9 2759.55   1
  10   2 -11 31494.3 3225.64   1
 -10   2  11 45843.0 5859.77   1
  10  -2 -11 36329.9 3262.70   1
  10   2 -11 42192.4 3808.20   1
  10   2 -11 42289.2 3261.70   1
  10  -2 -11 44730.1 3738.58   1
  -7   0  -8 -2727.8 1849.91   1
  -7   0  -8 -2341.3 1234.65   1
   7   0   8 -3452.2 1320.67   1
   7  -6  -3 531.520 625.520   1
  -7   6   3 989.990 732.370   1
   7   6  -3 4358.48 2073.81   1
   7  -6  -2 3453.22 1089.89   1
  -7   6   2 -2368.5 1178.20   1
   7   6  -2 2321.41 1208.90   1
   1   5  -9 5347.02 2614.15   1
  -1   5   9 1768.40 1546.33   1
   1  -5  -9 413.970 558.160   1
   1  -5  -9 1907.26 1474.97   1
  11   0 -11 -19.860 792.610   1
  11   0 -11 3489.96 1708.61   1
  11   0 -11 -1355.2 1149.95   1
 -11   0  11 -1908.4 913.650   1
 -11   4   3 5499.10 2248.31   1
  11  -4  -3 2272.55 1038.06   1
  11  -4  -3 3261.53 1126.98   1
  11   4  -3 1574.17 932.760   1
  11   4  -3 5059.48 2024.41   1
  12  -3  -6 -518.35 975.610   1
 -12   3   6 -418.86 1227.50   1
  12  -3  -6 3221.88 1532.76   1
  12   3  -6 1542.30 915.500   1
  12   3  -6 934.980 1716.95   1
  11  -4  -5 357.440 483.770   1
  11  -4  -5 2232.83 1227.97   1
 -11   4   5 2855.33 1161.80   1
  11   4  -5 928.410 1849.03   1
 -12   2   0 49720.1 5526.61   1
  12   2   0 58252.9 4718.62   1
  12  -2   0 43531.7 3373.39   1
  12  -2   0 45734.8 4012.23   1
  12   2   0 50652.7 4334.61   1
   1   7   1 15062.6 2227.67   1
  -1   7  -1 15223.8 1814.96   1
   4   3 -12 6293.47 1953.50   1
   4  -3 -12 6084.55 1985.33   1
  -4   3  12 3777.39 1745.69   1
   4   3 -12 3754.29 1529.20   1
   4  -3 -12 8269.65 2690.62   1
  -9   5   6 715.050 910.690   1
   9  -5  -6 1041.42 911.360   1
   9   5  -6 -1957.6 1393.93   1
   3   1 -13 7018.81 2251.07   1
  -3   1  13 3815.61 1377.90   1
   3   1 -13 9343.92 4712.18   1
   3  -1 -13 7736.61 2645.88   1
   3  -1 -13 6770.66 2256.06   1
  -2  -2 -11 20827.2 2102.37   1
   2   2  11 12320.5 2331.47   1
  -2   2 -11 16330.4 2663.34   1
  -2  -2 -11 22579.1 3177.34   1
  -2   2 -11 20056.1 2148.30   1
   5  -3 -12 3702.32 1810.14   1
   5  -3 -12 2956.21 1420.38   1
   5   3 -12 1238.87 786.620   1
   5   3 -12 5868.23 2167.03   1
  -5   3  12 5225.09 2050.07   1
   3   6  -7 4836.40 1722.95   1
  -3   6   7 5067.05 1972.16   1
   3  -6  -7 4272.19 1612.07   1
  12   1   1 61338.1 5093.01   1
  12  -1   1 57259.5 5205.75   1
  12   1   1 66121.6 5107.17   1
 -12  -1  -1 72564.9 5159.25   1
 -12   1  -1 59369.3 4455.62   1
   2   6  -7 -485.69 1226.13   1
   2  -6  -7 3619.97 1467.11   1
  -2   6   7 1286.59 925.730   1
  10  -4  -8 7424.43 2420.51   1
  10  -4  -8 2120.21 1005.48   1
 -10   4   8 3348.14 1472.80   1
  10   4  -8 -741.22 1656.24   1
  13  -1  -2 6334.03 1956.21   1
  13   1  -2 5540.44 1831.25   1
  13  -1  -2 1744.35 1479.24   1
  13   1  -2 7238.93 2290.32   1
   4   6   4 6185.24 2902.68   1
   4   6   4 3050.20 1097.72   1
   4  -6   4 3862.39 1184.12   1
  -4  -6  -4 4530.91 1403.70   1
  -4   6  -4 1512.65 1472.97   1
  -4   6  -4 -144.31 623.600   1
  10   3 -10 40831.0 3821.24   1
  10   3 -10 30522.6 5653.43   1
  10  -3 -10 36582.9 3204.05   1
  10  -3 -10 43817.1 3546.54   1
 -10   3  10 44648.3 7036.28   1
  -3   0 -11 -172.47 983.030   1
  -3   0 -11 4369.33 1434.96   1
  -2   7   1 6653.25 2333.58   1
   2   7  -1 113.470 1479.09   1
  -1   0 -12 1100.60 2053.61   1
  -1   0 -12 1488.63 936.790   1
   1   7  -2 3772.78 1463.90   1
  -1   7   2 -299.91 1035.81   1
  -9   0  -6 48834.1 4565.06   1
   9   0   6 58994.9 7337.65   1
  -9   0  -6 57159.2 4458.20   1
 -11   1  -3 -135.55 1241.30   1
 -11  -1  -3 655.120 834.810   1
  11   1   3 2011.63 699.930   1
  11  -1   3 -2158.0 1046.49   1
  11  -1   3 2522.59 1017.47   1
  -2   7   0 35591.7 3132.51   1
   2   7   0 34673.9 3396.79   1
  -7   6   4 1411.57 1014.49   1
   7  -6  -4 1016.93 987.750   1
   7   6  -4 -186.43 1086.00   1
  -6   5   9 2922.31 1299.21   1
   6  -5  -9 195.090 874.150   1
   6   5  -9 3710.29 1998.03   1
   6   5  -9 3380.74 1365.90   1
   7  -6  -1 34784.7 2803.75   1
  -7   6   1 34184.0 5017.49   1
   7   6  -1 37553.7 5259.80   1
   0   7  -2 1640.08 1073.59   1
   0   7   2 353.410 1057.10   1
   4   4 -11 71849.1 12201.6   1
   4  -4 -11 75741.8 5388.11   1
   4  -4 -11 76018.3 7017.02   1
  -4   4  11 70359.2 5020.05   1
   8   4 -10 15290.6 2057.07   1
   8   4 -10 15753.3 2932.98   1
  -8   4  10 22882.9 2908.23   1
   8  -4 -10 26358.8 2617.67   1
 -13   0   8 16281.8 3136.95   1
  13   0  -8 26020.5 2373.17   1
  13   0  -8 20685.7 2622.86   1
   2   0 -13 485.000 867.370   1
   2   0 -13 556.810 1246.68   1
  -2   0  13 2885.70 1617.61   1
   5   6   3 4248.25 2630.32   1
  -5   6  -3 3357.76 1323.21   1
  -5  -6  -3 1595.28 872.810   1
  -5   6  -3 5991.76 2426.50   1
   5  -6   3 1133.52 616.590   1
   5   6   3 1826.26 1193.08   1
  12   0 -10 2126.33 1561.47   1
  12   0 -10 4212.50 1542.05   1
 -12   0  10 2830.14 1565.55   1
  12   0 -10 5320.76 1847.77   1
  -8   5  -2 2732.36 1396.03   1
   8  -5   2 5831.76 1834.05   1
  -8   5  -2 2775.46 1315.78   1
  -8  -5  -2 6674.40 2152.48   1
   8   5   2 7180.02 2301.95   1
 -10  -2  -4 2204.78 1183.62   1
 -10  -2  -4 -654.32 710.930   1
 -10   2  -4 1229.47 1254.43   1
  10   2   4 2255.93 975.440   1
  10  -2   4 -50.300 801.020   1
  10  -2   4 2030.74 1014.75   1
  11  -3   1 27779.0 3972.97   1
  11  -3   1 23161.3 3906.60   1
 -11   3  -1 28570.0 2608.96   1
 -11   3  -1 28585.6 3121.13   1
  11   3   1 21952.5 3867.62   1
  11   3   1 27860.8 2669.33   1
   3  -3 -12 70937.5 5125.33   1
  -3   3  12 82004.3 39001.7   1
   3   3 -12 56498.1 4379.38   1
   3  -3 -12 82235.1 39515.8   1
   3   3 -12 87460.2 41537.9   1
  -8  -1  -7 3604.96 1957.03   1
  -8   1  -7 -621.72 1252.24   1
   8  -1   7 1138.70 1225.17   1
  -8   1  -7 -830.56 1823.85   1
   8   1   7 912.240 1452.09   1
  -8  -1  -7 2537.06 951.070   1
   7  -1 -13 20973.2 2289.51   1
   7   1 -13 19490.1 4138.85   1
   7  -1 -13 20314.6 5072.23   1
  -7   1  13 21498.0 1814.49   1
   7   1 -13 24823.5 2436.93   1
  10  -4   1 24572.9 3642.94   1
 -10   4  -1 25749.8 3838.10   1
  10  -4   1 17352.1 2191.86   1
 -10   4  -1 18776.1 1997.43   1
  10   4   1 22882.0 4699.47   1
   3   6   5 1654.52 2015.21   1
  -3  -6  -5 5739.87 1761.16   1
   3   6   5 8691.19 2806.53   1
  -3  -6  -5 5332.34 1845.66   1
  -3   6  -5 -101.61 1169.20   1
   4   6  -7 3108.08 1541.84   1
   4   6  -7 -1940.8 864.850   1
   4  -6  -7 447.070 778.380   1
  -4   6   7 -400.87 998.040   1
  12  -3  -2 398.320 489.630   1
  12  -3  -2 1968.95 796.700   1
 -12   3   2 3455.07 1238.91   1
  12   3  -2 307.910 304.610   1
  12   3  -2 226.530 1316.85   1
  -6   0  -9 554.770 1156.51   1
   6   0   9 -176.98 1136.77   1
  -6   0  -9 -2561.9 1691.76   1
   5   4 -11 22133.3 4547.24   1
  -5   4  11 25359.7 2141.76   1
   5  -4 -11 26315.7 2413.25   1
   5  -4 -11 26679.8 2546.23   1
  -7  -1  -8 6936.99 2490.32   1
  -7   1  -8 5231.12 2211.32   1
  -7  -1  -8 17273.0 2085.88   1
  -7   1  -8 9890.66 5093.09   1
   7   1   8 12979.4 1493.57   1
   7  -1   8 9557.32 4702.27   1
   6   3 -12 22821.5 1853.94   1
   6  -3 -12 27767.3 2613.53   1
  -6   3  12 19502.2 1891.52   1
   6  -3 -12 22599.0 3430.34   1
   6   3 -12 15669.9 3348.25   1
   2   7  -2 -238.18 920.810   1
  -2   7   2 1170.68 1538.30   1
   2  -7  -2 529.250 618.660   1
   3   4 -11 51589.0 7749.53   1
  -3   4  11 49828.0 3827.59   1
   3  -4 -11 57750.1 4336.93   1
   3  -4 -11 52299.6 3742.41   1
   1   6  -7 4720.34 2561.89   1
   1  -6  -7 3069.13 1224.51   1
  -1   6   7 1032.47 1235.98   1
  11  -4  -2 2629.83 874.570   1
  11  -4  -2 150.620 819.540   1
 -11   4   2 2077.18 1033.32   1
  11   4  -2 1915.99 1024.98   1
  11   4  -2 2260.44 1617.49   1
  11  -1 -11 10101.9 1934.75   1
  11  -1 -11 9489.41 4694.46   1
  11   1 -11 13779.7 2740.61   1
 -11  -1  11 8351.42 2912.29   1
 -11   1  11 11389.0 2195.97   1
  11   1 -11 9336.58 4819.25   1
  11  -1 -11 12743.0 1522.97   1
  11   1 -11 12009.0 2137.85   1
 -13   2   5 -175.11 1419.92   1
  13  -2  -5 -2137.1 1459.68   1
  13   2  -5 2284.29 1629.73   1
  13  -2  -5 3746.16 1293.20   1
  13   2  -5 2164.18 712.510   1
  10   0 -12 -855.53 1183.48   1
  10   0 -12 -669.10 1465.68   1
  10   0 -12 2744.64 1343.92   1
 -10   0  12 2931.33 1102.79   1
   6  -6  -6 10033.9 1152.71   1
  -6   6   6 9927.58 2047.81   1
   6   6  -6 12288.3 1775.59   1
   9  -5   0 16924.4 2474.60   1
  -9   5   0 10682.0 1945.23   1
   9   5   0 13562.6 1892.16   1
   9   5   0 9832.74 5103.51   1
 -10  -3  -3 262.210 1004.35   1
  10  -3   3 -178.40 782.240   1
 -10   3  -3 3742.58 1706.45   1
  10   3   3 899.460 825.930   1
 -10   3  -3 1325.12 1314.13   1
  10  -3   3 -1128.9 728.620   1
  11  -3  -9 36533.9 3027.68   1
 -11   3   9 35823.7 4776.11   1
  11  -3  -9 29923.8 2633.04   1
  11   3  -9 32673.6 2528.43   1
  11   3  -9 30784.7 3099.22   1
 -11   4   6 1197.75 1071.38   1
  11  -4  -6 1358.33 950.110   1
  11  -4  -6 4330.20 1476.41   1
  11   4  -6 2219.69 1924.25   1
  13  -2  -4 8828.14 3059.58   1
 -13   2   4 4264.16 2440.14   1
  13   2  -4 11977.5 2037.53   1
  13   2  -4 9271.78 4600.95   1
  13  -2  -4 10194.8 1578.74   1
  -2   5  -8 3711.20 2258.56   1
   2   5   8 8799.82 2881.12   1
   2   5   8 7916.01 2873.97   1
  -2  -5  -8 3513.98 1689.15   1
  -2  -5  -8 8564.84 2993.96   1
   0  -2 -12 45146.8 3465.29   1
   0  -2 -12 31877.3 6263.51   1
   0   2 -12 31941.9 7060.59   1
   0   2  12 30384.7 3196.63   1
  12   2  -9 746.420 539.760   1
  12  -2  -9 2593.90 1298.86   1
 -12  -2   9 1430.83 914.160   1
 -12   2   9 3318.33 1448.74   1
  12  -2  -9 1777.80 1411.68   1
  12   2  -9 -2737.9 1461.08   1
   9  -4   3 3587.57 1235.65   1
   9  -4   3 2993.26 1053.49   1
  -9   4  -3 1815.84 1471.89   1
  -9   4  -3 751.600 767.270   1
  -9  -4  -3 3230.91 1578.08   1
   9   4   3 3271.26 1276.24   1
   2   7   1 440.490 1260.02   1
  -2   7  -1 816.660 897.050   1
   1   7   2 2192.26 1553.31   1
  -1   7  -2 3200.06 1273.90   1
  13   0  -1 -808.63 940.550   1
  13   0  -1 403.540 1352.47   1
  -3   1 -11 5206.92 1985.26   1
  -3   1 -11 2490.48 1179.05   1
  -3  -1 -11 1983.99 1547.96   1
  -3  -1 -11 4017.75 1696.99   1
  -4  -2 -10 -2877.2 1232.12   1
  -4  -2 -10 -178.27 842.940   1
   4   2  10 816.570 1204.71   1
  -4   2 -10 2340.80 1084.05   1
  -4   2 -10 442.950 2006.17   1
  -9   3  11 18599.0 3227.33   1
   9   3 -11 17557.3 3170.77   1
   9   3 -11 17888.2 2866.17   1
   9  -3 -11 18820.3 2799.25   1
   9   3 -11 16042.6 2368.99   1
   1   1  12 10277.1 2061.09   1
  -1   1 -12 10477.0 2119.08   1
  -1  -1 -12 11154.9 1682.87   1
  -1   1 -12 10227.5 1705.38   1
  -1  -1 -12 12502.5 2054.18   1
  -9   1  -6 1338.24 1833.16   1
  -9  -1  -6 2295.55 1874.54   1
  -9  -1  -6 3445.53 1348.21   1
   9   1   6 1105.83 823.530   1
   9  -1   6 2633.88 1533.18   1
  -9   1  -6 1054.74 1432.60   1
 -12   3   7 2178.66 1379.39   1
  12  -3  -7 442.460 920.580   1
  12  -3  -7 3481.61 1377.08   1
  12   3  -7 4513.82 2009.22   1
  12   3  -7 2956.49 1054.57   1
   8   0 -13 1566.95 1305.83   1
   8   0 -13 1541.93 1459.03   1
  -8   0  13 -142.48 527.160   1
  -8   5   8 1118.65 894.300   1
   8  -5  -8 3059.65 1314.06   1
   8   5  -8 1356.99 1374.42   1
  -1   4 -10 8772.36 2571.52   1
  -1   4 -10 5965.94 1852.65   1
  -1  -4 -10 6237.31 1950.16   1
  -1  -4 -10 6639.97 2011.28   1
   1   4  10 5220.01 2074.84   1
 -13   2   6 3824.47 1849.48   1
  13   2  -6 4672.20 1487.26   1
  13  -2  -6 2904.00 1408.89   1
  13   2  -6 9166.26 2367.82   1
  13  -2  -6 1752.32 1481.09   1
  13  -1  -8 -724.86 1294.53   1
  13   1  -8 692.210 1706.88   1
  13  -1  -8 66.7600 906.420   1
 -13  -1   8 -1347.8 1415.50   1
 -13   1   8 2522.18 1265.95   1
  13   1  -8 3789.43 1281.83   1
  -2   1  13 15583.6 2469.38   1
   2   1 -13 21091.5 3652.80   1
   2  -1 -13 17682.3 2073.69   1
   2  -1 -13 11793.1 2241.87   1
   2   1 -13 16823.7 1824.49   1
  -1   3 -11 14159.6 2260.30   1
  -1   3 -11 6287.06 2546.20   1
   1   3  11 10016.2 2400.32   1
  -1  -3 -11 16320.0 1992.23   1
  -1  -3 -11 7202.03 2633.51   1
 -12  -1  10 3637.68 1453.55   1
 -12   1  10 5729.39 2193.17   1
  12  -1 -10 9815.04 1920.73   1
  12   1 -10 1695.69 1374.10   1
  12   1 -10 9401.66 2740.09   1
  12   1 -10 7951.82 2380.10   1
  12  -1 -10 8946.92 1300.37   1
   0   5  -9 8702.40 1734.84   1
   0   5   9 5379.82 2523.53   1
   0  -5  -9 2659.36 1202.80   1
   0  -5  -9 2374.58 921.820   1
   0   5   9 546.600 705.760   1
   3   7  -1 6629.00 3081.64   1
  -3   7   1 -206.02 918.120   1
   3  -7  -1 52.5900 549.410   1
   6  -4 -11 11096.2 1429.38   1
   6  -4 -11 10736.8 1355.91   1
   6   4 -11 11833.3 2490.87   1
  -6   4  11 9548.68 1312.80   1
   9   2 -12 12801.4 2166.91   1
   9   2 -12 12360.2 1549.51   1
   9  -2 -12 9745.30 1294.50   1
   9  -2 -12 11104.2 2033.97   1
  -9   2  12 4457.83 1510.53   1
   3   3  10 -2448.8 1923.18   1
  -3  -3 -10 2822.47 1075.70   1
  -3   3 -10 123.390 863.770   1
  -3   3 -10 2633.15 1477.44   1
  -3  -3 -10 1638.91 838.560   1
  -6   1  -9 13220.9 2510.59   1
   6  -1   9 13694.1 1656.39   1
   6   1   9 15732.8 2332.54   1
  -6   1  -9 7873.79 2487.03   1
  -6  -1  -9 14274.6 1669.91   1
  -6  -1  -9 9948.95 2372.48   1
   1   7  -3 21422.0 2063.78   1
  -1   7   3 18036.6 2308.53   1
   1  -7  -3 17011.8 1896.27   1
   1   7  -3 9837.87 3275.88   1
  -7   6   5 3578.06 1387.75   1
   7  -6  -5 5882.01 1813.98   1
   7   6  -5 6601.76 2251.01   1
  -6   6  -2 3957.42 1591.04   1
  -6   6  -2 -305.33 1126.48   1
   6  -6   2 1894.04 955.910   1
   6   6   2 854.660 851.010   1
   6   6   2 2787.51 2155.73   1
  -6  -6  -2 634.750 571.530   1
   7  -6   0 31954.3 2548.40   1
  -7   6   0 47879.6 9023.55   1
   7   6   0 40126.0 4476.63   1
   7   6   0 32670.4 3923.84   1
  13  -2  -3 20844.2 2827.36   1
 -13   2   3 22628.6 4026.82   1
  13   2  -3 18166.6 3153.94   1
  13   2  -3 17699.0 3437.28   1
  13  -2  -3 21152.7 2921.00   1
  -3   4  -9 6612.27 2125.05   1
  -3   4  -9 608.060 698.740   1
   3   4   9 -2111.8 990.730   1
  -3  -4  -9 -558.42 628.570   1
   3   4   9 2978.02 2115.23   1
  -3  -4  -9 -270.70 861.640   1
   2   4 -11 3697.68 1860.04   1
   2  -4 -11 6423.26 2086.72   1
   2  -4 -11 1681.83 1018.25   1
  -2   4  11 4803.82 1658.67   1
   6   5   5 -677.41 1090.69   1
   6  -5   5 362.110 400.140   1
  -6  -5  -5 -795.99 599.620   1
   6  -5   5 870.910 601.230   1
  -6   5  -5 -3328.2 1424.39   1
   6   5   5 523.220 1949.73   1
  -6   5  -5 1200.83 887.860   1
   2   3 -12 6600.29 1909.98   1
   2   3 -12 4957.06 1863.40   1
   2  -3 -12 7736.53 2479.63   1
   2  -3 -12 7974.32 2931.47   1
  -2   3  12 9446.48 2190.42   1
  10   0   5 -210.84 1345.92   1
 -10   0  -5 -17.760 1083.73   1
   5  -5   6 3133.86 1033.07   1
  -5  -5  -6 4615.04 1409.87   1
   5  -5   6 5325.58 1970.20   1
   5   5   6 5509.30 1723.94   1
  -5   5  -6 7784.82 2921.17   1
   5   5   6 630.000 2157.23   1
  -3   7   2 294.870 1053.16   1
   3  -7  -2 -682.47 536.430   1
   5   6  -7 3494.66 1472.87   1
   5  -6  -7 1026.50 1228.96   1
  -5   6   7 3505.61 1617.55   1
 -10  -1  12 616.240 465.460   1
 -10   1  12 2981.55 1188.58   1
  10  -1 -12 1457.36 1310.80   1
  10   1 -12 4910.68 1826.66   1
  10   1 -12 3417.30 1324.00   1
  10  -1 -12 -3189.7 1320.43   1
  10  -1 -12 -182.69 1146.51   1
  10   1 -12 -1194.6 1313.43   1
  -2   7   3 8399.91 1887.87   1
   2   7  -3 4869.39 1860.47   1
   2  -7  -3 6261.20 1875.52   1
  -2   6  -6 36180.7 3730.26   1
   2   6   6 35497.8 3893.62   1
  -2  -6  -6 36113.6 2821.88   1
   3   7   0 1411.24 1540.71   1
  -3   7   0 3575.55 1427.20   1
   5  -2 -13 9485.01 1630.25   1
   5   2 -13 7712.37 2509.69   1
   5  -2 -13 8124.65 4773.73   1
  -5   2  13 11902.9 1489.38   1
   5   2 -13 10841.5 2290.49   1
   0  -7  -3 1146.85 643.450   1
   0   7  -3 -1514.2 675.060   1
   0   7  -3 3641.72 1379.85   1
   0   7   3 7207.77 2748.38   1
  -7   3  12 4101.78 1920.25   1
   7  -3 -12 -1543.8 1188.72   1
   7   3 -12 361.780 802.880   1
   7  -3 -12 6566.91 2109.94   1
   0   6  -7 6301.08 2706.42   1
   0   6   7 4297.45 2118.17   1
   0  -6  -7 6231.69 1897.02   1
   0  -6  -7 -162.02 647.590   1
  -9   5   7 -1051.6 1070.81   1
   9  -5  -7 1574.28 858.860   1
   9   5  -7 3791.04 2142.94   1
  -7   3  -7 5825.09 2313.65   1
  -7  -3  -7 8898.16 1582.87   1
   7   3   7 13446.5 1780.85   1
   7  -3   7 14682.8 2165.73   1
  -7  -3  -7 16419.2 1741.65   1
  13  -1  -1 33928.8 3253.02   1
  13   1  -1 26267.0 4406.52   1
  13  -1  -1 29991.2 4043.93   1
  13   1  -1 25369.7 2513.27   1
   4   2 -13 3430.56 1264.49   1
   4  -2 -13 1845.30 1226.28   1
   4   2 -13 1734.83 1016.87   1
   4  -2 -13 3126.32 1368.89   1
  -4   2  13 -1918.1 774.680   1
   8  -1 -13 2987.83 1297.78   1
  -8   1  13 172.570 741.450   1
   8   1 -13 1198.18 1801.77   1
   8  -1 -13 1119.97 1010.86   1
   8   1 -13 1382.46 1263.06   1
  11  -4  -1 379.470 612.780   1
 -11   4   1 -389.32 765.700   1
  11  -4  -1 2139.98 1153.89   1
  11   4  -1 2589.01 931.440   1
  11   4  -1 -1400.4 1424.18   1
  -7   5   9 1626.53 1185.11   1
   7  -5  -9 2468.61 797.470   1
   7   5  -9 1279.26 1407.94   1
  -5   0 -10 -3785.9 1441.94   1
  -5   0 -10 393.540 1131.32   1
   8   3   6 1330.05 905.590   1
   8  -3   6 -230.26 433.350   1
  -8   3  -6 1002.30 1695.56   1
  -8  -3  -6 2436.96 978.590   1
   8  -3   6 -216.11 1139.32   1
  -8  -3  -6 6077.87 1972.97   1
  12  -3  -1 10069.8 1240.87   1
  12  -3  -1 10065.5 1418.78   1
 -12   3   1 13892.0 2763.80   1
  12   3  -1 9751.19 1862.54   1
  12   3  -1 9061.33 2096.25   1
   7  -5   4 9929.18 1749.49   1
  -7   5  -4 10761.5 2327.04   1
  -7   5  -4 10253.8 1869.42   1
   7  -5   4 7196.54 2101.66   1
   7   5   4 12460.4 2119.09   1
  -7  -5  -4 12336.4 1469.43   1
   6   2 -13 -3102.9 1793.57   1
  -6   2  13 1902.60 1380.36   1
   6  -2 -13 2086.12 1448.49   1
   6  -2 -13 3989.46 2002.51   1
   6   2 -13 2053.39 1356.95   1
   1   0 -13 647.350 1265.19   1
   1   0 -13 -713.83 933.610   1
  11  -4  -7 108.920 696.130   1
  11  -4  -7 1630.06 967.210   1
 -11   4   7 2172.25 1304.94   1
  11   4  -7 3842.29 1996.83   1
   2   7   2 4078.04 2321.36   1
  -2   7  -2 7095.13 2355.90   1
  13   2  -7 28089.3 2572.73   1
  13  -2  -7 31350.6 2708.37   1
  13  -2  -7 31432.7 3142.31   1
 -13   2   7 28846.5 3399.10   1
  13   2  -7 24559.6 2768.19   1
  -6  -3  -8 1281.54 984.770   1
  -6   3  -8 3241.94 1536.96   1
   6  -3   8 704.530 539.040   1
   6   3   8 2069.78 1504.93   1
  -6   3  -8 -550.28 2012.26   1
  -6  -3  -8 1543.78 805.660   1
  -4   5  -7 88.1800 1751.41   1
   4  -5   7 2078.26 1078.55   1
   4   5   7 898.960 1323.10   1
  -4  -5  -7 221.920 666.230   1
   4   5   7 -981.94 2179.48   1
  -4  -5  -7 -954.08 600.080   1
   3  -7  -3 8294.01 4764.35   1
  -3   7   3 6254.38 1973.91   1
   3   7  -3 13195.6 2195.39   1
 -10   5   4 42188.3 6530.89   1
  10  -5  -4 35417.1 2685.81   1
  10   5  -4 45143.0 4209.22   1
  10  -1   5 1433.09 952.010   1
 -10   1  -5 1932.39 2136.31   1
 -10  -1  -5 2355.22 1400.85   1
  10   1   5 -1477.8 1330.45   1
 -10  -1  -5 3134.31 1277.04   1
  10  -5  -3 647.290 578.100   1
 -10   5   3 -1210.4 1166.96   1
  10   5  -3 -1380.1 1441.75   1
  12   0   2 34589.2 4302.46   1
  12   0   2 29076.1 5683.91   1
 -12   0  -2 30366.4 2632.09   1
 -13   0   9 -652.70 1296.32   1
  13   0  -9 209.310 472.820   1
  13   0  -9 -2946.2 1427.31   1
   3   7   1 890.180 1615.61   1
  -3   7  -1 -1261.2 928.210   1
  -3   2  13 21122.0 2298.02   1
   3  -2 -13 27769.2 2515.56   1
   3   2 -13 19921.1 6224.47   1
   3   2 -13 30720.6 2579.89   1
   3  -2 -13 23354.5 3458.17   1
   1   7   3 3893.97 2012.98   1
  -1   7  -3 2909.32 1029.82   1
  -1   7  -3 6772.45 2200.24   1
 -12   2  -1 20473.8 2232.01   1
  12  -2   1 14860.6 2825.66   1
  12   2   1 18716.9 3402.27   1
  12  -2   1 11551.4 3625.23   1
  12   2   1 16115.9 3149.59   1
  13   2  -2 28613.2 4247.77   1
 -13   2   2 31616.3 4786.66   1
  13  -2  -2 26511.0 4510.51   1
  13   2  -2 24902.6 2366.73   1
  13  -2  -2 26388.8 4259.78   1
  -7   4  11 71346.8 5449.92   1
   7   4 -11 79696.8 6336.97   1
   7   4 -11 85378.8 48697.7   1
   7  -4 -11 72588.3 7043.39   1
   7   4   6 4492.89 1510.22   1
   7  -4   6 2732.98 897.120   1
  -7  -4  -6 2816.24 1130.84   1
   7  -4   6 1066.35 688.060   1
  -7   4  -6 259.140 1479.23   1
  -7   4  -6 2725.62 1315.59   1
  11  -2   3 2885.10 1044.18   1
  11   2   3 6217.69 1910.48   1
 -11   2  -3 2683.77 1394.26   1
  11  -2   3 7370.25 2456.55   1
  -9   5  -1 28689.5 2863.06   1
   9  -5   1 27321.1 2880.26   1
  -9   5  -1 20050.8 3812.46   1
   9   5   1 32950.9 3072.02   1
 -10   4   9 3743.78 1625.70   1
  10  -4  -9 7161.16 2309.55   1
  10   4  -9 -744.29 1635.37   1
   1   4 -11 16844.0 2972.85   1
   1  -4 -11 18673.0 3715.02   1
  -1   4  11 17472.5 2459.44   1
   1  -4 -11 18260.6 2531.17   1
  12  -3  -8 32456.6 2641.21   1
  12  -3  -8 18817.1 1912.10   1
 -12   3   8 21110.0 3366.79   1
  12   3  -8 16440.3 2812.40   1
  12   3  -8 16723.7 2010.69   1
  -6  -4  -7 4015.11 1457.11   1
   6  -4   7 -104.76 583.790   1
  -6   4  -7 6367.77 2953.75   1
  -6  -4  -7 1609.22 853.610   1
   6   4   7 907.870 723.520   1
   6  -4   7 2620.90 997.720   1
  10  -5  -5 2116.82 1069.24   1
 -10   5   5 1153.03 1313.19   1
  10   5  -5 484.640 1529.05   1
  -5   1 -10 8880.06 1849.07   1
  -5  -1 -10 4047.64 1716.24   1
   5   1  10 7676.31 2339.62   1
  -5   1 -10 8365.83 1638.58   1
  -5  -1 -10 3581.44 1345.82   1
  -9   4  10 5039.25 1763.99   1
   9  -4 -10 1506.23 1009.92   1
   9   4 -10 4343.29 1977.68   1
   4  -5 -10 20862.9 2156.86   1
  -4   5  10 17329.0 2063.83   1
   4   5 -10 10669.4 1932.67   1
   4  -5 -10 15738.6 1632.44   1
   1   1 -13 20090.7 3388.61   1
   1  -1 -13 17246.0 1891.98   1
   1  -1 -13 15547.3 2723.06   1
   1   1 -13 21155.5 3244.57   1
  -1   1  13 21625.8 2705.49   1
 -10   5   2 12239.2 2461.34   1
  10  -5  -2 16445.1 2291.10   1
  10   5  -2 12685.2 1573.82   1
   4  -7  -1 5956.20 1917.14   1
  -4   7   1 9805.30 1836.91   1
   4   7  -1 5620.52 2232.04   1
  -8  -2  -7 -872.61 1155.93   1
   8  -2   7 -534.23 726.960   1
  -8   2  -7 2163.14 1583.50   1
  -8   2  -7 -931.93 1700.69   1
  -8  -2  -7 5676.20 2204.09   1
   8   2   7 2594.46 972.470   1
   7   2 -13 12411.4 1387.59   1
   7  -2 -13 15129.2 3103.37   1
   7   2 -13 8891.13 2241.40   1
  -7   2  13 15727.3 1726.62   1
   7  -2 -13 15545.4 4494.84   1
  -9   3  -5 -1102.6 1882.53   1
   9   3   5 -1507.7 1395.23   1
   9  -3   5 2002.67 1137.34   1
  -9  -3  -5 2290.05 1570.08   1
  -9   3  -5 -155.72 1379.82   1
   9  -3   5 3301.51 1073.98   1
  -3   5  10 24660.9 3010.74   1
   3  -5 -10 23646.2 2117.87   1
   3  -5 -10 19777.6 1994.04   1
   3   5 -10 21413.1 3965.95   1
  -7   6   6 3843.26 1360.40   1
   7  -6  -6 2131.01 1393.72   1
   7   6  -6 2950.82 1283.48   1
   4  -7  -2 -289.50 510.820   1
  -4   7   2 227.320 1074.02   1
   4   7  -2 -2658.0 1384.22   1
   1   3 -12 3051.39 1008.69   1
   1   3 -12 820.700 756.190   1
   1  -3 -12 2820.86 1175.17   1
   1  -3 -12 -1562.7 831.910   1
  -1   3  12 472.530 1580.30   1
  -7   6  -1 15065.6 2891.42   1
  -7   6  -1 18710.8 2342.20   1
   7  -6   1 18075.4 2305.57   1
  -7  -6  -1 14498.1 1620.48   1
   7   6   1 10690.8 2578.21   1
   7   6   1 22343.0 2249.03   1
   9   0 -13 -72.320 1076.30   1
   9   0 -13 1531.44 1213.06   1
  -9   0  13 600.990 388.630   1
   1  -7  -4 889.350 522.560   1
  -1   7   4 -408.95 1189.22   1
   1   7  -4 1089.51 900.840   1
  -7   2  -8 19989.4 2890.95   1
  -7   2  -8 22362.2 2298.91   1
   7  -2   8 17781.2 2962.30   1
  -7  -2  -8 19063.6 2024.97   1
   7   2   8 17319.5 5087.29   1
  -7  -2  -8 15804.6 2918.96   1
  -2   7   4 3005.76 1343.38   1
   2  -7  -4 2538.40 1075.17   1
  -6   6   7 5557.69 1863.37   1
   6  -6  -7 8005.79 2541.22   1
   6   6  -7 2824.52 1235.29   1
  -8   6   3 11480.4 2460.21   1
   8  -6  -3 18284.8 1709.51   1
   8   6  -3 11601.2 2016.33   1
  11   2 -11 11958.3 1544.27   1
  11   2 -11 14884.0 2311.45   1
  11  -2 -11 10509.3 1777.75   1
  11  -2 -11 10874.4 2271.92   1
  11   2 -11 13238.9 2099.23   1
 -11  -2  11 11742.9 2178.00   1
 -11   2  11 14256.2 2240.22   1
  12  -1   2 7572.97 2387.24   1
  12   1   2 5313.97 1778.80   1
 -12  -1  -2 4319.46 1314.49   1
 -12   1  -2 3718.19 1376.68   1
  12   1   2 3563.55 1132.90   1
  12  -1   2 7961.18 2321.17   1
  13   0   0 1580.73 922.750   1
  13   0   0 -959.72 1194.96   1
 -10   4  -2 650.890 633.910   1
  10  -4   2 2287.80 1346.04   1
  10  -4   2 2008.37 1148.02   1
 -10   4  -2 2299.29 2075.64   1
  10   4   2 2911.23 1223.12   1
  -5   6  -4 7447.68 2582.42   1
   5   6   4 11843.7 3868.97   1
   5  -6   4 6585.80 2005.95   1
  -5  -6  -4 8772.45 1132.13   1
   5   6   4 4344.02 1445.03   1
  -5   6  -4 1636.73 1240.61   1
  -1   5  -9 5100.24 3053.50   1
   1   5   9 8881.13 1338.82   1
  -1  -5  -9 6883.36 2171.10   1
   1   5   9 5121.41 2175.73   1
  -1  -5  -9 4254.40 1473.74   1
 -13  -1   9 4621.85 1624.88   1
 -13   1   9 4962.41 1951.55   1
  13   1  -9 1518.85 1017.78   1
  13  -1  -9 4458.84 1799.73   1
  13   1  -9 3824.46 2446.78   1
  13  -1  -9 3856.89 1428.50   1
  13   1  -9 596.560 750.960   1
   8  -4   5 5374.60 1662.85   1
  -8  -4  -5 2584.93 1166.56   1
  -8   4  -5 58.5000 884.940   1
  -8   4  -5 1184.70 1625.89   1
   8   4   5 3535.03 1433.68   1
   8  -4   5 3884.71 1158.68   1
   5  -5 -10 16847.9 2062.45   1
   5   5 -10 12357.6 1886.66   1
  -5   5  10 17526.5 2147.69   1
  -2   0 -12 4237.70 1684.20   1
  -2   0 -12 341.030 710.320   1
   8  -3 -12 2637.92 1599.68   1
  -8   3  12 2121.19 1224.90   1
   8  -3 -12 -63.190 1027.70   1
   8   3 -12 -2701.0 1811.35   1
   8   3 -12 2615.02 1715.98   1
  -8   5  -3 24348.1 2823.77   1
  -8   5  -3 20164.7 3603.50   1
   8  -5   3 20411.0 2787.88   1
   8   5   3 23954.8 3828.91   1
  -8  -5  -3 27640.3 2470.26   1
  -4   6  -5 330.770 1553.46   1
   4  -6   5 -149.55 354.060   1
  -4  -6  -5 288.680 247.510   1
   4   6   5 247.420 259.260   1
   4   6   5 890.750 2073.41   1
   8  -6  -2 2013.47 1018.56   1
  -8   6   2 2071.42 1356.67   1
   8   6  -2 1503.18 1296.63   1
  -5  -3  -9 1372.59 996.450   1
  -5   3  -9 2269.90 1523.08   1
   5   3   9 4692.34 1555.33   1
  -5   3  -9 1429.96 1177.83   1
  -5  -3  -9 2072.69 1300.42   1
  -1   6  -7 5020.39 1939.42   1
  -1  -6  -7 4449.79 1451.47   1
   1   6   7 13243.9 2736.10   1
  -1  -6  -7 2399.75 894.930   1
 -11   3  -2 -2315.3 1898.72   1
 -11   3  -2 3659.15 1360.65   1
  11  -3   2 7137.30 2084.60   1
  11  -3   2 5274.61 1708.93   1
  11   3   2 4609.59 1778.02   1
 -11   0  -4 6357.35 2103.16   1
  11   0   4 10322.5 1369.59   1
  -4   7   0 5081.32 2033.83   1
   4   7   0 1213.80 1753.00   1
  -3  -2 -11 58811.9 8054.16   1
  -3   2 -11 41811.3 6565.11   1
   8  -6  -4 18879.0 2785.62   1
  -8   6   4 18376.8 2516.34   1
   8   6  -4 17367.5 1952.43   1
   3   6  -8 1218.73 1525.25   1
   3  -6  -8 -1309.1 843.530   1
  -3   6   8 -1951.8 941.300   1
  -1   2 -12 4619.89 1678.28   1
  -1  -2 -12 -66.570 1322.44   1
  -1   2 -12 220.450 672.590   1
  -1  -2 -12 310.450 799.120   1
   1   2  12 6997.21 2810.81   1
  -9  -2  -6 -360.46 1218.55   1
  -9   2  -6 1892.19 1588.29   1
  -9  -2  -6 414.210 530.500   1
   9   2   6 2498.46 1065.39   1
   9  -2   6 6696.60 2370.75   1
  14   0  -5 0.69000 1522.55   1
  14   0  -5 1487.85 886.580   1
  -5   4  -8 -1091.3 1874.79   1
   5   4   8 1893.53 1243.67   1
  -5  -4  -8 6290.87 1984.03   1
   5   4   8 3174.74 2135.39   1
  -5  -4  -8 5480.01 1778.31   1
   0   7  -4 4543.28 1658.54   1
   0  -7  -4 5491.15 1609.80   1
   0   7   4 -671.93 1191.57   1
   4   7  -3 7720.55 2818.86   1
  -4   7   3 10476.6 1721.35   1
   4  -7  -3 12394.1 1990.17   1
  -2   5  10 12170.6 1630.05   1
   2  -5 -10 11714.7 1359.65   1
   2  -5 -10 9845.63 2653.70   1
   2   5 -10 10951.5 2423.10   1
   3  -7  -4 14787.3 1545.48   1
  -3   7   4 18896.2 2354.86   1
 -13   2   8 2382.23 859.460   1
  13  -2  -8 2987.21 1982.50   1
  13   2  -8 454.890 1461.12   1
  13  -2  -8 4997.22 1760.65   1
   2   2 -13 8533.09 1591.83   1
   2  -2 -13 9484.58 1475.43   1
   2   2 -13 7652.85 2499.14   1
  -2   2  13 6514.12 2438.81   1
   2  -2 -13 6490.13 2362.16   1
  -3   5  -8 7309.08 2772.94   1
   3  -5   8 5272.22 1735.27   1
  -3  -5  -8 8210.06 4871.04   1
   3   5   8 9253.42 1505.82   1
   3   5   8 -1987.8 2137.86   1
  -3  -5  -8 9192.46 1193.98   1
 -12   2  10 27922.5 3550.96   1
  12  -2 -10 27752.2 2501.92   1
  12   2 -10 26811.2 3072.39   1
  12   2 -10 17142.1 2505.76   1
  12  -2 -10 18351.3 2526.97   1
 -12  -2  10 22557.5 3931.94   1
   2   6  -8 -150.10 1572.55   1
   2  -6  -8 1189.70 936.210   1
  -2   6   8 1118.36 1102.20   1
  11  -3 -10 8005.64 2497.33   1
  11  -3 -10 3465.23 1292.35   1
 -11   3  10 7271.90 2494.44   1
 -11  -3  10 7020.20 2603.54   1
  11   3 -10 5998.48 1932.39   1
  11   3 -10 4321.89 1951.49   1
 -12   0  11 -564.40 903.260   1
  12   0 -11 61.6300 1036.59   1
  12   0 -11 -1327.8 1437.01   1
  12   0 -11 -258.35 876.670   1
  -4   6   8 1939.71 1592.04   1
   4   6  -8 665.580 1328.79   1
   4  -6  -8 3714.30 1765.20   1
 -14   0   6 23254.4 2728.71   1
  14   0  -6 20638.3 2545.43   1
  14   0  -6 32302.0 3149.49   1
  11  -4   0 2696.05 892.290   1
  11  -4   0 1085.16 909.840   1
 -11   4   0 -2011.0 1338.63   1
  11   4   0 -258.54 500.100   1
  11   4   0 -2317.4 1446.99   1
  14   0  -4 12677.6 1822.22   1
  14   0  -4 16673.7 2998.18   1
  -6   2  -9 5710.98 2027.15   1
  -6  -2  -9 1449.12 872.320   1
  -6   2  -9 5075.57 2040.23   1
   6  -2   9 1467.92 1152.23   1
   6   2   9 2727.41 1038.49   1
  -6  -2  -9 4170.46 1325.04   1
 -10   5   6 920.350 823.970   1
  10  -5  -6 4563.00 1581.42   1
  10   5  -6 4690.76 2170.93   1
  -3   7  -2 8332.00 4893.51   1
  -3   7  -2 9611.52 1376.23   1
   3   7   2 6209.32 2365.19   1
   9  -1 -13 7280.69 2481.10   1
   9   1 -13 6294.23 2256.33   1
   9   1 -13 6922.96 2651.05   1
   9   1 -13 9867.70 2086.79   1
   9  -1 -13 9488.57 1584.69   1
  -9   1  13 7847.71 2549.97   1
 -10   3  11 8942.94 1859.69   1
  10   3 -11 3313.37 1691.99   1
  10  -3 -11 3591.29 1342.96   1
  10   3 -11 7967.81 2989.34   1
  -2   4 -10 2796.39 1027.93   1
  -2   4 -10 263.080 618.080   1
  -2  -4 -10 517.630 691.650   1
   2   4  10 4184.98 2213.90   1
   2   4  10 -147.27 920.450   1
  -2  -4 -10 1820.55 1239.04   1
  -6   6  -3 4407.37 1585.26   1
   6  -6   3 13829.8 1351.53   1
  -6   6  -3 10133.5 2782.39   1
  -6  -6  -3 16993.0 1650.42   1
   6   6   3 8678.71 3129.65   1
   6   6   3 11325.5 1380.66   1
  -2   7  -3 2760.81 1143.29   1
   2   7   3 854.750 1533.17   1
  -2   7  -3 3447.72 1317.01   1
 -11   0  12 25820.1 2549.28   1
  11   0 -12 28807.7 3167.16   1
  11   0 -12 23862.7 4526.81   1
  11   0 -12 22490.5 2458.17   1
  10   2 -12 24192.4 2549.77   1
  10   2 -12 25822.2 2246.20   1
 -10   2  12 28249.3 4163.43   1
  10   2 -12 18655.1 4402.89   1
  10  -2 -12 23808.5 4712.75   1
  10  -2 -12 27588.6 2952.87   1
  13  -1   0 1440.60 1622.02   1
  13   1   0 3430.68 1095.25   1
  13  -1   0 496.400 557.270   1
  13   1   0 2418.93 1367.12   1
  10  -5  -1 525.300 432.140   1
 -10   5   1 2117.03 1266.29   1
  10   5  -1 -608.20 1194.45   1
 -11   4   8 15811.7 2190.82   1
  11  -4  -8 13264.3 1582.60   1
  11  -4  -8 18050.1 1883.02   1
  11   4  -8 14064.8 2487.17   1
  -8   6   1 2994.91 1131.32   1
   8  -6  -1 1655.03 939.240   1
   8   6  -1 238.150 1149.94   1
  -3   6  -6 1086.10 1612.01   1
   3   6   6 1588.82 1076.53   1
  -3  -6  -6 864.770 507.160   1
   3   6   6 -1531.8 1761.14   1
  -3  -6  -6 3961.83 1229.41   1
  -9   5   8 8076.04 4828.69   1
   9  -5  -8 11657.6 1266.20   1
   9   5  -8 7469.11 2691.56   1
 -12   3   0 -3400.1 1568.67   1
  12  -3   0 -2060.5 809.880   1
  12  -3   0 -245.73 791.370   1
  12   3   0 1457.91 1437.71   1
  12   3   0 665.030 635.180   1
  -4   0 -11 729.680 1018.26   1
  -4   0 -11 -443.03 1354.72   1
  -2  -1 -12 19503.1 2562.09   1
  -2   1 -12 19451.3 2010.70   1
  -2   1 -12 6623.20 2447.38   1
  -2  -1 -12 19676.5 1880.90   1
  -2   3 -11 3049.68 1662.45   1
  -2   3 -11 -44.710 639.030   1
  -2  -3 -11 2390.17 870.370   1
   2   3  11 9585.63 3064.62   1
  -2  -3 -11 164.890 741.270   1
   8  -5  -9 12441.3 1417.00   1
  -8   5   9 9353.26 2274.69   1
   8   5  -9 10143.1 1383.32   1
  11  -1   4 4797.26 1527.38   1
  11  -1   4 6739.70 2044.30   1
 -11  -1  -4 66.9500 771.810   1
  11   1   4 -3135.9 1372.42   1
 -11   1  -4 2819.63 1332.31   1
   6   5 -10 6251.62 2360.62   1
   6   5 -10 1278.71 730.090   1
  -6   5  10 3744.26 1738.08   1
   6  -5 -10 3007.40 1133.57   1
  13  -2  -1 3125.79 1067.09   1
  13   2  -1 1018.76 1490.51   1
 -13   2   1 625.560 2059.58   1
  13  -2  -1 1310.92 1597.27   1
  13   2  -1 2458.33 930.860   1
   8  -6  -5 6250.15 2006.05   1
  -8   6   5 6751.90 2306.76   1
   8   6  -5 4745.97 1738.76   1
   0   0 -13 1227.94 784.290   1
   0   0 -13 4925.56 1713.08   1
  14  -1  -5 7615.28 2325.42   1
  14   1  -5 9436.68 1814.91   1
  14   1  -5 8983.70 1480.39   1
 -14   1   5 10527.2 2157.53   1
  14  -1  -5 4560.10 2091.61   1
   8   2 -13 8305.48 5043.47   1
   8  -2 -13 8632.73 1518.85   1
   8   2 -13 9220.73 1266.29   1
  -8   2  13 10599.8 1559.05   1
   8  -2 -13 7304.32 2818.70   1
  -8   4  11 9430.73 1568.32   1
   8   4 -11 5725.33 2362.59   1
   8  -4 -11 6144.18 2140.45   1
   8   4 -11 7985.76 2897.55   1
   1   6  -8 8475.53 2407.65   1
   1  -6  -8 361.370 767.390   1
   1  -6  -8 2289.95 1597.52   1
  -1   6   8 2186.01 1466.35   1
  -4   7  -1 87112.4 49741.6   1
   4   7   1 83342.5 7031.30   1
  10  -3   4 410.730 473.010   1
 -10   3  -4 -488.65 1636.73   1
 -10   3  -4 -639.07 1190.19   1
  10   3   4 -2025.8 1380.46   1
 -10  -3  -4 1434.95 1226.03   1
  10  -3   4 759.660 562.380   1
  -9   4  -4 3288.06 1538.10   1
  -9   4  -4 1238.96 1166.53   1
   9  -4   4 721.190 673.210   1
   9  -4   4 -1754.5 890.350   1
  -9  -4  -4 1333.84 1524.04   1
   9   4   4 2387.57 972.700   1
  12   1 -11 41858.2 3748.42   1
 -12  -1  11 38466.9 4211.76   1
  12   1 -11 42621.5 3363.48   1
  12  -1 -11 45497.9 6938.24   1
  12   1 -11 37927.3 5947.84   1
  12  -1 -11 45794.3 4019.63   1
 -12   1  11 47932.2 6039.75   1
  14   0  -7 -1899.9 774.350   1
 -14   0   7 -391.23 1192.61   1
  14   0  -7 1695.32 1872.32   1
   1   7   4 3204.24 1794.16   1
  -1   7  -4 4228.01 1998.78   1
  -1  -7  -4 7287.51 3155.12   1
  -5   6   8 4977.40 2306.55   1
   5  -6  -8 9042.67 1878.64   1
   5   6  -8 10779.8 2223.54   1
 -14   1   6 4740.37 2070.28   1
  14  -1  -6 1286.11 1828.51   1
  14   1  -6 6368.83 3700.74   1
  14  -1  -6 2734.25 1521.34   1
  14   1  -6 2324.80 941.010   1
   0   4 -11 17345.2 3670.26   1
   0   4  11 12270.8 2735.27   1
   0  -4 -11 12852.0 2562.10   1
   0  -4 -11 15984.2 2672.61   1
  14   0  -3 129.140 1625.28   1
  14   0  -3 998.510 704.440   1
  14   1  -4 7903.86 2144.30   1
  14  -1  -4 6127.86 2688.69   1
  14  -1  -4 14607.0 2970.25   1
  14   1  -4 14541.1 2933.02   1
 -14   1   4 18796.8 4020.47   1
   4  -7  -4 5412.54 2119.42   1
  -4   7   4 -1418.7 1128.24   1
   5   0 -14 -1744.6 1563.07   1
   5   0 -14 -421.64 886.950   1
   1   5 -10 1808.97 1200.32   1
   1  -5 -10 851.140 599.120   1
  -1   5  10 5741.07 2721.50   1
   1  -5 -10 -1489.8 867.970   1
  11   1 -12 18555.5 3417.64   1
  11  -1 -12 10731.1 1924.10   1
  11  -1 -12 27614.2 4554.69   1
  11   1 -12 22603.3 5193.78   1
 -11  -1  12 21821.3 4463.03   1
 -11   1  12 29466.5 5492.58   1
  11  -1 -12 26835.5 4289.56   1
  11   1 -12 32172.8 5116.15   1
 -10   2  -5 1778.93 1620.73   1
 -10  -2  -5 4680.61 2261.43   1
  10  -2   5 1287.48 936.590   1
  10  -2   5 -1559.7 1471.32   1
  10   2   5 1274.51 901.110   1
 -10  -2  -5 -1282.6 781.040   1
  13  -3  -5 8891.54 1997.99   1
  13  -3  -5 16529.0 3355.90   1
 -13   3   5 19895.3 4050.01   1
  13   3  -5 12297.4 3147.62   1
  13   3  -5 12933.1 2467.20   1
   6   0 -14 50690.6 7733.05   1
   6   0 -14 42132.6 6394.26   1
  12  -4  -4 2237.21 888.390   1
 -12   4   4 3542.68 1781.47   1
  12  -4  -4 2240.34 1171.37   1
  12   4  -4 1103.70 1854.60   1
  12   4  -4 1592.66 1021.16   1
 -13   3   4 4520.77 2022.85   1
  13  -3  -4 647.380 1177.62   1
  13  -3  -4 5811.59 2451.24   1
  13   3  -4 5093.73 2442.78   1
  13   3  -4 2862.59 1170.22   1
  -4  -1 -11 20449.5 4286.70   1
  -4   1 -11 19502.0 3901.47   1
  -4   1 -11 18518.5 3118.06   1
  -4  -1 -11 21248.9 3627.38   1
  -5   7   2 1501.79 978.430   1
   5  -7  -2 1446.38 955.220   1
   5   7  -2 3132.22 1889.53   1
  -4   4  -9 -1362.0 712.550   1
  -4   4  -9 1422.91 1976.43   1
  -4  -4  -9 1662.91 1129.83   1
   4   4   9 -187.25 570.760   1
  -4  -4  -9 -2084.0 899.390   1
   4   4   9 -228.32 2062.15   1
  12  -4  -5 30068.0 4674.01   1
 -12   4   5 26493.9 4804.58   1
  12  -4  -5 41631.9 6236.13   1
  12   4  -5 33592.0 5332.58   1
   4   0 -14 24787.6 4826.14   1
   4   0 -14 22156.3 3994.07   1
   0   3 -12 8832.93 2124.46   1
   0   3 -12 10422.3 1751.93   1
   0  -3 -12 11449.2 2023.74   1
   0   3  12 6867.77 3128.79   1
   0  -3 -12 6802.43 2755.78   1
  12  -3  -9 295.890 992.930   1
  12  -3  -9 938.340 824.560   1
 -12   3   9 -1229.2 1133.45   1
  12   3  -9 115.310 1597.76   1
 -13   0  10 22224.1 4744.79   1
  13   0 -10 20946.2 3520.17   1
  13   0 -10 21825.6 3514.79   1
   2   7  -5 2495.84 1333.71   1
  -2   7   5 5343.96 2582.96   1
   2  -7  -5 6214.98 2485.56   1
  -4  -3 -10 2630.03 1175.01   1
  -4   3 -10 670.870 899.400   1
   4   3  10 -108.69 1215.82   1
  -4  -3 -10 2978.43 1614.17   1
  -4   3 -10 6195.73 3202.51   1
   4   3  10 555.070 1629.81   1
   5  -7  -1 -13.860 507.980   1
   5   7  -1 3879.47 2928.88   1
  -7   6   7 10901.3 2348.07   1
   7  -6  -7 2547.47 1281.48   1
   7   6  -7 6605.00 2833.40   1
   0   1 -13 11801.9 2162.09   1
   0  -1 -13 19715.9 3824.14   1
   0   1  13 10257.4 2159.74   1
   0   1 -13 13230.5 2875.52   1
   0  -1 -13 14812.0 4115.80   1
  -7   6  -2 8044.43 1952.48   1
   7  -6   2 10584.8 1852.58   1
  -7   6  -2 13093.8 2463.39   1
  -7  -6  -2 13459.7 2307.51   1
   7   6   2 9881.60 1948.71   1
   7   6   2 14713.3 3793.01   1
  -8   0  -8 6882.30 2790.70   1
   8   0   8 4583.52 2107.06   1
  -8   0  -8 3877.80 1891.47   1
   1   7  -5 639.360 846.140   1
   1  -7  -5 541.670 671.980   1
  -1   7   5 5464.04 2306.42   1
  -9   5  -2 7572.24 1919.31   1
  -9   5  -2 5188.12 2215.03   1
   9  -5   2 5224.34 2041.48   1
  -9  -5  -2 7469.96 1510.52   1
   9   5   2 9156.83 1720.81   1
  13  -3  -6 1220.94 791.680   1
 -13   3   6 2326.19 968.990   1
  13  -3  -6 1272.28 1228.58   1
  13   3  -6 2851.13 2760.59   1
  13   3  -6 -189.74 456.820   1
  -5   2 -10 -1788.9 2008.88   1
  -5  -2 -10 742.340 1364.87   1
  -5   2 -10 2229.25 1263.14   1
   5   2  10 3662.93 1687.71   1
  -5  -2 -10 -181.36 792.280   1
  12  -4  -3 1158.64 848.250   1
  12  -4  -3 -897.11 975.950   1
 -12   4   3 121.830 1378.36   1
  12   4  -3 309.240 263.270   1
  12   4  -3 1809.81 1249.55   1
   8  -6   0 1065.36 675.430   1
  -8   6   0 2789.67 1521.09   1
   8   6   0 -793.59 953.550   1
  -5   7   3 9865.14 2017.41   1
   5  -7  -3 7453.44 1511.89   1
   5   7  -3 4541.39 2498.93   1
  10  -5  -7 -564.93 659.050   1
 -10   5   7 211.200 662.060   1
  10   5  -7 402.060 1334.99   1
  -1   2  13 2282.41 1640.32   1
   1   2 -13 3060.63 1278.36   1
   1   2 -13 1242.95 930.700   1
   1  -2 -13 412.050 827.080   1
   1  -2 -13 -73.340 1182.85   1
  14   1  -7 15386.9 3706.36   1
  14  -1  -7 24219.5 3799.39   1
  14   1  -7 20252.5 4018.69   1
  14  -1  -7 19757.3 3544.66   1
 -14   1   7 19651.0 3951.17   1
  -3   7   5 31979.8 5058.03   1
   3  -7  -5 41258.0 6323.43   1
  14  -1  -3 2691.38 1155.05   1
  14  -1  -3 -88.390 1451.45   1
  14   1  -3 2227.34 1029.42   1
  14   1  -3 1418.33 857.940   1
 -14   1   3 1364.10 2220.94   1
   9   3 -12 19479.7 3948.71   1
   9   3 -12 17110.7 3227.23   1
   9  -3 -12 16932.8 3076.14   1
  -9   3  12 17688.1 3594.21   1
   9  -3 -12 17816.6 3286.25   1
  -9   0  -7 2199.34 1032.13   1
   9   0   7 -1354.6 1363.68   1
  -9   0  -7 -882.91 1245.35   1
  -2   6  -7 5180.26 2725.94   1
  -2  -6  -7 2395.62 1149.45   1
  -2  -6  -7 1971.87 1103.71   1
   2   6   7 4018.94 2316.98   1
  -5   1  14 28238.4 4247.59   1
   5  -1 -14 20238.8 5144.95   1
   5   1 -14 30165.6 4577.12   1
   5  -1 -14 28085.8 4923.29   1
   5   1 -14 24971.9 6878.99   1
  10   0 -13 -1204.2 952.070   1
  10   0 -13 2524.02 1695.62   1
  10   0 -13 1720.93 1648.87   1
 -10   0  13 423.360 497.560   1
  13  -3  -3 -411.98 1074.84   1
 -13   3   3 891.030 865.020   1
  13  -3  -3 -378.51 898.970   1
  13   3  -3 6811.27 2998.85   1
  13   3  -3 1556.73 953.600   1
  -6   5  -6 11434.0 2650.06   1
   6   5   6 5835.57 3511.25   1
   6   5   6 13648.6 3329.79   1
   6  -5   6 9569.47 2391.16   1
  -6  -5  -6 10508.9 1971.80   1
   6  -5   6 14292.0 2915.41   1
   7   0 -14 16921.2 3090.35   1
   7   0 -14 16241.7 4128.66   1
 -12   4   6 6970.57 2863.31   1
  12  -4  -6 2000.00 1101.62   1
  12  -4  -6 5274.39 2237.38   1
  12   4  -6 2079.76 1965.45   1
 -12   2  -2 2752.66 1602.93   1
  12   2   2 3727.75 1524.48   1
  12  -2   2 2417.54 1057.33   1
  12  -2   2 2353.49 1043.36   1
  12   2   2 -1213.0 761.250   1
   7   0   9 1572.43 1220.56   1
  -7   0  -9 1010.03 1124.49   1
  -7   0  -9 -265.95 1243.22   1
   6   1 -14 227.090 1096.88   1
  -6   1  14 1417.65 1149.61   1
   6  -1 -14 2892.61 1803.41   1
   6  -1 -14 1837.09 1329.23   1
   6   1 -14 2739.83 1239.64   1
 -10   5   0 21344.4 4739.86   1
  10  -5   0 25594.7 5032.33   1
  10   5   0 25438.8 4078.99   1
   7  -5 -10 2395.66 1166.65   1
  -7   5  10 6966.23 2897.07   1
   7   5 -10 916.060 1370.08   1
  13  -2  -9 10429.9 1970.65   1
  13   2  -9 7006.28 2999.43   1
  13  -2  -9 1363.81 1382.44   1
 -13  -2   9 4354.46 1871.69   1
  13   2  -9 7551.91 1340.50   1
 -13   2   9 7645.49 2227.19   1
   4   4 -12 4719.07 2338.88   1
   4  -4 -12 9006.05 1949.68   1
  -4   4  12 6932.15 2919.94   1
   4  -4 -12 5587.66 2369.65   1
   0   6  -8 2456.14 1752.58   1
   0   6   8 1796.03 2089.52   1
   0  -6  -8 4818.14 1993.25   1
   0  -6  -8 574.700 743.530   1
  -8   6   6 17292.2 3206.70   1
   8  -6  -6 23601.6 4169.17   1
   8   6  -6 23975.7 3960.09   1
   3   7   3 2037.48 2385.74   1
  -3   7  -3 932.740 1203.51   1
  -3   7  -3 -680.54 756.390   1
   5  -3 -13 -375.66 1479.48   1
   5  -3 -13 2394.14 1365.84   1
  -5   3  13 3427.46 1667.12   1
   5   3 -13 3376.39 1577.61   1
  -2   5  -9 9283.33 2157.60   1
   2   5   9 11065.7 2978.80   1
  -2  -5  -9 8253.12 1800.29   1
  -2  -5  -9 3202.60 1594.83   1
   2   5   9 6692.47 2618.09   1
  -5   4  12 35350.2 5397.25   1
   5   4 -12 26036.1 5428.50   1
   5  -4 -12 34612.9 6779.09   1
   5  -4 -12 28635.2 4558.69   1
   7  -5   5 -1070.3 593.560   1
   7  -5   5 674.880 941.780   1
  -7   5  -5 2687.97 1643.44   1
  -7   5  -5 -593.84 969.740   1
   7   5   5 2220.28 1047.28   1
  -7  -5  -5 834.780 838.610   1
  -5   7   0 3962.12 1629.72   1
   5  -7   0 288.200 277.100   1
   5   7   0 3338.65 1955.71   1
   4   1 -14 6138.19 2341.23   1
  -4   1  14 4099.84 1856.45   1
   4  -1 -14 8356.49 1786.44   1
   4  -1 -14 8923.62 1999.53   1
   4   1 -14 6781.87 2962.96   1
   3   0 -14 1900.92 1732.84   1
   3   0 -14 5950.19 2434.56   1
  13   1 -10 -691.28 1494.89   1
  13  -1 -10 -4218.1 1378.37   1
  13   1 -10 126.690 985.630   1
 -13  -1  10 -696.80 928.370   1
 -13   1  10 821.340 739.120   1
  13  -1 -10 807.830 606.100   1
  13   1 -10 1083.85 856.320   1
 -10   4  10 1181.63 837.300   1
  10  -4 -10 1597.24 1060.12   1
  10   4 -10 -1953.1 1441.20   1
  14   0  -8 5378.72 2199.37   1
  14   0  -8 12417.3 2753.72   1
 -14   0   8 9815.64 2050.77   1
   4   3 -13 2786.74 1977.66   1
   4  -3 -13 -1210.7 967.860   1
  -4   3  13 1832.24 1139.11   1
   4   3 -13 -197.70 544.960   1
   4  -3 -13 2152.73 1219.42   1
  -6   6   8 1746.04 1381.35   1
   6  -6  -8 699.650 626.920   1
   6   6  -8 1393.86 1071.26   1
  -5   5  -7 3471.57 2576.03   1
   5  -5   7 1258.98 977.830   1
   5  -5   7 2148.10 950.660   1
  -5  -5  -7 -91.430 626.030   1
   5   5   7 4766.50 2782.67   1
   5   5   7 -247.24 1050.11   1
   0   7  -5 1730.42 1301.06   1
   0   7   5 -1685.3 1089.72   1
   0  -7  -5 1933.82 960.570   1
  14   0  -2 -42.330 1123.20   1
  14   0  -2 -1298.5 789.340   1
 -13   0  -1 -1848.2 713.890   1
  13   0   1 1411.67 937.820   1
  13   0   1 -1519.7 1016.53   1
  12   0   3 815.940 723.460   1
  12   0   3 -953.04 917.330   1
 -12   0  -3 2877.06 1614.97   1
  -8  -1  -8 -2216.4 1071.35   1
  -8   1  -8 3379.46 1695.50   1
   8  -1   8 4127.29 1822.29   1
   8   1   8 3527.69 1693.00   1
  -8  -1  -8 2492.05 1615.87   1
  -8   1  -8 6270.67 2717.34   1
  -4   7  -2 13361.7 3231.52   1
   4   7   2 16034.1 3388.52   1
  -4   7  -2 15383.2 2552.49   1
  -2  -7  -4 1038.22 686.290   1
  -2   7  -4 2269.12 1227.49   1
   2   7   4 3608.81 1912.61   1
  -6   3  13 8654.21 1825.78   1
   6  -3 -13 9069.18 1982.24   1
   6  -3 -13 1412.26 1506.41   1
   6   3 -13 15260.9 3062.37   1
  11  -4   1 4355.68 1791.61   1
  11  -4   1 -202.20 733.650   1
 -11   4  -1 1838.15 1210.92   1
 -11   4  -1 1888.94 1064.83   1
  11   4   1 1838.69 924.630   1
  11   4   1 38.6200 826.790   1
  -3   4  12 -2585.8 1078.23   1
   3   4 -12 -1590.7 1635.58   1
   3  -4 -12 16851.7 4320.23   1
   3  -4 -12 2382.04 1358.45   1
   5  -7  -4 6369.67 2601.64   1
  -5   7   4 11110.7 2499.41   1
 -13   3   7 6476.63 2780.71   1
  13  -3  -7 7069.67 3246.08   1
  13  -3  -7 9395.25 1745.01   1
  13   3  -7 7287.27 3868.65   1
  13   3  -7 4772.95 2166.31   1
   9  -1   7 12095.6 2301.55   1
  -9   1  -7 10623.7 2325.59   1
  -9  -1  -7 14798.3 2524.95   1
  -9   1  -7 14459.4 2949.79   1
  -9  -1  -7 11466.4 2558.17   1
   9   1   7 10241.3 2064.94   1
 -12   4   2 3431.26 1626.87   1
  12  -4  -2 -88.970 896.170   1
  12  -4  -2 2228.59 907.150   1
  12   4  -2 2377.72 1043.45   1
  12   4  -2 3152.49 1788.91   1
   4  -7  -5 3377.07 1451.61   1
  -4   7   5 3676.16 1725.02   1
   9   2 -13 8559.60 2127.75   1
  -9   2  13 5558.30 2405.53   1
   9  -2 -13 8683.07 3271.09   1
   9   2 -13 2005.63 1543.02   1
   9   2 -13 6561.48 2635.61   1
   9  -2 -13 4899.35 2267.95   1
  10   1 -13 5764.98 2654.46   1
 -10   1  13 5243.07 2094.80   1
  10  -1 -13 1845.65 1364.51   1
  10   1 -13 10032.2 2451.84   1
  10  -1 -13 3621.53 1600.62   1
  10   1 -13 8707.69 1773.23   1
  -6   4  12 12904.3 2562.29   1
   6  -4 -12 12013.9 2331.72   1
   6  -4 -12 11468.4 2086.63   1
   6   4 -12 11908.6 3148.45   1
 -10   0  -6 517.080 1295.08   1
  10   0   6 -393.06 1452.58   1
 -10   0  -6 2543.38 1466.07   1
   0   5 -10 15796.1 3259.59   1
   0   5  10 21302.7 3974.61   1
   0  -5 -10 25436.3 4039.34   1
   0  -5 -10 20189.8 4272.49   1
  -7   1  14 2689.55 1148.30   1
   7   1 -14 4775.75 2249.05   1
   7  -1 -14 -514.65 1410.03   1
   7   1 -14 1701.73 1176.35   1
   7  -1 -14 2630.59 1875.25   1
  -7  -1  -9 16075.0 3757.11   1
   7   1   9 15993.9 3433.39   1
   7  -1   9 18416.1 3175.97   1
  -7   1  -9 17308.3 3066.85   1
  -7  -1  -9 13293.8 2221.42   1
  -7   1  -9 27450.9 5823.60   1
 -10   4  -3 5843.57 2464.29   1
  10  -4   3 5639.54 2211.28   1
  10  -4   3 3038.48 1182.32   1
 -10   4  -3 8820.16 2503.26   1
  10   4   3 2151.90 1327.67   1
 -10  -4  -3 2395.87 1252.19   1
  11  -4  -9 13647.6 3737.80   1
 -11   4   9 17375.8 3738.18   1
  11  -4  -9 7011.52 2799.90   1
  11   4  -9 14321.5 2952.97   1
  13   2   0 19056.4 4492.26   1
 -13   2   0 17409.9 3916.01   1
  13  -2   0 20000.2 3315.34   1
  13   2   0 9886.02 2227.40   1
  13  -2   0 21311.7 3936.42   1
  -2   2 -12 5984.21 2858.86   1
   2   2  12 8942.58 2757.65   1
  -2   2 -12 10176.8 1795.15   1
  -2  -2 -12 8512.15 1692.05   1
  -2  -2 -12 13511.5 2674.16   1
   3   3 -13 -2618.8 1569.16   1
   3  -3 -13 3067.64 1378.10   1
  -3   3  13 -404.37 1015.31   1
   3   3 -13 404.750 554.270   1
   3  -3 -13 675.960 1009.48   1
   5  -6   5 12350.7 2900.60   1
   5   6   5 9039.76 2396.42   1
  -5   6  -5 18784.4 3320.64   1
   5   6   5 18566.6 3262.70   1
  -5  -6  -5 17036.6 2647.73   1
 -12   3  -1 5920.91 2722.18   1
  12  -3   1 -372.89 719.920   1
  12  -3   1 1192.20 943.240   1
 -12   3  -1 -912.43 5803.58   1
  12   3   1 1335.83 843.220   1
  12   3   1 3747.13 1894.47   1
 -13   3   2 12637.6 2766.14   1
  13  -3  -2 12542.9 2258.70   1
  13  -3  -2 13750.7 2880.88   1
  13   3  -2 10153.2 2037.55   1
  13   3  -2 10538.3 2109.93   1
   3   1 -14 -722.21 600.360   1
   3  -1 -14 1495.30 1234.70   1
   3   1 -14 6324.53 2813.12   1
   3  -1 -14 836.940 783.540   1
  -3   1  14 -626.63 949.450   1
 -11   2  -4 4009.17 1926.17   1
  11   2   4 2777.58 1281.64   1
  11  -2   4 715.810 1449.43   1
  11  -2   4 -247.45 882.330   1
   8  -5   4 10308.8 2240.58   1
  -8   5  -4 8016.32 2307.83   1
  -8   5  -4 6829.32 3183.89   1
   8   5   4 4247.04 1678.04   1
  -8  -5  -4 7272.90 3231.41   1
  14   1  -8 -347.93 650.260   1
  14  -1  -8 1892.38 1230.95   1
 -14   1   8 10741.1 2806.17   1
  14   1  -8 2815.09 2566.59   1
  14  -1  -8 -582.76 1406.40   1
 -14  -1   8 -2159.7 1444.30   1
   9  -4 -11 8801.01 1890.87   1
  -9   4  11 22332.8 4471.30   1
   9   4 -11 7984.01 2235.74   1
   9   4 -11 4163.26 2097.87   1
  -6   0 -10 3425.99 1929.87   1
  -6   0 -10 418.040 995.730   1
   6   0  10 -166.42 1216.04   1
  14   1  -2 6090.40 3090.25   1
  14  -1  -2 8108.18 1534.51   1
  14   1  -2 7491.68 1654.34   1
  14  -1  -2 6499.68 2721.55   1
   8   0 -14 9965.68 2651.97   1
   8   0 -14 12781.7 2407.44   1
 -13   1  -1 16270.4 3109.36   1
  13   1   1 15807.7 3492.87   1
  13   1   1 15475.0 3442.46   1
  13  -1   1 17920.8 3877.98   1
  13  -1   1 13713.8 3011.07   1
  14  -2  -5 1584.68 992.560   1
  14   2  -5 1796.70 1113.26   1
  14  -2  -5 2490.30 1608.65   1
  14   2  -5 452.710 1617.57   1
 -14   2   5 2967.33 1436.02   1
 -11   3  -3 -922.62 980.640   1
  11  -3   3 3161.56 1285.99   1
  11  -3   3 1980.09 864.350   1
 -11   3  -3 4869.39 2394.57   1
  11   3   3 5505.53 2337.09   1
 -12   4   7 -727.86 1278.31   1
  12  -4  -7 3506.39 1729.98   1
  12  -4  -7 336.650 405.560   1
  12   4  -7 -110.12 1505.75   1
  12  -1   3 22996.5 5191.35   1
  12  -1   3 26706.4 4739.29   1
  12   1   3 23821.1 5228.20   1
  12   1   3 24427.0 5032.86   1
 -12   1  -3 20672.0 3306.23   1
 -12  -1  -3 15370.4 2456.49   1
   9  -5  -9 2095.96 1087.02   1
  -9   5   9 799.520 737.040   1
   9   5  -9 19.4600 1063.63   1
  -6   6  -4 2478.20 1172.29   1
  -6   6  -4 -268.80 1138.97   1
   6  -6   4 2249.34 944.390   1
   6   6   4 3877.63 1665.17   1
   6   6   4 10319.3 3373.84   1
  -6  -6  -4 2395.15 1025.45   1
  -3   0 -12 697.580 989.250   1
  -3   0 -12 3000.47 1464.52   1
  -1   4 -11 4443.74 2059.52   1
  -1   4 -11 -489.75 664.160   1
  -1  -4 -11 -695.86 1025.15   1
  -1  -4 -11 500.290 742.140   1
   1   4  11 24919.4 14265.6   1
   9  -6  -3 39845.7 5908.65   1
  -9   6   3 40641.5 7923.24   1
   9   6  -3 36118.7 5696.81   1
  11  -5  -4 7242.37 3247.15   1
 -11   5   4 3694.56 1747.78   1
  11   5  -4 -600.76 1505.12   1
  -5   7  -1 8823.46 2239.72   1
   5   7   1 14340.7 3721.20   1
  -4   6  -6 1811.48 1676.74   1
  -4  -6  -6 5625.40 2286.82   1
   4   6   6 7451.90 1435.45   1
   4   6   6 8190.11 3221.32   1
  12  -2 -11 2560.46 1544.96   1
  12   2 -11 1760.24 1199.17   1
  12   2 -11 1432.82 1653.22   1
  12   2 -11 797.830 1068.92   1
 -12   2  11 1633.84 1806.07   1
 -12  -2  11 -76.540 762.240   1
  12  -2 -11 -17.920 1295.77   1
   4  -5   8 1478.84 1063.94   1
  -4   5  -8 4714.00 2457.72   1
   4   5   8 2618.93 1397.68   1
  -4  -5  -8 2582.63 1178.59   1
  -4  -5  -8 1962.63 949.290   1
   4   5   8 3564.64 2468.63   1
  -8  -3  -7 3379.24 1504.34   1
  -8   3  -7 1066.47 1777.88   1
  -8  -3  -7 1185.10 1124.62   1
   8  -3   7 1100.22 780.990   1
   8   3   7 -2575.7 1494.92   1
   7   3 -13 785.740 999.130   1
   7  -3 -13 481.600 680.100   1
   7  -3 -13 -376.84 1028.52   1
  -7   3  13 1397.59 1494.76   1
  14   2  -6 9012.97 1968.74   1
  14  -2  -6 11278.0 2409.55   1
  14   2  -6 7360.07 2595.65   1
  14  -2  -6 4216.71 2015.11   1
 -14   2   6 11966.5 2940.90   1
  14   2  -4 1961.66 870.840   1
 -14   2   4 4912.60 2306.40   1
  14   2  -4 -861.79 1484.95   1
  14  -2  -4 -877.01 806.380   1
  14  -2  -4 3189.71 1783.23   1
  -3   4 -10 2422.49 1425.41   1
  -3   4 -10 278.140 610.410   1
   3   4  10 -410.83 1852.34   1
  -3  -4 -10 1122.81 693.150   1
  -3  -4 -10 2105.81 1387.94   1
   3   4  10 -479.04 902.500   1
  -1   0 -13 -476.65 803.690   1
  -1   0 -13 -509.32 1619.42   1
  -8   6  -1 -2337.2 961.350   1
   8  -6   1 1729.75 1014.00   1
   8   6   1 -284.37 1014.24   1
   9  -6  -4 11187.9 2298.38   1
  -9   6   4 6778.93 3031.69   1
   9   6  -4 7746.21 1819.26   1
   7   3   8 6181.86 2464.26   1
  -7   3  -8 7889.46 2324.71   1
  -7  -3  -8 8837.03 1691.45   1
   7  -3   8 8084.66 1977.24   1
  -7  -3  -8 19667.4 3351.16   1
 -10  -1  -6 1272.23 1426.01   1
  10   1   6 1864.06 1071.51   1
 -10  -1  -6 -227.71 1170.59   1
 -10   1  -6 867.650 1551.45   1
  -1   7  -5 10091.8 2068.11   1
  -1  -7  -5 12503.4 1971.17   1
   1   7   5 6509.98 2742.08   1
  11  -2 -12 15703.3 2659.60   1
  11   2 -12 13642.6 3297.72   1
 -11   2  12 16544.8 3456.51   1
  11   2 -12 12054.7 2160.23   1
  11   2 -12 8829.24 2008.86   1
  11  -2 -12 10724.5 2426.09   1
  -2   4  12 39.2500 1288.34   1
   2  -4 -12 -613.04 1236.16   1
   2  -4 -12 1812.88 1098.58   1
   2   4 -12 -1207.6 1564.94   1
  11  -3 -11 11738.5 2523.00   1
 -11   3  11 13264.5 3037.16   1
  11  -3 -11 9246.68 1768.47   1
  11   3 -11 8202.94 2398.16   1
   2   0 -14 34.3100 797.130   1
   2   0 -14 -15.590 1629.72   1
 -11   5   3 1851.89 947.440   1
  11  -5  -3 -2566.8 731.130   1
  11   5  -3 1256.20 1496.34   1
  11   5  -5 770.870 1439.39   1
 -11   5   5 2891.03 1263.92   1
   9   6  -2 17842.7 3279.00   1
  -9   6   2 20574.0 3737.96   1
   9  -6  -2 17164.7 2717.96   1
  -4  -2 -11 2681.85 1772.08   1
  -4   2 -11 10543.6 3186.41   1
  -4  -2 -11 5713.63 2407.61   1
  -4   2 -11 3015.54 1375.40   1
   6  -7  -2 -35.590 286.880   1
  -6   7   2 -895.71 1077.96   1
   6   7  -2 -1319.4 1540.08   1
   7  -4 -12 2861.19 1426.60   1
   7  -4 -12 -2223.3 1094.64   1
   7   4 -12 5436.20 2367.44   1
  -7   4  12 400.790 920.330   1
  -3   6   9 1551.58 998.170   1
   3   6  -9 -2919.4 1743.67   1
   3  -6  -9 1136.39 1170.45   1
  10  -5  -8 7523.20 1456.52   1
  10   5  -8 5847.76 2439.42   1
 -10   5   8 7265.20 3431.99   1
  -7   4  -7 5701.79 2698.41   1
   7  -4   7 3438.77 1476.95   1
   7   4   7 3569.64 1557.20   1
  -7  -4  -7 6643.28 2638.46   1
   7  -4   7 5223.29 2169.64   1
  -1   6  -8 5858.92 2594.72   1
  -1  -6  -8 11165.3 1888.10   1
   1   6   8 5981.76 3118.28   1
  -1  -6  -8 6499.91 2615.85   1
  -3   3 -11 3313.75 1618.91   1
  -3   3 -11 4200.84 2334.41   1
  -3  -3 -11 1976.47 1454.42   1
   3   3  11 -3848.7 2120.56   1
  -3  -3 -11 4466.72 1988.42   1
   4  -6  -9 731.170 1071.45   1
   4   6  -9 3603.14 1580.72   1
  -4   6   9 2955.45 1979.13   1
  -1   3 -12 39395.6 6412.95   1
  -1   3 -12 34017.2 10158.4   1
  -1  -3 -12 37546.9 7121.51   1
   1   3  12 38144.2 6818.90   1
  -6   1 -10 -5.3000 937.720   1
   6  -1  10 -236.35 965.680   1
  -6  -1 -10 1811.93 1443.41   1
   6   1  10 -480.84 1156.08   1
  -6   1 -10 3472.16 1625.79   1
  -6  -1 -10 761.110 1083.27   1
   8   1 -14 11892.2 2093.95   1
   8   1 -14 11034.6 2277.64   1
  -8   1  14 14878.6 2411.63   1
   8  -1 -14 13937.3 3111.41   1
   8  -1 -14 9811.41 1811.98   1
 -12   0  12 34810.6 5178.65   1
  12   0 -12 47133.8 7707.26   1
  12   0 -12 50033.9 7746.68   1
  12   0 -12 38364.3 5670.81   1
   0  -2 -13 2941.64 1520.91   1
   0   2 -13 2427.82 1162.36   1
   0  -2 -13 3588.39 1632.57   1
   0   2 -13 4209.00 1878.46   1
   0   2  13 2025.53 1657.34   1
  -9   3  -6 -1632.1 1330.07   1
   9  -3   6 -6.8600 943.510   1
   9  -3   6 3983.55 1838.91   1
   9   3   6 3515.91 1482.13   1
  -9  -3  -6 3196.24 1770.59   1
   6   7  -3 266.950 1132.48   1
  -6   7   3 2598.64 1266.93   1
   6  -7  -3 786.520 527.880   1
   2  -7  -6 2571.16 1374.58   1
   2   7  -6 -235.48 875.290   1
  -2   7   6 270.330 724.170   1
  -5   7   5 5223.38 2419.94   1
   5  -7  -5 4982.20 2095.02   1
   8  -6  -7 2172.78 1302.57   1
  -8   6   7 6607.04 2787.16   1
   4  -5 -11 18827.1 3070.55   1
   4  -5 -11 22182.5 9864.09   1
   4   5 -11 15808.0 3366.73   1
  -4   5  11 24745.9 3930.44   1
  -8   5  10 91078.7 13455.5   1
   8   5 -10 88703.1 13078.2   1
   8  -5 -10 98461.2 41474.5   1
  -3   1 -12 2559.97 1311.83   1
  -3  -1 -12 22502.1 5286.43   1
  -3   1 -12 -136.41 784.430   1
  -3  -1 -12 -796.49 813.260   1
   8   4   6 600.630 816.070   1
  -8  -4  -6 -231.16 972.430   1
   8  -4   6 -1209.7 870.200   1
  -8   4  -6 -452.10 1567.84   1
  -8   4  -6 1091.23 1066.37   1
   8  -4   6 2123.92 890.730   1
  14   0  -9 198.600 658.460   1
  14   0  -9 2280.64 1906.86   1
 -14   0   9 1597.65 1664.68   1
 -13   3   8 33664.0 7385.04   1
  13  -3  -8 47189.3 7122.59   1
  13   3  -8 51950.2 8043.25   1
  13   3  -8 48000.1 7059.17   1
  12   4  -1 1925.70 959.940   1
  12  -4  -1 3087.10 1268.61   1
  12   4  -1 2992.28 1721.99   1
  12  -4  -1 1804.24 1130.95   1
 -12   4   1 5793.38 2527.81   1
  -2   3  13 6309.59 2904.16   1
   2  -3 -13 11940.9 2595.94   1
   2  -3 -13 5424.44 2457.34   1
   2   3 -13 8401.00 1966.81   1
   2   3 -13 5970.14 2586.25   1
   6   7  -1 1278.27 2051.10   1
   6  -7  -1 5405.79 2069.31   1
  -6   7   1 8625.03 1960.14   1
  -7   6   8 4592.45 2007.32   1
   7   6  -8 4777.57 2399.81   1
   7  -6  -8 4757.83 2114.12   1
  -3   7   6 4235.99 2084.51   1
   3  -7  -6 5839.41 2398.35   1
  12  -3 -10 2754.63 1366.93   1
 -12   3  10 -7943.8 7596.23   1
 -12  -3  10 3936.45 1746.56   1
  12   3 -10 6350.11 2803.32   1
  12  -3 -10 1980.32 1139.67   1
  -9   6   5 18158.4 4489.73   1
   9  -6  -5 25194.1 3962.24   1
   9   6  -5 18778.9 3542.51   1
  -7  -6  -3 -106.70 583.980   1
   7  -6   3 1465.40 748.960   1
   7   6   3 1011.04 466.280   1
  -7   6  -3 -767.73 1147.42   1
  -7   6  -3 4125.92 1826.05   1
   7   6   3 1230.68 1772.76   1
  14   0  -1 -1051.8 717.320   1
  14   0  -1 -924.94 1235.51   1
  14  -2  -7 29762.6 4002.21   1
  14   2  -7 25028.6 3497.97   1
 -14   2   7 24113.8 4241.79   1
  14   2  -7 26890.3 4110.01   1
  14  -2  -7 17523.6 2822.05   1
   2  -6  -9 42850.8 5536.08   1
   2   6  -9 46650.6 8404.83   1
  -2   6   9 37607.3 5153.42   1
 -10   5  -1 4075.95 1552.02   1
  10  -5   1 5598.70 1486.19   1
  10   5   1 3560.86 1354.97   1
 -10   5  -1 1464.57 1255.67   1
  14  -2  -3 9100.50 1862.98   1
  14   2  -3 9395.73 1853.78   1
  14   2  -3 7727.77 1442.24   1
 -14   2   3 8088.39 2483.77   1
  14  -2  -3 6740.60 1527.62   1
  -1  -1 -13 963.050 878.050   1
  -1   1 -13 300.100 328.790   1
  -1  -1 -13 1118.92 953.510   1
  -1   1 -13 6920.64 1822.30   1
   6  -3   9 18329.4 2649.83   1
  -6   3  -9 17502.0 2700.17   1
   6   3   9 16643.8 3120.29   1
  -6  -3  -9 13751.7 2622.95   1
  -6   3  -9 20642.2 4089.47   1
  -6  -3  -9 17617.7 2463.73   1
 -11   0  -5 -225.35 1058.62   1
  11   0   5 2540.28 701.650   1
  -5   2  14 1191.98 1210.45   1
   5   2 -14 487.790 1009.32   1
   5   2 -14 1195.51 813.050   1
   5  -2 -14 -226.56 1043.01   1
   5  -2 -14 2577.97 1149.98   1
   6  -4   8 1919.06 1015.03   1
  -6   4  -8 6000.77 2194.68   1
  -6  -4  -8 5198.45 3652.40   1
   6   4   8 5417.83 1635.74   1
  -6  -4  -8 -852.89 763.020   1
   5  -5 -11 4054.68 1349.84   1
   5  -5 -11 1966.58 1258.68   1
  -5   5  11 2117.71 949.430   1
   3   5 -11 4525.87 2708.69   1
   3  -5 -11 418.610 617.910   1
   3  -5 -11 2917.79 1296.01   1
  -3   5  11 2880.61 1430.63   1
   1   7  -6 2657.87 1076.60   1
   1  -7  -6 5172.46 1297.54   1
  -1   7   6 5866.28 1985.70   1
 -11   5   2 6737.06 1698.93   1
  11  -5  -2 9894.27 1813.40   1
  11   5  -2 9066.16 1889.44   1
   2  -1 -14 976.830 993.760   1
   2   1 -14 1944.38 1107.67   1
  -2   1  14 1545.65 1306.16   1
   2  -1 -14 4079.96 1619.00   1
   2   1 -14 -578.00 1814.05   1
  10  -3 -12 13552.7 2493.44   1
  10   3 -12 4815.96 1796.23   1
 -10   3  12 5254.29 1652.00   1
  10   3 -12 6741.18 1953.01   1
  -3   6  -7 23228.3 3635.38   1
  -3  -6  -7 13100.3 2598.90   1
   3   6   7 13150.2 2512.44   1
  -3  -6  -7 18758.2 2548.96   1
   3   6   7 17001.1 4055.09   1
   6  -2 -14 1617.16 1277.96   1
   6   2 -14 4290.82 1493.57   1
   6  -2 -14 2267.04 1413.59   1
   6   2 -14 -239.16 901.660   1
  -6   2  14 3549.02 1359.75   1
 -11   5   6 -229.84 1171.92   1
  11   5  -6 1163.23 1399.61   1
  11  -5  -6 1297.00 1290.32   1
  -4   7  -3 -1391.5 836.750   1
  -4   7  -3 4756.57 1734.31   1
   4   7   3 -1595.2 1770.69   1
  13   0 -11 2071.81 770.940   1
  13   0 -11 982.820 1107.60   1
  13   0 -11 -1851.9 1196.05   1
 -13   0  11 4443.36 1307.17   1
   5  -6  -9 1927.95 1824.33   1
  -5   6   9 11124.3 2279.55   1
  -3   7  -4 -187.53 825.090   1
   3   7   4 5000.31 2051.88   1
   4  -2 -14 8093.72 2190.00   1
   4   2 -14 -105.30 1867.80   1
  -4   2  14 3155.82 1494.23   1
   4  -2 -14 1262.08 1108.33   1
   4   2 -14 4137.33 1267.48   1
  -9   6   1 2386.56 1330.76   1
   9   6  -1 2459.24 1455.46   1
   9  -6  -1 1079.82 522.220   1
 -13   2  10 -3801.2 1116.02   1
 -13  -2  10 4740.83 1413.91   1
  13   2 -10 -931.90 1554.05   1
  13  -2 -10 2071.88 702.390   1
  13   2 -10 2148.99 812.410   1
  13  -2 -10 -3190.7 1217.63   1
   9  -5   3 10652.4 1887.60   1
  -9   5  -3 4101.41 1558.43   1
  -9   5  -3 11123.8 2075.06   1
   9   5   3 10317.5 1713.85   1
  -9  -5  -3 12153.8 2069.57   1
  -6   7   4 2241.07 944.420   1
   6  -7  -4 -1342.4 699.180   1
  13   3  -1 25420.5 5007.16   1
  13  -3  -1 26853.0 4695.59   1
  13   3  -1 25440.4 3876.75   1
  13  -3  -1 21320.6 2929.24   1
 -13   3   1 28051.9 5276.36   1
 -12   1  12 13012.8 2253.21   1
 -12  -1  12 10379.1 1881.10   1
  12   1 -12 8884.08 1936.86   1
  12   1 -12 9160.16 1629.99   1
  12  -1 -12 11439.6 2137.51   1
  12  -1 -12 11928.4 2085.75   1
  12  -1 -12 -18265. 8350.55   1
  12   1 -12 11678.8 2504.01   1
   8  -3 -13 6336.27 3134.34   1
   8   3 -13 -741.56 2068.68   1
  -8   3  13 4797.54 1332.26   1
   8  -3 -13 7510.27 1901.92   1
  -4   7   6 3647.86 1244.56   1
   4  -7  -6 8685.42 1516.38   1
  11   0 -13 -16.890 1296.84   1
  11   0 -13 1023.58 766.230   1
 -11   0  13 -11.460 862.200   1
  11   0 -13 975.550 950.810   1
   8  -2   8 3966.33 1151.98   1
   8   2   8 1765.65 1561.37   1
  -8  -2  -8 -2249.0 1179.17   1
  -8   2  -8 891.820 1034.72   1
  -8  -2  -8 1537.28 1262.65   1
  -8   2  -8 -2115.2 1695.96   1
  12   4  -8 7359.25 2367.85   1
  12  -4  -8 4272.13 1510.94   1
  12  -4  -8 2431.75 1003.92   1
 -12   4   8 3519.94 1378.11   1
   9   0 -14 60736.1 28712.0   1
   9   0 -14 53650.6 7812.64   1
  -1  -5 -10 2610.20 1097.89   1
   1   5  10 3934.14 1902.10   1
  -1   5 -10 -185.63 1953.78   1
   1   5  10 1857.89 1113.04   1
  -1  -5 -10 -545.08 826.550   1
  -5   0 -11 3584.99 1220.53   1
  -5   0 -11 6240.98 3494.82   1
  14  -1  -9 4525.79 2238.77   1
  14   1  -9 739.560 630.570   1
 -14   1   9 1729.64 1005.09   1
 -14  -1   9 5.68000 641.400   1
  14  -1  -9 311.060 652.380   1
  14   1  -9 1837.07 1820.02   1
  -6   7   0 5146.69 1624.48   1
   6   7   0 8194.55 2448.57   1
   6  -7   0 5968.82 1411.46   1
  14   1  -1 9293.26 2563.37   1
  14   1  -1 11285.1 2310.24   1
  14  -1  -1 13193.0 2064.86   1
  14  -1  -1 10760.0 2123.19   1
   9   4   5 2552.76 1242.50   1
   9  -4   5 -1210.4 792.000   1
   9  -4   5 1508.25 789.520   1
  -9   4  -5 2617.96 1428.85   1
  -9   4  -5 -1484.8 1302.78   1
  -9  -4  -5 6432.57 3377.88   1
  -6   5  11 994.310 963.740   1
   6   5 -11 -351.65 1444.96   1
   6  -5 -11 1827.82 1201.92   1
   1  -4 -12 3132.15 1058.23   1
   1  -4 -12 1041.34 1589.94   1
   1   4 -12 2817.99 1658.09   1
  -1   4  12 2633.39 2226.02   1
   9  -2   7 19463.0 3435.49   1
   9   2   7 10571.5 2412.76   1
  -9  -2  -7 8188.74 1733.50   1
  -9   2  -7 -9249.6 11847.4   1
  -9  -2  -7 15373.3 2589.29   1
 -11   1  -5 1524.06 1237.62   1
  11  -1   5 5510.70 1677.88   1
  11  -1   5 -36558. 8559.74   1
  11   1   5 2822.85 1339.84   1
 -11  -1  -5 253.630 932.770   1
  10   2 -13 3387.85 1306.07   1
  10  -2 -13 2139.96 1072.33   1
 -10   2  13 4083.19 1186.07   1
  10   2 -13 -1233.2 1605.90   1
  10  -2 -13 1773.92 1524.77   1
  10   2 -13 529.300 1437.77   1
   5   7   2 2890.15 1914.87   1
  -5   7  -2 3134.85 1098.38   1
  -5   7  -2 3123.51 1101.12   1
  -3   5  -9 9649.31 2389.35   1
   3   5   9 3330.03 2214.30   1
  -3  -5  -9 1877.92 1090.19   1
   3   5   9 5658.79 1714.24   1
  -3  -5  -9 3108.24 926.730   1
   2  -5 -11 2495.38 893.030   1
   2  -5 -11 -108.74 1078.16   1
   2   5 -11 2141.23 1083.00   1
  -2   5  11 202.240 1049.15   1
   1   6  -9 16692.5 2702.87   1
   1  -6  -9 16829.5 3022.54   1
   1  -6  -9 14418.7 2779.55   1
  -1   6   9 11276.6 2324.36   1
   7  -2 -14 19393.9 2876.89   1
   7   2 -14 18326.5 2547.16   1
   7  -2 -14 14732.3 4086.80   1
   7   2 -14 15461.3 2692.88   1
  -7   2  14 17990.8 2741.09   1
  10  -3   5 12916.1 2622.68   1
  10   3   5 444.190 727.140   1
  10  -3   5 -544.38 947.900   1
 -10  -3  -5 12813.4 5912.27   1
 -10   3  -5 1712.32 2022.36   1
 -10   3  -5 2167.37 1241.92   1
   0  -7  -6 2316.72 672.860   1
   0   7   6 2726.20 1732.85   1
   0   7  -6 1728.62 1374.94   1
  -2   7  -5 -1739.8 962.630   1
  -2  -7  -5 555.370 544.560   1
   2   7   5 -1436.7 1528.36   1
   7   2   9 1518.63 1221.74   1
  -7  -2  -9 3308.65 1098.94   1
  -7   2  -9 231.590 1042.82   1
  -7  -2  -9 2336.58 1142.93   1
  -7   2  -9 415.520 890.440   1
   7  -2   9 -941.69 1119.58   1
  13   1 -11 -609.09 669.950   1
  13  -1 -11 598.040 814.960   1
 -13  -1  11 3945.26 1364.12   1
  13   1 -11 483.780 1466.50   1
 -13   1  11 2571.52 1029.29   1
  13   1 -11 -1376.4 1028.73   1
  -9   6   6 6440.52 1549.76   1
   9  -6  -6 3571.70 1145.96   1
   9   6  -6 3238.89 1519.47   1
   8  -4 -12 1104.35 766.600   1
   8   4 -12 -59.550 1210.77   1
   8   4 -12 1574.91 929.680   1
  -8   4  12 -368.80 937.450   1
  -5   4  -9 8794.68 1603.52   1
   5   4   9 3475.88 1721.48   1
  -5  -4  -9 9403.52 2019.47   1
  -5   4  -9 9153.43 2150.30   1
  -5  -4  -9 8307.58 2824.87   1
   5   4   9 10725.9 1826.55   1
  11  -4   2 -739.48 580.320   1
 -11   4  -2 938.140 697.730   1
 -11   4  -2 -984.69 1002.54   1
  11   4   2 -804.48 1091.41   1
  11  -4   2 2302.84 686.720   1
   3  -2 -14 8435.76 2463.74   1
   3   2 -14 8349.61 1483.31   1
   3  -2 -14 8342.16 1529.23   1
   3   2 -14 8170.15 2845.66   1
  -3   2  14 12449.3 2443.63   1
   1   0 -14 1888.78 2346.06   1
 -14   2   8 764.530 1331.98   1
  14  -2  -8 648.980 1138.51   1
  14   2  -8 -722.09 1530.45   1
  14  -2  -8 1169.13 571.150   1
  14   2  -8 834.800 587.930   1
  14   2  -2 4866.89 1269.26   1
 -14   2   2 -773.72 1832.17   1
  14  -2  -2 7709.26 1512.39   1
  14   2  -2 3874.70 1568.56   1
  14  -2  -2 6837.21 1343.36   1
  13  -2   1 6503.15 1409.70   1
  13  -2   1 4941.52 1373.89   1
  13   2   1 3720.66 1016.29   1
 -13   2  -1 3600.44 1074.79   1
  13   2   1 3624.55 1317.50   1
 -13   0  -2 404.990 716.280   1
  13   0   2 -1222.4 956.740   1
  13   0   2 -566.57 950.710   1
  12  -2   3 11199.8 1849.61   1
  12   2   3 10254.7 2649.36   1
  12  -2   3 15131.0 2805.28   1
 -12   2  -3 13202.9 2594.06   1
  11   1 -13 12327.0 2339.21   1
  11   1 -13 12574.1 2521.81   1
  11  -1 -13 13468.8 2298.10   1
  11   1 -13 10109.6 2113.38   1
  11  -1 -13 13024.8 3128.75   1
 -11   1  13 11634.8 2547.98   1
  11  -1 -13 12883.0 2114.04   1
   6  -6  -9 31870.0 4363.89   1
  -6   6   9 27607.3 3896.41   1
   6   6  -9 28614.9 3784.44   1
 -11   5   1 1598.80 1044.00   1
  11   5  -1 2543.64 890.580   1
  11  -5  -1 2224.46 656.450   1
  -9   1  14 1145.41 831.980   1
   9  -1 -14 727.200 901.590   1
   9   1 -14 306.330 954.650   1
   9   1 -14 3500.07 1341.40   1
   9  -1 -14 -912.44 1509.01   1
  -5   3 -10 1091.61 933.390   1
   5   3  10 2078.53 830.460   1
  -5   3 -10 3471.35 1329.87   1
  -5  -3 -10 2851.12 1173.53   1
  -5  -3 -10 9.15000 782.470   1
  -5   1 -11 5113.85 1409.89   1
  -5  -1 -11 10128.2 1859.99   1
   5   1  11 9448.16 1690.07   1
  -5   1 -11 11765.7 2008.61   1
  -5  -1 -11 7100.94 1776.09   1
   8  -6   2 10289.8 1577.91   1
  -8   6  -2 10794.1 2950.36   1
  -8   6  -2 14378.0 2409.45   1
   8   6   2 12598.8 2138.68   1
  -8  -6  -2 8317.79 1380.15   1
 -11   4  10 5008.81 1769.84   1
  11   4 -10 3024.59 1525.03   1
  11  -4 -10 6793.43 1438.38   1
   1  -3 -13 8869.52 2377.48   1
   1  -3 -13 6142.91 1736.54   1
   1   3 -13 5681.41 1427.09   1
   1   3 -13 7046.71 1836.58   1
  -1   3  13 5958.11 2176.05   1
  11  -5  -7 1686.28 809.630   1
 -11   5   7 2784.35 1429.09   1
  11   5  -7 2764.25 1529.37   1
  -6   7   5 1692.53 1284.16   1
   6  -7  -5 1383.65 830.910   1
 -10   4  11 2441.11 784.780   1
  10  -4 -11 -115.31 1003.77   1
  10   4 -11 3698.64 2127.10   1
  10   2   6 2497.41 921.190   1
  10  -2   6 4717.12 1610.56   1
 -10  -2  -6 2025.45 1130.48   1
  10  -2   6 5785.85 1489.27   1
 -10  -2  -6 3442.48 1205.67   1
 -10   2  -6 -78.920 1477.78   1
  -5   7   6 4146.17 1789.83   1
   5  -7  -6 2165.74 856.970   1
  12   3   2 2690.06 772.840   1
 -12   3  -2 17130.1 8017.95   1
  12  -3   2 3783.67 928.600   1
  12   3   2 3869.63 1045.32   1
 -12   3  -2 -2382.9 1794.72   1
  12  -3   2 1593.89 909.490   1
  -9   6   0 1717.39 932.180   1
   9   6   0 2611.09 1093.90   1
   9  -6   0 -179.05 505.090   1
 -12   4   0 5248.60 1726.74   1
  12  -4   0 3221.44 905.900   1
  12   4   0 1812.63 1712.74   1
  12  -4   0 3485.32 916.920   1
  12   4   0 2272.49 603.630   1
 -13   3   9 11987.4 2275.23   1
  13  -3  -9 8377.22 1633.69   1
  13   3  -9 8191.72 2407.86   1
  13  -3  -9 10382.2 1801.27   1
  -2   6  -8 669.550 1562.30   1
   2   6   8 2252.67 1331.46   1
  -2  -6  -8 1340.84 866.110   1
   2   6   8 4639.35 2008.26   1
  -2  -6  -8 1875.61 1017.79   1
   2   4  11 29610.2 11752.9   1
   2   4  11 5131.19 1355.91   1
  -2   4 -11 2866.32 1147.28   1
  -2   4 -11 1996.80 1292.95   1
  -2  -4 -11 4121.95 1002.35   1
  -2  -4 -11 4016.68 1412.35   1
   1  -1 -14 -2353.1 1645.93   1
   1   1 -14 -771.02 671.460   1
  -1   1  14 -814.09 1244.55   1
   1  -1 -14 2104.05 1152.91   1
  -7   5  11 2334.25 973.120   1
   7  -5 -11 2684.67 1371.28   1
   7   5 -11 -322.45 1053.21   1
   7   5 -11 4081.21 1571.57   1
   6  -2  10 12444.5 1984.20   1
  -6  -2 -10 13605.4 2767.49   1
  -6  -2 -10 13608.9 2522.12   1
  -6   2 -10 10136.6 1822.90   1
   6   2  10 11644.0 3188.11   1
  -6   2 -10 12917.3 2599.63   1
  -8   2  14 -355.72 771.100   1
   8  -2 -14 1860.87 970.970   1
   8   2 -14 1245.03 887.670   1
   8   2 -14 -1986.7 1441.88   1
   7  -5   6 731.490 467.310   1
  -7   5  -6 3379.62 1632.84   1
   7   5   6 1679.64 1473.91   1
   7  -5   6 2267.10 840.070   1
  -7  -5  -6 1574.61 927.960   1
   6  -7   1 3264.02 802.710   1
  -6   7  -1 473.840 1095.77   1
   6   7   1 6289.77 3451.65   1
  13   1   2 59639.3 28383.6   1
  13  -1   2 42742.1 6568.10   1
  13   1   2 58698.3 27744.0   1
 -13   1  -2 55214.2 7102.97   1
 -10   5   9 -460.15 1187.60   1
  10   5  -9 2026.96 1289.61   1
  10  -5  -9 521.020 541.730   1
   1  -5 -11 4019.43 1099.30   1
   1  -5 -11 2949.44 986.260   1
  -1   5  11 4920.88 1925.63   1
   1   5 -11 3452.17 1517.73   1
  15   0  -5 -522.29 722.900   1
  15   0  -5 2594.90 1548.02   1
   6  -5   7 699.980 430.390   1
  -6   5  -7 7476.98 2415.75   1
   6   5   7 997.270 749.120   1
   6  -5   7 307.120 411.080   1
  -6  -5  -7 773.990 743.670   1
   6   5   7 2464.74 1813.82   1
   8   6  -8 -631.65 1273.91   1
   8  -6  -8 1745.29 1540.40   1
  -8   6   8 2302.00 1150.77   1
  14   0 -10 -575.47 660.220   1
  14   0 -10 3150.25 1419.60   1
 -14   0  10 3786.94 1109.88   1
  -3   2 -12 -665.89 2046.95   1
  -3  -2 -12 406.420 751.890   1
  -3   2 -12 10.0200 736.530   1
  -3  -2 -12 532.210 621.290   1
  12   0   4 7002.78 1380.21   1
 -12   0  -4 2446.29 1023.77   1
  12   0   4 8234.41 1592.63   1
  15   0  -6 6943.37 1391.97   1
  15   0  -6 7298.48 1875.33   1
 -15   0   6 6414.74 3186.17   1
   9   5 -10 6013.85 1703.15   1
   9  -5 -10 12471.2 1926.51   1
  -9   5  10 12243.9 2143.56   1
  14   0   0 7173.98 1450.14   1
  14   0   0 6627.61 1359.94   1
  10  -4   4 1074.69 542.980   1
 -10  -4  -4 1233.70 1140.27   1
  10  -4   4 2149.41 908.650   1
  10   4   4 1321.66 888.210   1
 -10   4  -4 -60.660 1473.73   1
 -10   4  -4 1249.41 1359.12   1
   0  -6  -9 5937.46 1534.71   1
   0  -6  -9 277.540 404.680   1
   0   6  -9 4659.83 1769.42   1
   0   6   9 3229.63 1579.24   1
   1   7   6 2994.04 2181.48   1
  -1   7  -6 3295.31 1354.74   1
  -1  -7  -6 -189.39 429.400   1
  -1  -7  -6 -1079.4 624.530   1
  -2   0 -13 514.070 609.070   1
  -2   0 -13 2634.44 1276.99   1
   1   2  13 751.490 1428.51   1
  -1   2 -13 1099.97 1855.73   1
  -1  -2 -13 5915.57 1631.64   1
  -1  -2 -13 2325.95 859.800   1
  -1   2 -13 2141.30 780.880   1
   9  -3 -13 999.110 897.950   1
  -9   3  13 1281.98 818.490   1
   9   3 -13 -61.330 1637.58   1
   9  -3 -13 1133.24 1276.44   1
   9   3 -13 2809.07 1531.41   1
   7  -7  -3 35583.7 4849.54   1
  -7   7   3 24107.8 4557.12   1
  -7   7   2 939.080 808.400   1
   7  -7  -2 974.150 732.840   1
  -6  -6  -5 10803.9 1671.20   1
   6   6   5 6391.51 3246.53   1
  -6   6  -5 2731.64 1409.12   1
   6   6   5 19428.5 4322.93   1
   6  -6   5 8698.15 1924.86   1
   2   2 -14 4807.11 1556.18   1
   2  -2 -14 -1693.1 1357.32   1
  -2   2  14 2062.10 1875.26   1
   2   2 -14 3574.38 1025.38   1
   2  -2 -14 2907.73 1318.91   1
   5   6   6 13144.7 3582.57   1
  -5   6  -6 13394.5 2177.28   1
   5   6   6 11665.5 2229.45   1
  -5  -6  -6 12246.4 1942.95   1
 -13   4   5 7809.36 1982.61   1
  13  -4  -5 1835.58 1406.56   1
  13  -4  -5 3895.20 1062.24   1
  13   4  -5 1644.70 1760.98   1
  13   3   0 1478.24 1422.66   1
  13  -3   0 4423.00 1516.16   1
  13  -3   0 2049.11 854.200   1
 -13   3   0 8604.38 1970.56   1
  13   3   0 1560.12 817.000   1
  15   0  -4 23491.3 3676.70   1
  15   0  -4 20684.9 3862.43   1
 -10   5  -2 4519.52 1466.14   1
  10  -5   2 5341.93 1381.62   1
  10   5   2 3059.31 918.160   1
 -10   5  -2 6456.40 1455.10   1
  13   4  -4 3106.64 2553.14   1
  13  -4  -4 -509.49 960.910   1
 -13   4   4 2384.26 1087.60   1
  13  -4  -4 1120.98 562.840   1
   8   5   5 1384.79 863.530   1
  -8   5  -5 6884.37 2195.21   1
  -8  -5  -5 2011.60 1144.79   1
   8  -5   5 2308.20 602.190   1
  -8   5  -5 1838.61 1197.20   1
  -2   3 -12 -2108.7 1718.31   1
  -2   3 -12 3219.34 1105.19   1
  -2  -3 -12 3960.15 1220.41   1
   2   3  12 4405.55 3078.66   1
  -2  -3 -12 3182.23 1562.74   1
  -3   7   7 918.970 1004.28   1
   3  -7  -7 3369.28 994.490   1
   2   7  -7 4326.90 1346.20   1
   2  -7  -7 10205.9 1894.85   1
  -2   7   7 11104.5 2048.62   1
   0   4  12 4230.64 2546.01   1
   0   4 -12 1553.97 1309.29   1
   0  -4 -12 982.760 798.510   1
   0  -4 -12 4641.60 1391.38   1
 -12   4   9 8405.78 1744.89   1
  12  -4  -9 9839.52 1823.94   1
  12   4  -9 4085.25 1736.17   1
  12  -4  -9 2734.01 941.100   1
   9  -6  -7 10619.9 1823.64   1
  -9   6   7 8416.41 2026.70   1
   9   6  -7 12360.5 2513.36   1
 -11   3  -4 6476.68 2605.09   1
 -11  -3  -4 3314.52 1549.34   1
  11  -3   4 5962.77 1451.60   1
  11   3   4 3992.24 1302.75   1
 -11   3  -4 7760.85 1872.94   1
  11  -3   4 6782.83 1233.47   1
   4   7   4 2251.31 2117.36   1
  -4   7  -4 1744.38 1265.92   1
  15   0  -7 -218.11 623.640   1
  15   0  -7 689.170 1458.90   1
 -15   0   7 3797.11 1581.91   1
  10   0 -14 14898.5 2783.10   1
  10   0 -14 16292.5 3263.63   1
  -4   4 -10 23622.9 4969.06   1
  -4   4 -10 12963.7 1870.80   1
   4   4  10 16790.3 3937.23   1
  -4  -4 -10 15928.5 2877.56   1
   4   4  10 12448.3 2377.20   1
  -4  -4 -10 15702.1 2197.85   1
 -12   2  12 1265.51 837.840   1
  12   2 -12 921.830 489.810   1
  12   2 -12 273.720 1445.74   1
  12  -2 -12 1221.18 720.690   1
  12  -2 -12 -270.14 993.530   1
  12   2 -12 2055.48 1135.50   1
  14   3  -5 609.200 379.960   1
  14  -3  -5 741.150 476.630   1
  14   3  -5 2062.21 1721.71   1
  14  -3  -5 3276.25 1745.43   1
 -14   3   5 1093.06 1572.50   1
  -5   5  -8 11570.3 2788.67   1
   5  -5   8 24041.6 3343.69   1
   5   5   8 20021.2 3571.24   1
  -5  -5  -8 21777.8 3044.66   1
   5  -5   8 25575.1 3356.09   1
   5   5   8 28688.0 5661.45   1
  15   1  -5 1244.54 623.440   1
  15  -1  -5 3228.22 1779.68   1
  15  -1  -5 3945.84 1099.14   1
  15   1  -5 4541.63 2126.37   1
  -7   7   4 3036.66 961.720   1
   7  -7  -4 598.880 459.760   1
  -7   7   1 9307.46 2137.61   1
   7  -7  -1 8031.79 1815.20   1
   7   7  -1 7849.28 1859.72   1
  14  -1 -10 -2522.7 1313.67   1
  14   1 -10 2248.25 728.330   1
 -14  -1  10 -2613.2 898.930   1
 -14   1  10 -85.500 1010.12   1
  14  -1 -10 -238.33 830.150   1
  14   1 -10 1145.50 1616.41   1
  14   1 -10 -486.38 627.700   1
   7  -6  -9 1615.11 1096.41   1
   7   6  -9 2881.16 1225.90   1
  -7   6   9 155.490 1053.89   1
  13  -4  -6 -217.35 780.620   1
  13   4  -6 2085.08 1749.68   1
 -13   4   6 2543.17 1001.44   1
  12  -1   4 2377.73 893.090   1
 -12   1  -4 1618.05 1209.07   1
  12  -1   4 2256.97 845.090   1
  12   1   4 -78.210 1322.82   1
 -12  -1  -4 4137.14 1350.82   1
 -15   1   6 7831.04 1859.53   1
  15  -1  -6 -2179.0 1752.96   1
  15   1  -6 2687.03 2078.19   1
  15  -1  -6 7198.56 1354.15   1
  15   1  -6 3203.56 810.540   1
  -4   0 -12 20680.4 3795.65   1
  -4   0 -12 20670.0 2950.86   1
  14  -2  -9 -778.07 1206.40   1
 -14   2   9 405.010 1334.86   1
  14   2  -9 -207.10 557.310   1
  14  -2  -9 3299.20 1158.01   1
 -14  -2   9 1385.55 799.900   1
  14   2  -9 4421.12 2527.03   1
  -7  -6  -4 980.490 739.760   1
   7   6   4 -1688.5 1753.18   1
  -7   6  -4 5158.05 1754.73   1
  -7   6  -4 1467.41 1363.45   1
   7  -6   4 1610.98 755.400   1
   7   6   4 2199.01 856.100   1
  -5   7  -3 3401.98 1439.32   1
  -5   7  -3 3816.87 1231.62   1
   5   7   3 2612.62 2878.76   1
  14  -1   0 8834.78 2019.69   1
  14  -1   0 7296.15 1445.12   1
  14   1   0 12970.9 2484.33   1
  14   1   0 10582.9 1793.42   1
  14  -2  -1 12638.9 2186.63   1
  14   2  -1 13301.7 2183.81   1
  14  -2  -1 12041.5 2353.91   1
  14   2  -1 14868.7 2345.76   1
 -14   2   1 16538.3 3417.30   1
  12   3 -11 2099.30 1488.42   1
  12  -3 -11 6763.35 1236.93   1
 -12   3  11 2177.61 1331.01   1
  14  -3  -6 1423.24 1185.21   1
 -14   3   6 -434.15 1488.69   1
  14  -3  -6 3154.34 1034.94   1
  14   3  -6 2367.45 662.090   1
  14   3  -6 959.310 1846.44   1
  11   5   0 9224.53 1974.18   1
  11  -5   0 12208.1 2076.87   1
 -11   5   0 8424.94 1593.83   1
  14  -3  -4 663.970 1079.97   1
  14   3  -4 -379.16 1627.07   1
  14  -3  -4 601.760 571.300   1
  14   3  -4 993.740 489.700   1
 -14   3   4 4108.11 1518.76   1
   9   4 -12 13300.1 3110.02   1
   9   4 -12 29499.8 4326.71   1
   9  -4 -12 18491.0 2930.82   1
  -9   4  12 21087.7 3407.32   1
  -3  -7  -5 2359.71 801.640   1
  -3   7  -5 46.8300 944.890   1
   3   7   5 5034.44 2055.11   1
  -4   7   7 8285.14 1760.93   1
   4  -7  -7 7004.89 1355.81   1
  -9   0  -8 140.090 1327.30   1
  -9   0  -8 2462.94 1385.47   1
  -2   1 -13 3553.66 1864.41   1
  -2  -1 -13 154.740 833.340   1
  -2   1 -13 896.260 835.950   1
  -2  -1 -13 -1925.6 1308.60   1
  11  -2   5 -1735.4 1386.43   1
  11  -2   5 -1311.7 828.710   1
 -11   2  -5 2560.71 1448.89   1
  11   2   5 3386.13 1089.24   1
 -11  -2  -5 -3665.8 987.900   1
  -2   5 -10 14504.0 3035.72   1
  -2  -5 -10 16820.7 3081.05   1
   2   5  10 13340.0 2746.07   1
  -2  -5 -10 13234.5 2386.49   1
   2   5  10 6453.44 2022.43   1
 -13   4   3 11919.9 2596.05   1
  13  -4  -3 4664.44 1369.71   1
  13  -4  -3 10198.6 1685.49   1
  13   4  -3 8873.55 1601.57   1
  13   4  -3 7748.29 1543.60   1
  -4   6  -7 678.190 1436.27   1
  -4  -6  -7 -194.96 510.100   1
   4   6   7 2.51000 329.760   1
   4   6   7 4746.39 2456.86   1
 -11   3  12 -199.30 1250.53   1
  11   3 -12 2706.82 1558.72   1
  11  -3 -12 674.120 963.080   1
   1  -7  -7 13924.6 2516.34   1
   1   7  -7 15715.0 2358.51   1
  -1   7   7 12297.3 2258.23   1
  -8   0  -9 -3650.6 1782.95   1
  -8   0  -9 -792.87 1156.39   1
   8   0   9 -3079.7 1335.00   1
  10   6  -4 -3434.6 1641.05   1
 -10   6   4 2706.39 953.310   1
  10  -6  -4 3265.92 1141.68   1
 -10   6   3 17937.8 4593.25   1
  10   6  -3 20289.0 3448.09   1
  10  -6  -3 18819.1 3016.05   1
   6  -7  -6 16098.3 2280.98   1
  -6   7   6 21149.3 3474.85   1
  15  -1  -4 5068.66 1866.87   1
  15   1  -4 7337.46 1899.20   1
  15  -1  -4 9890.90 2435.43   1
  15   1  -4 7960.02 1693.52   1
 -15   1   4 7098.86 2481.88   1
  11  -5  -8 4596.38 1249.80   1
  11   5  -8 776.020 1359.53   1
 -13  -2  11 9309.34 1940.67   1
  13  -2 -11 5518.99 1712.71   1
  13   2 -11 6339.72 3417.19   1
  13   2 -11 10499.7 1790.52   1
  13  -2 -11 15726.7 2537.57   1
 -13   2  11 11891.7 2548.80   1
   6   0 -15 5074.93 1631.68   1
   6   0 -15 45.0800 1787.85   1
   5   0 -15 -560.70 1510.77   1
   5   0 -15 95.9000 426.100   1
  -4  -3 -11 17946.8 3396.39   1
  -4   3 -11 14594.9 2312.46   1
  -4  -3 -11 16436.6 3065.85   1
   4   3  11 17468.9 3511.54   1
  -4   3 -11 13774.2 3333.01   1
   5  -4 -13 773.610 1162.58   1
   5   4 -13 3956.93 1420.76   1
  -5   4  13 3761.72 1440.30   1
   5  -4 -13 341.720 452.790   1
   0   8   0 8632.76 1910.94   1
   0   0 -14 11694.6 2889.24   1
   0   0 -14 7725.89 1387.22   1
  15   0  -3 1122.76 703.590   1
  15   0  -3 2016.20 826.820   1
  15   1  -7 12350.5 2905.02   1
  15  -1  -7 17430.0 2936.83   1
  15   1  -7 15904.3 3419.22   1
  15  -1  -7 12916.6 2934.89   1
 -15  -1   7 17621.4 3410.44   1
 -15   1   7 18708.1 3089.48   1
  10  -1 -14 3397.01 987.630   1
 -10   1  14 2647.21 837.670   1
  10   1 -14 5279.24 1590.03   1
  10  -1 -14 2284.12 1330.34   1
  10   1 -14 4583.17 1506.12   1
  -4   4  13 8638.60 2287.72   1
   4   4 -13 6766.65 2123.44   1
   4  -4 -13 9034.05 1991.59   1
   4  -4 -13 7455.23 1336.63   1
   0  -3 -13 5470.69 1568.86   1
   0   3 -13 6897.04 2169.32   1
   0   3  13 2261.31 2294.79   1
   0  -3 -13 9156.94 1372.04   1
   0   3 -13 6300.50 891.870   1
   9   6   1 370.030 719.610   1
  -9   6  -1 -1286.3 1116.04   1
   9  -6   1 1074.41 538.360   1
 -10   0  -7 -205.69 1234.00   1
  10   0   7 2675.55 1136.79   1
 -10   0  -7 2392.75 1450.35   1
  11   2 -13 565.430 474.490   1
  11   2 -13 942.550 743.760   1
 -11   2  13 -484.37 878.120   1
  11   2 -13 -9.3300 1404.07   1
  11  -2 -13 2909.53 1542.93   1
  11  -2 -13 -2971.4 1024.23   1
  -8   5  11 3336.78 1679.06   1
   8   5 -11 3400.62 1196.27   1
   8  -5 -11 3780.94 1514.96   1
 -10   6   5 2400.76 1065.56   1
  10  -6  -5 1226.84 1077.71   1
  10   6  -5 921.040 1531.54   1
  -9   2  14 943.390 905.890   1
   9   2 -14 660.010 800.800   1
   9  -2 -14 6356.86 1392.37   1
   9  -2 -14 789.870 814.230   1
   9   2 -14 -1261.6 1552.92   1
   1   8   0 5283.87 2383.61   1
  -1   8   0 3129.65 1794.30   1
 -13   0  12 -359.07 892.090   1
  13   0 -12 1624.84 1178.02   1
  13   0 -12 584.880 1231.71   1
   0   8   1 -785.27 973.200   1
   0   8  -1 795.820 909.220   1
  -5  -2 -11 5400.37 3023.20   1
  -5   2 -11 10969.1 2692.96   1
   5   2  11 -321.68 1212.76   1
  -5   2 -11 4337.75 1649.12   1
  -4   1 -12 6268.47 1257.86   1
  -4  -1 -12 9998.20 1612.12   1
  -4  -1 -12 6074.52 1618.95   1
  -4   1 -12 7302.14 1615.31   1
   4  -6 -10 530.230 992.520   1
   4   6 -10 1888.70 1593.60   1
  -4   6  10 -1189.6 1100.22   1
   6  -4 -13 385.940 627.260   1
   6   4 -13 1336.18 1171.00   1
  -6   4  13 1767.72 1224.44   1
   6  -4 -13 1147.23 1506.53   1
  -1   8   1 3327.04 1469.17   1
   1   8  -1 -487.72 887.330   1
   9   5   4 3763.15 1537.15   1
   9  -5   4 7614.57 1098.62   1
  -9   5  -4 3605.20 1833.57   1
  -9   5  -4 6184.72 1353.71   1
  -9  -5  -4 7095.83 1187.42   1
  15   0  -8 6027.15 1036.10   1
  15   0  -8 5343.77 3415.02   1
 -15   0   8 14379.3 2320.43   1
  10   6  -2 -670.61 1574.59   1
  10  -6  -2 2202.57 895.220   1
 -10   6   2 4158.63 1740.78   1
  14   3  -7 1260.18 771.230   1
  14   3  -7 -1603.0 1605.93   1
  14  -3  -7 219.360 432.410   1
 -14   3   7 1573.86 1309.95   1
  14  -3  -7 295.160 992.910   1
   3   6 -10 9105.92 2129.18   1
   3  -6 -10 13760.4 1727.98   1
   3  -6 -10 16339.6 1902.67   1
  -3   6  10 5064.90 1978.56   1
   7   0 -15 -261.62 877.510   1
   7   0 -15 5953.58 1724.38   1
   0  -5 -11 1237.75 1098.68   1
   0  -5 -11 -1087.3 910.510   1
   0   5 -11 2013.54 1097.66   1
   0   5  11 6953.58 2437.18   1
  13  -4  -7 3810.03 1544.09   1
  13   4  -7 696.570 1558.07   1
  13  -4  -7 -929.42 791.960   1
 -13   4   7 5111.83 2106.89   1
  14   3  -3 805.670 485.470   1
  14  -3  -3 1764.80 774.410   1
  14   3  -3 2671.47 1728.90   1
  14  -3  -3 1474.68 1319.30   1
 -14   3   3 827.180 1150.66   1
   4   0 -15 2411.72 1338.32   1
   4   0 -15 2022.62 1399.95   1
 -12   0  13 -123.46 902.960   1
  12   0 -13 -896.19 699.290   1
  12   0 -13 329.340 626.590   1
  12   0 -13 -572.91 1197.90   1
  -9   1  -8 5811.26 1764.34   1
  -9  -1  -8 7257.27 1703.51   1
  -9  -1  -8 6214.86 1326.00   1
   9   1   8 12680.9 2727.54   1
   9  -1   8 5076.03 1876.06   1
  -9   1  -8 8696.75 1695.11   1
   7  -7  -5 2892.43 1330.21   1
  -7   7   5 3271.05 1715.51   1
   6   7   2 -1020.7 2030.34   1
  -6   7  -2 1982.77 1547.58   1
  -6   7  -2 764.870 914.360   1
   5  -3 -14 13740.1 1700.36   1
   5   3 -14 13139.2 2685.54   1
   5  -3 -14 8856.86 1283.84   1
  -5   3  14 12143.2 1604.74   1
  -7   7   0 10290.1 1415.50   1
   7  -7   0 9666.10 853.690   1
   7   7   0 4062.67 1921.24   1
  -7   0 -10 22828.3 2404.40   1
   7   0  10 14670.9 2113.27   1
  -7   0 -10 11067.6 2544.87   1
  -8   1  -9 3439.18 1799.24   1
   8  -1   9 -283.40 1280.05   1
  -8   1  -9 506.360 1152.35   1
   8   1   9 4009.54 1462.70   1
  -8  -1  -9 4335.46 1701.89   1
  -8  -1  -9 1210.10 1244.56   1
   5  -7  -7 3197.90 1419.85   1
  -5   7   7 1836.65 1152.25   1
   6   3 -14 5144.14 2371.09   1
   6  -3 -14 5897.63 1494.64   1
   6  -3 -14 9197.74 1894.57   1
  -6   3  14 10169.6 1578.22   1
  -2   7  -6 4213.55 1912.53   1
   2   7   6 4894.76 2282.85   1
  -2  -7  -6 5307.31 1916.03   1
  12   5  -4 5316.77 3118.04   1
 -12   5   4 8475.00 1619.07   1
  12  -5  -4 12262.2 1145.03   1
   6  -1 -15 18632.1 2127.25   1
   6   1 -15 19151.8 1930.24   1
   6  -1 -15 15534.1 2632.94   1
   6   1 -15 16917.6 2596.84   1
  -1  -6  -9 -941.42 841.720   1
  -1  -6  -9 836.260 702.800   1
   1   6   9 -3283.6 1608.21   1
  -1   6  -9 3338.80 1934.11   1
   1   8   1 7388.22 1978.83   1
  -1   8  -1 8514.00 1229.00   1
   5  -1 -15 7770.96 1331.94   1
   5   1 -15 9784.82 1452.25   1
   5  -1 -15 12762.2 1695.64   1
   5   1 -15 11931.5 2203.24   1
  -5   6  10 29117.6 2571.95   1
   5   6 -10 25166.5 4326.78   1
   5  -6 -10 26393.1 2120.96   1
   3  -4 -13 955.690 1015.34   1
   3  -4 -13 -1506.8 1154.51   1
   3   4 -13 716.680 912.450   1
  -3   4  13 1283.13 1514.90   1
  -8  -6  -3 -490.27 697.770   1
   8  -6   3 1123.17 621.600   1
  -8   6  -3 78.7800 1145.45   1
  -8   6  -3 391.430 1099.64   1
   8   6   3 -134.39 928.430   1
  -4   5  -9 -4122.4 1697.53   1
  -4  -5  -9 251.690 836.650   1
  -4  -5  -9 -884.43 616.050   1
   4   5   9 685.320 2126.39   1
   4   5   9 2368.56 1581.65   1
 -12   5   5 -523.09 1172.63   1
  12   5  -5 -978.89 1533.40   1
  12  -5  -5 -954.17 634.720   1
   4   3 -14 12180.0 1962.67   1
   4  -3 -14 11638.9 1516.44   1
  -4   3  14 12865.6 1654.48   1
   4  -3 -14 10785.0 1448.69   1
  12  -4   1 6835.09 1203.92   1
 -12   4  -1 11049.2 2071.82   1
 -12   4  -1 4051.39 1589.29   1
  12   4   1 7904.98 1891.15   1
  12  -4   1 5428.53 1067.14   1
  12   4   1 6928.30 1290.43   1
   0   7  -7 -2874.0 1431.32   1
   0  -7  -7 2707.36 1086.82   1
   0   7   7 179.020 1277.58   1
   0  -7  -7 -1349.0 596.950   1
   0  -1 -14 3803.26 1556.84   1
   0   1 -14 4143.21 1575.52   1
   0   1 -14 -89.310 853.720   1
   0  -1 -14 3923.74 1518.56   1
  13   4  -2 3233.88 1265.21   1
  13  -4  -2 5896.31 741.570   1
  13   4  -2 3653.02 1589.56   1
  13  -4  -2 6357.85 1376.67   1
 -13   4   2 4530.70 1977.22   1
 -13   3  10 1659.74 1119.87   1
 -13  -3  10 4028.75 1888.20   1
  13  -3 -10 4132.85 1589.44   1
  13   3 -10 1694.47 2170.19   1
  13  -3 -10 3096.11 1656.95   1
   1  -2 -14 7357.25 1192.53   1
   1   2 -14 6297.27 1173.35   1
   1  -2 -14 5449.01 1199.30   1
   1   2 -14 2956.42 1493.39   1
  -1   2  14 6065.07 1531.65   1
  15   1  -3 10935.3 1823.20   1
  15  -1  -3 10863.0 1936.57   1
  15   1  -3 11146.8 1757.94   1
  15  -1  -3 6801.98 1649.19   1
 -15   1   3 4058.94 2273.01   1
   2   8  -1 243.600 983.330   1
  -2   8   1 -1511.4 958.580   1
   1   8  -2 7926.59 1423.79   1
  -1   8   2 1191.49 1069.15   1
 -11   4  -3 12058.1 2171.00   1
  11  -4   3 8262.12 1715.18   1
  11  -4   3 7830.30 954.400   1
  11   4   3 10868.0 1544.74   1
 -11   4  -3 6693.79 1607.17   1
 -13   2  -2 -818.26 988.910   1
  13   2   2 1918.90 804.970   1
  13  -2   2 4063.82 1782.20   1
  13  -2   2 484.110 658.770   1
  13   2   2 265.050 384.940   1
 -10  -1  -7 4785.62 2038.58   1
  10  -1   7 6075.52 1014.48   1
  10   1   7 3204.01 1312.70   1
 -10  -1  -7 181.400 578.900   1
 -10   1  -7 2404.31 2574.44   1
   2  -6 -10 7218.77 1215.91   1
   2  -6 -10 1434.62 947.250   1
   2   6 -10 8866.30 1688.98   1
  -2   6  10 12613.0 2124.96   1
   8   3   8 38893.5 21644.7   1
  -8  -3  -8 28881.7 3345.45   1
  -8   3  -8 32025.7 3449.47   1
   8  -3   8 30697.2 7149.42   1
  -8  -3  -8 41323.7 21946.3   1
   2   8   0 4365.39 2432.16   1
  -2   8   0 2583.95 1741.73   1
   0   8   2 6922.26 1457.19   1
   0   8  -2 3723.06 1710.38   1
  13   1 -12 6993.71 1244.71   1
  13  -1 -12 6506.13 1069.71   1
  13  -1 -12 584.240 930.860   1
  13   1 -12 5072.29 2307.92   1
  13   1 -12 9424.96 2126.49   1
 -13  -1  12 5809.16 1371.24   1
  13  -1 -12 4197.09 1748.32   1
 -13   1  12 4616.95 1966.46   1
  12   5  -3 3983.46 1905.82   1
  12  -5  -3 -125.82 640.700   1
 -12   5   3 404.570 795.640   1
   3   6   8 3321.14 2337.51   1
  -3   6  -8 -893.35 1252.16   1
   3   6   8 2410.05 1106.10   1
  -3  -6  -8 1129.25 707.650   1
  15  -1  -8 1327.46 1204.11   1
 -15  -1   8 -1693.6 1406.94   1
  15  -1  -8 -1646.1 1480.11   1
  15   1  -8 4059.42 2599.90   1
  15   1  -8 3311.28 1255.93   1
 -15   1   8 2513.00 1048.89   1
   8  -4   7 -276.13 601.720   1
   8   4   7 3332.08 1316.62   1
  -8   4  -7 3351.18 2002.58   1
  -8  -4  -7 3835.12 1497.16   1
   8  -4   7 3736.55 1405.60   1
   7  -4 -13 1814.18 1124.47   1
  -7   4  13 951.420 1189.03   1
   7   4 -13 2528.21 1213.64   1
   7  -4 -13 -1004.4 1297.83   1
   7  -1 -15 5260.29 1987.88   1
   7  -1 -15 5854.98 1067.30   1
   7   1 -15 6792.12 1559.22   1
   7   1 -15 4631.93 1723.99   1
   4   1 -15 8810.53 2206.71   1
   4  -1 -15 3867.24 2273.82   1
   4   1 -15 1301.90 918.340   1
   4  -1 -15 2847.49 1213.55   1
  12  -1 -13 5744.68 1759.52   1
  12  -1 -13 1461.25 1058.81   1
  12  -1 -13 501.680 911.640   1
  12   1 -13 4098.32 1966.54   1
 -12   1  13 1889.90 1003.44   1
  12   1 -13 2904.19 1378.98   1
  12   1 -13 1585.37 1618.34   1
   9   3   7 5086.73 2104.13   1
   9  -3   7 3301.31 1420.52   1
  -9  -3  -7 3275.86 1702.28   1
   9  -3   7 839.750 591.550   1
  -9   3  -7 1026.51 1394.49   1
 -10   6   6 2182.56 1168.93   1
  10   6  -6 556.800 1511.12   1
  10  -6  -6 490.220 921.490   1
  10   3 -13 12846.9 1905.52   1
  10  -3 -13 15801.0 1760.38   1
 -10   3  13 17413.9 2532.17   1
  10   3 -13 11002.4 2411.70   1
  10  -3 -13 13069.0 1955.10   1
   7   4   8 2173.73 993.620   1
  -7  -4  -8 5151.01 1971.81   1
   7  -4   8 7876.79 1357.22   1
  -7   4  -8 4871.84 2606.38   1
   7  -4   8 3484.41 1448.04   1
  -7  -1 -10 6350.73 1199.18   1
  -7   1 -10 4431.13 2077.24   1
   7  -1  10 6890.08 1026.32   1
   7   1  10 4225.65 1567.21   1
  -7  -1 -10 3958.37 1687.94   1
  -7   1 -10 6859.21 1708.69   1
  -2   8   2 5061.20 1915.98   1
   2   8  -2 1900.40 1293.29   1
   7   3 -14 10845.4 2193.55   1
   7  -3 -14 8717.18 1423.44   1
   7  -3 -14 10167.5 1457.46   1
  -7   3  14 10917.2 1528.57   1
  11  -4 -11 8871.07 1180.22   1
 -11   4  11 14618.1 2303.15   1
  11   4 -11 8710.50 1905.05   1
  11   0   6 2745.95 1034.92   1
 -11   0  -6 1449.76 1217.26   1
  12  -5  -6 14445.1 2477.16   1
  12   5  -6 10546.0 2179.25   1
 -12   5   6 8428.64 1238.60   1
   8   0 -15 1083.43 837.240   1
   8   0 -15 -280.74 983.110   1
  -7   3  -9 6987.43 1404.92   1
   7   3   9 12260.8 1747.57   1
  -7   3  -9 9885.46 2114.72   1
  -7  -3  -9 6383.79 1349.64   1
   7  -3   9 11809.8 1510.29   1
  -7  -3  -9 2600.92 1289.81   1
   3   0 -15 -545.85 746.250   1
   3   0 -15 3635.96 1802.63   1
  10   6  -1 1709.45 1013.66   1
 -10   6   1 1456.11 996.060   1
  10  -6  -1 -53.740 533.390   1
   9  -6  -8 4225.24 1869.73   1
   9   6  -8 3951.01 1815.27   1
  -9   6   8 2383.44 1121.08   1
  14   0 -11 -2066.9 851.920   1
 -14   0  11 1436.29 1235.58   1
  14   0 -11 618.100 435.110   1
  14   0 -11 -3621.2 1173.08   1
   4  -5 -12 23954.6 3742.75   1
  -4   5  12 28788.2 2441.16   1
   4   5 -12 29178.1 4756.65   1
   4  -5 -12 28344.6 2343.95   1
 -13   0  -3 -1495.9 794.730   1
  13   0   3 529.070 1263.20   1
  13   0   3 1037.39 947.640   1
  15   0  -2 -746.93 767.260   1
  15   0  -2 -1945.7 1257.12   1
  -5   5  12 12947.6 1467.36   1
   5   5 -12 11851.1 2375.20   1
   5  -5 -12 5504.66 1047.37   1
   5  -5 -12 9950.87 1133.72   1
   8  -6  -9 4429.89 1926.00   1
  -8   6   9 1469.08 830.710   1
   8   6  -9 1460.85 1618.32   1
  14   0   1 2686.77 1153.38   1
  14   0   1 248.410 641.980   1
  -3   3  14 1443.41 1222.21   1
   3  -3 -14 1894.22 1043.69   1
   3   3 -14 -365.60 573.060   1
   3   3 -14 -2367.8 1474.18   1
   3  -3 -14 540.090 829.350   1
  -2   8  -1 835.360 862.300   1
   2   8   1 3964.69 2246.83   1
  -6   6  10 7229.69 1885.47   1
   6  -6 -10 10669.6 1517.00   1
  10  -5 -10 2513.96 1226.59   1
  10   5 -10 14599.2 1946.34   1
 -10   5  10 6571.10 1442.26   1
  -1   8  -2 10013.9 1537.05   1
   1   8   2 7602.11 1296.63   1
  14  -3  -8 934.370 1007.76   1
  14   3  -8 2920.70 2372.25   1
 -14   3   8 3505.65 1520.27   1
  -3   4 -11 27243.5 4749.09   1
  -3   4 -11 19653.6 1691.52   1
   3   4  11 26477.6 3692.19   1
  -3  -4 -11 22739.1 2543.60   1
   3   4  11 21842.5 4706.87   1
  -1   4 -12 7549.34 1798.94   1
   1   4  12 7314.38 3046.07   1
  -1  -4 -12 7878.74 1298.91   1
  -1  -4 -12 3913.55 1444.87   1
  14  -3  -2 18661.8 1652.02   1
 -14   3   2 27861.8 4433.31   1
  14   3  -2 21625.5 4408.08   1
  14   3  -2 21318.9 5703.74   1
  14  -3  -2 30085.3 3558.65   1
 -13   3  -1 1582.93 1649.62   1
 -13   3  -1 3254.97 1435.10   1
  13  -3   1 296.160 815.180   1
  13   3   1 -1100.2 1286.65   1
  13  -3   1 -37.440 745.630   1
  13   3   1 851.290 479.160   1
  -9   4  -6 -874.67 1420.61   1
   9  -4   6 349.440 798.870   1
   9   4   6 772.600 985.990   1
   9  -4   6 -2200.3 791.900   1
  -9   4  -6 2245.23 2095.83   1
  -9  -4  -6 554.560 1163.94   1
  12  -3   3 4156.90 1450.36   1
  12  -3   3 2474.21 1229.16   1
  12   3   3 1182.84 814.920   1
 -12   3  -3 2720.32 1751.23   1
 -12   3  -3 -306.81 1767.34   1
  15   2  -5 3177.64 1189.56   1
 -15   2   5 4463.78 2008.85   1
  15  -2  -5 1951.76 1463.72   1
  15   2  -5 -1547.3 1695.89   1
  15  -2  -5 1313.08 796.010   1
 -14  -2  10 1806.54 866.670   1
  14  -2 -10 2764.19 1906.65   1
 -14   2  10 1860.38 1230.57   1
  14  -2 -10 1460.08 1130.61   1
  14   2 -10 3700.81 2003.28   1
  14   2 -10 205.420 540.400   1
 -12   2  -4 2755.68 1523.38   1
  12   2   4 5017.01 1875.33   1
  12  -2   4 3312.49 1395.54   1
  12  -2   4 7812.35 1130.28   1
  15  -2  -6 14364.0 2203.09   1
 -15   2   6 11751.8 1802.83   1
  15   2  -6 15431.1 2005.04   1
  15   2  -6 17553.4 2952.29   1
  15  -2  -6 13541.2 2364.78   1
 -13   4   8 126.820 1433.80   1
  13  -4  -8 1461.69 1324.80   1
  13   4  -8 2327.71 1718.28   1
  13  -4  -8 2058.51 860.940   1
  -2   4  13 7690.07 2172.55   1
   2   4 -13 9851.28 2283.76   1
   2  -4 -13 10102.4 1996.77   1
   2  -4 -13 11577.9 2007.27   1
  14  -2   0 4607.84 1965.89   1
 -14   2   0 4665.07 2623.04   1
  14   2   0 10124.9 1494.94   1
  14   2   0 2941.58 1647.17   1
  14  -2   0 6726.01 893.930   1
 -12   4  10 2376.41 975.190   1
  12  -4 -10 3819.06 1586.41   1
  12   4 -10 3483.55 1866.26   1
  12  -4 -10 3510.97 1600.89   1
  -6   0 -11 2992.82 2640.14   1
   6   0  11 -39.230 1216.72   1
  -6   0 -11 -2934.1 1140.96   1
  11   5   1 1858.07 1289.38   1
 -11   5  -1 240.680 623.030   1
  11   5   1 -72.000 394.610   1
  11  -5   1 -65.020 754.970   1
  -3   5  12 6137.66 1514.87   1
   3  -5 -12 6733.20 1151.13   1
   3  -5 -12 2235.97 857.110   1
   3   5 -12 4957.38 2202.90   1
  11   0 -14 4797.94 2187.70   1
  11   0 -14 553.950 613.830   1
  11   0 -14 325.360 1322.65   1
  -3   8   1 1291.86 1143.10   1
   3   8  -1 5971.78 1757.83   1
  15   0  -9 222.400 380.040   1
  15   0  -9 1481.39 1419.12   1
 -15   0   9 -103.78 854.650   1
  -7   7   6 1445.70 825.180   1
   7  -7  -6 462.220 533.160   1
 -12   5   2 6346.17 1451.38   1
  12  -5  -2 5018.29 1868.24   1
  12   5  -2 3084.78 1664.91   1
  -2   2 -13 6537.15 1607.69   1
  -2  -2 -13 12634.0 2392.99   1
  -2   2 -13 6831.06 1658.10   1
  -2  -2 -13 7900.22 1237.07   1
  -6  -4  -9 13177.1 1451.18   1
   6  -4   9 13229.0 2123.46   1
  -6  -4  -9 7937.55 1206.08   1
   6   4   9 8433.99 1620.10   1
  -6   4  -9 14650.3 3329.89   1
  -1   8   3 12256.3 1625.25   1
   7  -7   1 1358.84 781.080   1
  -7   7  -1 2696.80 1138.61   1
   7   7   1 6807.66 2093.04   1
   1  -6 -10 -364.12 736.770   1
   1   6 -10 6861.80 1591.79   1
  -1   6  10 2789.26 2023.79   1
   1  -6 -10 3902.30 1560.88   1
  -6   7   7 1986.15 1226.06   1
   6  -7  -7 477.200 724.250   1
  -6   5  12 449.960 960.990   1
   6  -5 -12 3047.57 1314.56   1
   6   5 -12 374.730 1746.44   1
   6  -5 -12 1799.39 1074.84   1
  10  -3   6 13227.8 2156.52   1
 -10  -3  -6 9360.08 1440.39   1
 -10   3  -6 8973.40 1994.81   1
  10  -3   6 6551.69 1065.75   1
  10   3   6 9886.05 1227.36   1
 -10   3  -6 14052.5 2959.49   1
  -8   7   3 21201.0 3364.98   1
   8   7  -3 28832.1 2649.86   1
   8  -7  -3 36755.6 19504.5   1
 -11  -1  -6 2102.84 1441.64   1
  11  -1   6 614.590 1455.22   1
  11   1   6 3647.67 1547.13   1
 -11  -1  -6 -427.58 907.540   1
 -11   1  -6 849.950 1152.96   1
   8   1 -15 4347.42 2249.75   1
   8  -1 -15 3369.97 1897.79   1
   8   1 -15 5225.66 2366.22   1
   8  -1 -15 6268.02 1499.73   1
  -3   8   2 1321.36 1440.51   1
   3   8  -2 3660.85 1754.94   1
 -10   4  12 3146.13 1192.81   1
  10   4 -12 5148.80 2126.98   1
  10  -4 -12 2360.16 1558.95   1
  10   5   3 -1521.4 959.820   1
 -10   5  -3 423.000 1175.38   1
 -10   5  -3 752.450 765.710   1
  10  -5   3 673.410 536.320   1
 -10  -5  -3 2520.26 1188.87   1
   3  -1 -15 4857.42 2442.87   1
   3  -1 -15 2451.29 1464.77   1
   3   1 -15 3926.60 1447.47   1
   3   1 -15 3287.13 1634.96   1
  -2   8   3 -1913.7 968.030   1
 -11   5   9 2511.60 1376.91   1
  11   5  -9 8357.24 1896.84   1
  11  -5  -9 6152.38 880.260   1
  15  -2  -4 -1487.8 1270.31   1
 -15   2   4 404.700 944.250   1
  15   2  -4 -39.560 705.030   1
  15  -2  -4 1563.67 747.310   1
  15   2  -4 -1876.4 1643.70   1
  -3   8   0 3272.95 1682.65   1
   3   8   0 4304.51 2848.62   1
  -5   7  -4 4094.40 1939.92   1
   5   7   4 592.750 2014.85   1
  14  -1 -11 -1133.9 913.770   1
 -14  -1  11 2419.51 1062.60   1
  14   1 -11 2958.37 1291.33   1
  14  -1 -11 2509.56 1472.88   1
  14   1 -11 1749.68 1514.18   1
 -14   1  11 1026.27 1101.87   1
  14   1 -11 -1246.8 702.940   1
  13  -1   3 8604.23 1852.85   1
  13   1   3 6433.53 1645.88   1
  13   1   3 10693.1 1547.41   1
  13  -1   3 4131.24 1594.33   1
 -13   1  -3 3647.57 1779.27   1
  15   1  -2 350.990 326.210   1
  15  -1  -2 4979.77 1837.34   1
  15   1  -2 -1694.7 1400.17   1
  15  -1  -2 2404.38 1388.40   1
   0   8   3 254.130 1118.86   1
  -4  -7  -5 6299.41 722.180   1
  -4   7  -5 9024.33 1798.58   1
   4   7   5 2521.73 2276.18   1
   8  -7  -2 1550.31 910.500   1
   8   7  -2 1203.90 1476.36   1
  -8   7   2 25.0100 603.060   1
   1   7   7 4975.43 2799.96   1
  -1   7  -7 3357.26 1674.61   1
  -1  -7  -7 336.360 389.490   1
  14  -1   1 178.230 550.510   1
  14  -1   1 2000.31 796.100   1
  14   1   1 -1414.0 851.020   1
  14   1   1 -1853.9 1301.08   1
 -15   2   7 -850.33 1272.31   1
  15  -2  -7 -1078.6 1326.80   1
  15   2  -7 953.860 1688.82   1
  15   2  -7 -278.54 634.810   1
  15  -2  -7 -987.80 910.760   1
  10  -2 -14 14349.9 2433.38   1
  10   2 -14 15255.1 2407.64   1
 -10   2  14 12803.5 2045.85   1
  10  -2 -14 15148.7 3965.60   1
  10   2 -14 10840.1 2661.01   1
  10   2 -14 15331.2 2368.68   1
  13  -4  -1 672.000 427.970   1
  13   4  -1 -774.09 1433.87   1
  13  -4  -1 1441.82 714.850   1
  13   4  -1 1108.36 703.150   1
 -13   4   1 1910.59 932.790   1
   8  -7  -4 6759.53 1443.29   1
  -8   7   4 4405.89 2007.58   1
   8   7  -4 7196.16 1766.08   1
  -9   5  11 546.660 561.350   1
   9   5 -11 -1222.4 1295.17   1
   9  -5 -11 -679.98 893.310   1
   3  -7  -8 13991.6 1859.24   1
  -3   7   8 12039.2 1830.70   1
   3   7  -8 2881.22 1407.11   1
  -6  -3 -10 -1553.8 991.040   1
  -6  -3 -10 554.140 931.710   1
  -6   3 -10 -3704.8 2211.13   1
  -6   3 -10 974.020 968.590   1
   6  -3  10 369.090 1027.01   1
   6   3  10 2465.85 1123.84   1
   8   3 -14 17832.5 4331.54   1
  -8   3  14 27978.0 2427.29   1
   8  -3 -14 24626.7 4247.61   1
   8  -3 -14 21482.9 3741.50   1
  -3   0 -13 3271.55 1765.96   1
  -3   0 -13 -1072.1 752.480   1
 -12   5   7 3305.64 1466.86   1
  12   5  -7 4861.59 2135.38   1
  12  -5  -7 3699.90 1570.06   1
   8  -4 -13 15816.5 1987.34   1
   8  -4 -13 15813.4 1674.70   1
   8   4 -13 15430.5 3398.52   1
  -8   4  13 20287.5 2114.34   1
  -9   6  -2 537.380 662.300   1
  -9   6  -2 -433.25 1172.75   1
   9   6   2 229.160 1136.50   1
  -9  -6  -2 -152.82 734.950   1
   9  -6   2 430.080 560.620   1
   3   3  12 5294.23 2856.96   1
  -3   3 -12 2944.81 1612.99   1
  -3  -3 -12 4789.17 1791.31   1
  -3  -3 -12 1849.55 1253.52   1
  -3   3 -12 1919.01 942.990   1
  -4  -2 -12 267.750 754.150   1
  -4   2 -12 6775.33 1770.40   1
  -4   2 -12 6926.85 1450.06   1
  -4  -2 -12 -3843.6 1289.33   1
  -1  -5 -11 708.220 719.020   1
   1   5  11 1510.14 883.850   1
   1   5  11 931.950 1627.42   1
  -1  -5 -11 -948.33 885.710   1
  -1   5 -11 -712.30 1793.95   1
  -6   1 -11 5898.10 1239.25   1
  -6  -1 -11 2103.30 867.320   1
   6   1  11 5259.85 1911.92   1
  -6  -1 -11 3211.37 1436.65   1
   6  -1  11 1926.03 1107.46   1
  -6   1 -11 3384.22 1521.38   1
  -2   7   8 2206.12 1243.51   1
   2   7  -8 863.670 1175.64   1
   2  -7  -8 2650.46 1036.61   1
  10  -6  -7 4142.11 1721.59   1
  10   6  -7 5608.20 2227.15   1
 -10   6   7 7855.39 1544.43   1
  11   1 -14 850.620 872.150   1
  11  -1 -14 2393.17 1567.43   1
  11   1 -14 2214.15 1201.14   1
  11   1 -14 3346.74 1461.48   1
  11  -1 -14 -2132.3 1266.14   1
 -11   1  14 3145.05 1156.34   1
  15   1  -9 -1865.4 1603.72   1
  15  -1  -9 949.480 1419.99   1
 -15  -1   9 -352.84 1001.84   1
 -15   1   9 18.9600 1019.17   1
  15   1  -9 997.830 628.920   1
  15  -1  -9 -948.24 760.910   1
  -4   7   8 14294.2 1739.05   1
   4  -7  -8 13248.6 1590.31   1
  -2   8  -2 5557.44 1433.57   1
   2   8   2 2756.56 1573.85   1
  -3  -5 -10 29080.6 3933.97   1
   3   5  10 26781.9 6689.60   1
  -3  -5 -10 23706.2 3737.60   1
   3   5  10 24372.6 3913.34   1
  -3   5 -10 31861.8 4369.82   1
  -9  -2  -8 4416.49 1881.68   1
   9  -2   8 1795.12 1544.79   1
   9   2   8 2818.08 1186.15   1
  -9   2  -8 8856.25 2407.72   1
  -9  -2  -8 -2648.8 1090.05   1
  -1  -3 -13 4087.85 1653.90   1
  -1   3 -13 1336.69 833.960   1
  -1  -3 -13 2632.78 1175.94   1
  -1   3 -13 3330.02 1760.41   1
   1   3  13 -1600.8 1596.57   1
  -1   0 -14 19885.6 2798.10   1
  -1   0 -14 14506.3 2009.13   1
   6   7   3 10494.0 2189.57   1
  -6   7  -3 3487.47 1788.06   1
  -6   7  -3 1947.07 1239.55   1
   6   6   6 8102.17 3298.69   1
  -6   6  -6 -1543.4 1414.27   1
  -6  -6  -6 553.180 691.340   1
   6  -6   6 167.560 227.280   1
   6   6   6 1968.67 830.860   1
   9   0 -15 -1115.8 1400.68   1
   9   0 -15 2503.67 1563.72   1
   2   5 -12 22579.5 4326.91   1
  -2   5  12 20999.7 2204.87   1
   2  -5 -12 22512.2 3402.78   1
   2  -5 -12 21603.0 3044.35   1
  -8   2  -9 792.310 1089.52   1
  -8  -2  -9 1317.07 1239.19   1
   8  -2   9 216.000 551.970   1
   8   2   9 -1218.6 1512.79   1
  -8  -2  -9 -1641.6 1211.59   1
  -8   2  -9 3261.65 1406.35   1
  -3   8   3 -1122.0 985.230   1
  10   4   5 2104.96 937.080   1
 -10   4  -5 2936.36 1573.76   1
  10  -4   5 2349.36 1153.12   1
 -10  -4  -5 2326.80 1282.82   1
  10  -4   5 1640.73 846.600   1
 -10   4  -5 2306.50 1230.57   1
  -2   3  14 11033.1 2262.87   1
   2   3 -14 5287.26 2144.00   1
   2  -3 -14 9481.26 1811.58   1
   2   3 -14 8299.49 779.440   1
   2  -3 -14 13347.8 1553.32   1
   2   0 -15 5540.86 1921.52   1
   2   0 -15 1007.90 892.940   1
   8   7  -1 -220.12 1251.10   1
  -8   7   1 3786.42 1409.62   1
   8  -7  -1 540.030 566.400   1
  -3   7  -6 1157.64 1263.25   1
   3   7   6 -1033.5 2009.96   1
  -3  -7  -6 1435.01 819.450   1
 -10   6   0 4070.15 1818.70   1
  10  -6   0 3945.88 1460.81   1
  10   6   0 5019.88 1867.38   1
   6  -2 -15 -1789.2 1511.56   1
   6   2 -15 -153.91 393.510   1
  -6   2  15 674.550 762.640   1
   6  -2 -15 -9.4500 1011.64   1
   6   2 -15 1773.20 1159.52   1
   7   6 -10 2476.92 1271.62   1
   7  -6 -10 1361.79 1523.18   1
  -7   6  10 792.090 1182.72   1
   5   2 -15 2976.71 1775.58   1
  -5   2  15 1337.79 994.710   1
   5  -2 -15 1749.79 1035.51   1
   5   2 -15 1441.32 1082.17   1
   5  -2 -15 -203.63 974.430   1
  -3   8  -1 7761.27 1494.93   1
   3   8   1 7831.35 2288.16   1
   2   6   9 10066.9 2817.23   1
  -2  -6  -9 868.840 888.040   1
  -2   6  -9 2647.43 1706.16   1
   2   6   9 1836.86 729.620   1
  -2  -6  -9 1813.78 1045.51   1
   1   8   3 8448.50 1818.78   1
   7   6   5 7716.42 1025.55   1
   7   6   5 4733.74 2404.73   1
  -7   6  -5 1683.69 1439.86   1
  -7  -6  -5 5648.85 983.890   1
   7  -6   5 5214.80 780.290   1
   7  -5 -12 15456.7 1914.69   1
   7   5 -12 15113.0 2544.18   1
  -7   5  12 22183.3 2171.49   1
   7  -5 -12 22229.3 2330.99   1
   0   2 -14 11118.4 1515.66   1
   0  -2 -14 11814.7 2044.00   1
   0   2 -14 10162.9 1487.91   1
   0   2  14 11505.3 2752.51   1
   0  -2 -14 12749.8 2476.07   1
  15  -2  -3 1895.00 754.770   1
 -15   2   3 -1686.9 1802.70   1
  15  -2  -3 -786.34 1309.33   1
  15   2  -3 2444.99 1266.68   1
  15   2  -3 1881.85 680.820   1
  12   0   5 -1453.3 1196.48   1
 -12   0  -5 695.710 1131.45   1
   7  -5   7 4660.83 1644.93   1
  -7   5  -7 3410.24 1993.23   1
   7  -5   7 5523.99 831.340   1
  -7  -5  -7 2757.67 1124.78   1
   7   5   7 7415.15 1461.96   1
   5   6   7 1524.53 858.630   1
  -5   6  -7 962.620 1450.54   1
   5   6   7 2394.04 2253.41   1
  -5  -6  -7 822.930 616.980   1
  12   3 -12 -39.130 1633.82   1
  12  -3 -12 10343.1 1758.29   1
 -12   3  12 5379.39 1305.29   1
  12  -3 -12 3622.22 1699.34   1
  -3  -1 -13 20127.3 3487.75   1
  -3   1 -13 22238.2 2782.13   1
  -3  -1 -13 20345.6 2310.03   1
  -3   1 -13 18324.5 3687.69   1
  -8   7   5 5560.59 1746.44   1
   8  -7  -5 1457.80 988.520   1
  10  -2   7 16747.8 2423.86   1
 -10  -2  -7 10543.9 1659.84   1
 -10   2  -7 15821.4 2438.04   1
 -10  -2  -7 12601.5 1960.27   1
  10   2   7 17960.8 2627.27   1
  -5   4 -10 6271.66 1375.57   1
  -5   4 -10 13784.2 3035.29   1
  -5  -4 -10 9249.07 1259.30   1
  -5  -4 -10 4295.65 2061.11   1
   5   4  10 12741.3 1738.46   1
   5   4  10 9817.85 2168.63   1
  13  -2 -12 3831.91 1506.43   1
 -13   2  12 10693.1 1877.19   1
  13   2 -12 4365.38 1710.62   1
  13  -2 -12 2045.36 1461.50   1
  13   2 -12 2866.06 1701.86   1
   1  -7  -8 701.010 459.200   1
   1  -7  -8 330.070 721.000   1
   1   7  -8 1027.51 1245.24   1
  -1   7   8 -183.44 1213.56   1
   8  -5   6 -279.75 595.620   1
  -8  -5  -6 -766.06 756.260   1
  -8   5  -6 -117.54 1408.53   1
   8   5   6 2916.20 1158.42   1
  14  -3  -9 -164.57 914.770   1
 -14   3   9 429.240 825.490   1
  14   3  -9 1283.45 1829.70   1
  14  -3  -9 1464.06 888.630   1
  12   5  -1 187.710 758.530   1
 -12   5   1 -1347.1 1023.15   1
  12  -5  -1 -776.09 708.680   1
 -15   2   8 2331.85 948.350   1
  15  -2  -8 3066.85 2016.73   1
  15   2  -8 2106.56 1013.60   1
  15  -2  -8 640.280 939.550   1
  15   2  -8 -3289.3 1547.98   1
  -1   4  13 15916.8 3167.05   1
   1  -4 -13 15040.8 1514.15   1
   1  -4 -13 15407.1 2226.49   1
   1   4 -13 17692.8 2948.80   1
  14   3  -1 8354.79 2005.32   1
  14  -3  -1 10952.4 1712.44   1
  14   3  -1 2615.07 2139.02   1
  14  -3  -1 7620.80 1358.64   1
 -14   3   1 5448.37 1715.85   1
  15   0  -1 -854.84 787.760   1
  15   0  -1 -255.12 1185.38   1
  -4   8   1 6029.27 1606.69   1
   4   8  -1 4784.60 2152.79   1
  -5   7   8 1840.47 1195.16   1
   5  -7  -8 -1802.6 771.850   1
   7   2 -15 1264.28 925.370   1
  -7   2  15 2755.36 1333.22   1
   7  -2 -15 2462.32 1328.16   1
   7  -2 -15 2082.47 1032.82   1
   7   2 -15 3986.56 1468.17   1
  -4   2  15 -1588.6 931.530   1
   4   2 -15 3712.11 1598.77   1
   4  -2 -15 3240.95 1604.21   1
   4   2 -15 964.550 782.460   1
   4  -2 -15 4218.39 1905.52   1
  12   2 -13 1326.15 965.310   1
  12   2 -13 -419.13 1435.70   1
  12  -2 -13 169.140 1101.56   1
  12   2 -13 -47.520 747.370   1
  12  -2 -13 1115.99 1526.31   1
  12  -2 -13 4833.09 1802.35   1
 -12   2  13 5393.35 1104.04   1
   4   8  -2 -2651.3 1499.47   1
  -4   8   2 2510.42 1655.03   1
 -11   3  -5 -1669.1 2262.25   1
 -11   3  -5 -1822.5 1135.22   1
  11  -3   5 1805.74 813.980   1
 -11  -3  -5 -1898.1 1063.47   1
  11  -3   5 2536.61 1051.66   1
  11   3   5 -1161.2 1316.39   1
   6  -5   8 -57.100 592.430   1
   6  -5   8 -731.43 732.820   1
  -6   5  -8 1427.85 1885.83   1
   6   5   8 1419.86 1056.53   1
  -6  -5  -8 829.280 867.990   1
   6   5   8 2292.90 2789.90   1
  -1  -1 -14 599.950 917.820   1
  -1   1 -14 -763.07 764.040   1
  -1  -1 -14 -963.09 1480.07   1
  -1   1 -14 5517.23 1311.69   1
  -1   8   4 1584.65 1201.89   1
  -2   8   4 2805.06 1108.80   1
  -7   2 -10 8283.28 1687.39   1
  -7  -2 -10 9443.48 1726.82   1
   7   2  10 7971.06 1549.53   1
   7  -2  10 5147.54 1585.79   1
  -7   2 -10 8296.82 1504.68   1
  -7  -2 -10 6143.04 1111.33   1
   0  -6 -10 -1117.2 758.780   1
   0  -6 -10 583.320 610.500   1
   0   6 -10 2883.59 1953.56   1
   0   6  10 2139.29 1706.46   1
   9  -1 -15 22182.2 4101.55   1
   9   1 -15 19825.1 1976.45   1
   9   1 -15 16276.1 2975.94   1
   9  -1 -15 18320.2 1937.50   1
   2  -1 -15 18496.9 1765.28   1
   2   1 -15 15852.3 2504.12   1
   2  -1 -15 17005.8 3866.63   1
   2   1 -15 14706.2 2607.97   1
  12   4   2 335.550 444.480   1
  12  -4   2 814.920 557.020   1
 -12   4  -2 -2216.9 1644.67   1
 -12   4  -2 1892.61 1291.19   1
  12   4   2 1932.20 1472.51   1
  12  -4   2 752.800 665.960   1
  13  -3 -11 23385.9 2297.15   1
  13   3 -11 24288.6 2844.26   1
  13  -3 -11 23802.0 2578.55   1
 -13   3  11 26713.4 3222.59   1
  13   4  -9 -34.440 1526.35   1
  13  -4  -9 -1232.7 777.520   1
  13  -4  -9 1813.35 1092.29   1
 -13   4   9 1548.24 1541.47   1
  -5   0 -12 13449.5 1675.36   1
  -5   0 -12 11066.7 2127.21   1
  12  -1   5 1932.09 849.390   1
 -12   1  -5 610.680 992.730   1
 -12  -1  -5 -444.21 807.800   1
  12   1   5 5064.40 2630.57   1
  12  -1   5 1804.27 856.320   1
   4   8   0 12424.2 2233.64   1
  -4   8   0 13323.4 1837.00   1
  -8   6  -4 1801.94 867.380   1
   8  -6   4 2093.11 779.860   1
  -8  -6  -4 1697.32 1103.33   1
   8   6   4 19.0200 631.980   1
  -8   6  -4 3043.90 1612.56   1
   7  -7  -7 870.800 786.810   1
  -7   7   7 11001.8 2078.48   1
  -7   7  -2 3299.03 1450.98   1
   7   7   2 3499.99 2531.85   1
 -15   0  10 1628.17 712.330   1
  15   0 -10 -3424.6 1282.33   1
  15   0 -10 1732.72 874.270   1
   0   8   4 8384.87 1737.32   1
   0   8  -4 2652.41 1061.81   1
  -4   8   3 3750.26 1940.64   1
  11  -3 -13 1803.05 1284.09   1
  11   3 -13 5312.55 1459.83   1
  11   3 -13 6712.46 2111.22   1
 -11   3  13 6471.97 1371.21   1
  11  -3 -13 6642.89 1564.26   1
  -3   8   4 2400.52 1216.56   1
 -12   5   8 37123.3 6121.48   1
  12  -5  -8 45035.5 22432.7   1
  12   5  -8 32012.3 3087.59   1
   9  -6  -9 20288.8 1899.30   1
   9   6  -9 21953.8 2313.75   1
  -9   6   9 22345.4 3377.88   1
   9  -3 -14 831.430 943.500   1
  -9   3  14 2741.52 1221.35   1
   9   3 -14 -1438.2 1615.53   1
   9  -3 -14 -2600.4 1338.84   1
  -5  -3 -11 6293.86 1018.56   1
   5   3  11 6425.00 1779.42   1
  -5  -3 -11 9787.29 1608.50   1
  -5   3 -11 8206.85 1514.84   1
  -5   3 -11 8832.44 1533.30   1
  -8   7   0 21168.5 3528.89   1
   8   7   0 20183.2 4687.53   1
   8  -7   0 25841.5 2232.44   1
 -13   0  13 -4230.0 884.600   1
  13   0 -13 -292.61 799.430   1
  13   0 -13 2034.34 1279.10   1
  13   0 -13 833.770 1090.87   1
  11  -6  -4 10758.2 1294.32   1
 -11   6   4 10846.0 1912.27   1
  11   6  -4 11401.1 2512.68   1
  15  -1  -1 1339.47 803.220   1
  15   1  -1 -613.98 724.450   1
  15  -1  -1 3286.83 1262.81   1
  15   1  -1 4045.54 1882.09   1
   4   6   8 3029.99 2302.37   1
  -4   6  -8 2207.38 1658.04   1
   4   6   8 2841.69 1114.87   1
  -4  -6  -8 1101.81 768.960   1
   9   5   5 3654.63 1698.70   1
  -9  -5  -5 2655.01 1446.24   1
   9  -5   5 4278.83 1552.87   1
  -9   5  -5 8840.59 1726.17   1
  -9   5  -5 2076.42 1572.36   1
   1  -5 -12 2102.13 1310.52   1
  -1   5  12 1432.94 2102.12   1
   1   5 -12 3337.22 1835.38   1
   1  -5 -12 1079.39 877.870   1
  -2  -7  -7 25005.5 2037.50   1
   2   7   7 27397.7 4019.30   1
  -2   7  -7 33606.3 3941.04   1
   3   8   2 -114.69 1634.91   1
  -3   8  -2 1049.75 1037.01   1
   9  -4 -13 18711.2 2781.72   1
   9   4 -13 13098.5 1705.47   1
   9  -4 -13 15441.7 1939.08   1
  -9   4  13 18752.9 2412.17   1
   9   4 -13 13564.1 2906.14   1
   2   8   3 5867.65 2160.71   1
  11   2   6 5451.00 1151.86   1
  11  -2   6 2706.61 1149.18   1
 -11  -2  -6 2278.24 1271.54   1
 -11   2  -6 4976.40 2146.24   1
  11  -2   6 1804.50 722.620   1
  11  -6  -3 6907.19 1155.18   1
 -11   6   3 7795.70 1360.24   1
  11   6  -3 11156.7 2353.57   1
   8  -2 -15 22101.0 3295.43   1
  -8   2  15 14648.0 1629.96   1
   8  -2 -15 20997.2 2224.83   1
   8   2 -15 19767.0 2100.55   1
   8   2 -15 19016.3 3686.15   1
  -3   2  15 6098.27 1616.41   1
   3   2 -15 2099.75 902.520   1
   3  -2 -15 3820.68 1814.48   1
   3  -2 -15 3081.97 1709.96   1
   3   2 -15 6776.67 1704.19   1
  13  -4   0 548.180 732.220   1
  13   4   0 4698.08 2466.99   1
  13   4   0 2159.63 797.090   1
 -13   4   0 -81.060 1396.39   1
  13  -4   0 1690.25 979.720   1
 -11   6   5 9169.75 1589.55   1
  11  -6  -5 4558.28 1631.73   1
  11   6  -5 4808.47 2173.38   1
  14   2 -11 905.020 1468.41   1
  14  -2 -11 -817.29 969.760   1
 -14   2  11 1867.63 1037.42   1
  14   2 -11 -406.09 617.090   1
 -14  -2  11 1253.39 938.340   1
  14  -2 -11 3542.53 1941.53   1
  13   2   3 3985.88 1377.26   1
 -13   2  -3 3963.29 1801.70   1
  13   2   3 3130.97 1351.81   1
  13  -2   3 3208.80 1249.17   1
  13  -2   3 3532.07 1302.35   1
   0   7  -8 11315.9 2206.71   1
   0   7   8 9554.47 2129.45   1
   0  -7  -8 18011.1 1633.32   1
  -8   7   6 -1154.3 1054.72   1
   8  -7  -6 3278.98 1383.75   1
  -2   4 -12 9909.57 2594.40   1
   2   4  12 10794.0 1356.79   1
   2   4  12 1724.46 2186.64   1
  -2  -4 -12 10168.9 1764.51   1
  -2  -4 -12 9588.78 1055.05   1
   8  -5 -12 11156.2 1472.68   1
  -8   5  12 10060.7 1674.63   1
   8   5 -12 9373.84 1781.07   1
  15  -2  -2 723.810 619.870   1
  15   2  -2 3201.57 1631.56   1
  15  -2  -2 341.260 867.100   1
 -15   2   2 -1644.5 2093.78   1
  15   2  -2 -534.82 652.110   1
  -5  -5  -9 -365.35 702.500   1
   5   5   9 -2111.3 1133.64   1
   5  -5   9 438.100 311.840   1
  -5   5  -9 -577.78 1904.59   1
   5   5   9 5122.16 2922.78   1
  11  -5   2 986.160 576.850   1
 -11   5  -2 -1534.0 962.450   1
 -11   5  -2 -1178.3 1343.47   1
  11   5   2 1537.03 651.120   1
 -10   6   8 3437.55 1466.12   1
  10   6  -8 4404.77 1945.04   1
  10  -6  -8 6920.03 1257.10   1
  14  -2   1 7695.09 1294.03   1
  14   2   1 3756.36 1727.62   1
  14  -2   1 4412.22 1736.51   1
  14   2   1 6966.58 1003.76   1
  -5   1 -12 5045.91 2936.66   1
   5   1  12 5149.99 1203.60   1
  -5  -1 -12 7533.11 1795.49   1
  -5   1 -12 10825.3 1757.48   1
  -5  -1 -12 7229.85 1130.90   1
   1   3 -14 1867.90 1635.74   1
   1   3 -14 980.700 926.240   1
   1  -3 -14 -987.92 796.410   1
  -1   3  14 -614.93 1449.39   1
   1  -3 -14 -187.23 1188.66   1
  11  -4   4 2000.68 735.840   1
 -11  -4  -4 -1184.3 971.070   1
  11  -4   4 -210.87 715.400   1
  11   4   4 2044.89 715.540   1
 -11   4  -4 2897.03 1746.63   1
 -11   4  -4 -550.44 1626.71   1
  14   0 -12 12007.7 1878.31   1
 -14   0  12 7958.86 1967.57   1
  14   0 -12 9870.25 1274.43   1
  -6   7   8 8279.07 1481.29   1
   6  -7  -8 7315.41 1156.28   1
  14  -4  -5 8786.23 1193.21   1
  14   4  -5 5060.76 3049.13   1
 -14   4   5 6545.48 1768.13   1
  15  -1 -10 6693.96 1920.47   1
  15   1 -10 777.060 1510.25   1
  15   1 -10 1241.46 940.920   1
  15  -1 -10 4938.92 1695.68   1
 -15  -1  10 4310.30 1633.45   1
 -15   1  10 6082.26 1785.75   1
  10   0 -15 -442.07 1450.75   1
  10   0 -15 -511.59 914.470   1
 -13   3  -2 17953.4 3424.83   1
  13   3   2 11298.5 2086.40   1
 -13   3  -2 2536.23 1348.76   1
  13   3   2 10065.8 2369.94   1
  13  -3   2 12493.5 1878.89   1
  13  -3   2 7766.53 1303.21   1
 -14   0  -2 79.1300 741.860   1
  14   0   2 2743.78 1170.81   1
  14   0   2 3030.35 1391.32   1
   1   0 -15 733.670 762.780   1
   1   0 -15 2319.54 2102.59   1
   4   6 -11 26354.9 6203.58   1
   4  -6 -11 31087.1 2916.92   1
   4  -6 -11 27682.4 2718.69   1
  -4   6  11 27625.0 2394.51   1
   8  -6 -10 1235.05 1076.25   1
  -8   6  10 1136.50 1198.75   1
   8   6 -10 1366.87 1331.99   1
   4   8   1 14448.1 3393.10   1
  -4   8  -1 12904.5 1876.86   1
   6  -2  11 4489.15 1755.30   1
  -6   2 -11 8193.44 2263.44   1
   6   2  11 8021.05 1668.26   1
  -6  -2 -11 2919.09 1204.69   1
  -6  -2 -11 3088.32 1654.24   1
  -6   2 -11 2284.27 1169.60   1
  11   5 -10 -662.57 1373.41   1
  11  -5 -10 2386.49 1138.23   1
 -11   5  10 -45.550 1097.46   1
  13   1 -13 1125.13 1465.20   1
  13  -1 -13 838.110 980.460   1
  13  -1 -13 1772.25 1211.23   1
  13   1 -13 4902.55 1626.86   1
 -13   1  13 2695.40 1016.74   1
  13  -1 -13 1998.42 1375.13   1
  13   1 -13 5084.62 2682.78   1
  12   4 -11 10892.3 1624.08   1
  12  -4 -11 10868.5 1713.78   1
 -12   4  11 10805.2 2351.11   1
  -1   8  -4 2245.14 970.680   1
   1   8   4 5844.46 1954.04   1
 -11   2  14 3537.32 1475.23   1
  11   2 -14 3561.64 1947.72   1
  11  -2 -14 544.200 999.990   1
  11   2 -14 823.360 1578.89   1
  11  -2 -14 7820.33 1664.31   1
  11   2 -14 2977.91 1175.79   1
  15  -2  -9 -715.10 1225.10   1
 -15   2   9 593.690 676.050   1
 -15  -2   9 -855.45 1048.51   1
  15   2  -9 2456.42 1801.44   1
  15   2  -9 -790.18 571.030   1
  15  -2  -9 713.040 1048.63   1
 -14   4   6 -469.48 1226.08   1
  14   4  -6 1193.03 1796.71   1
  14  -4  -6 2588.24 996.180   1
  10  -6   1 606.240 411.620   1
  10   6   1 1588.17 1346.97   1
 -10   6  -1 2096.87 928.960   1
 -14   4   4 1129.71 856.340   1
  14   4  -4 529.330 1608.77   1
  14  -4  -4 -609.43 757.000   1
  12   0 -14 6116.61 1677.06   1
  12   0 -14 2445.40 997.830   1
  12   0 -14 2504.14 1463.18   1
  -4   8   4 3437.39 1787.37   1
   5   6 -11 4743.25 1994.13   1
   5  -6 -11 849.020 676.060   1
  -5   6  11 3775.51 1769.44   1
  10   5 -11 1197.65 1406.89   1
 -10   5  11 2019.85 875.350   1
  10  -5 -11 3276.93 1460.36   1
   3   6 -11 8968.92 2090.46   1
   3  -6 -11 12501.8 1729.55   1
   3  -6 -11 1393.28 1215.28   1
  -3   6  11 6664.18 1469.47   1
 -11   4  12 248.480 1396.51   1
  11   4 -12 9969.07 2620.37   1
  11  -4 -12 5004.17 2633.75   1
 -11   6   2 3259.50 1814.14   1
  11  -6  -2 -1291.4 594.100   1
  11   6  -2 5458.13 1440.96   1
 -16   0   6 776.240 790.140   1
  16   0  -6 5001.61 2680.58   1
  16   0  -6 6348.35 2390.05   1
 -11   6   6 4172.99 1836.74   1
  11  -6  -6 3578.18 1566.03   1
  11   6  -6 537.090 1465.59   1
  12   5   0 1976.08 1462.47   1
  12  -5   0 2797.41 1026.46   1
 -12   5   0 4717.05 1958.63   1
   4   4  11 39283.4 20278.1   1
  -4  -4 -11 42128.1 21460.5   1
  -4   4 -11 37820.6 5156.36   1
  -4  -4 -11 40527.1 20302.6   1
   4   4  11 30327.7 3723.41   1
  -4   4 -11 39937.0 19902.1   1
   5   8  -2 7220.72 2714.94   1
  -5   8   2 7604.13 1647.18   1
   2   5  11 4275.36 2983.93   1
  -2   5 -11 1514.50 1375.27   1
  -2  -5 -11 3726.98 1610.30   1
   2   5  11 1888.50 843.730   1
  -2  -5 -11 -42.220 363.550   1
  16   0  -5 -1582.6 735.970   1
 -16   0   5 685.180 1735.88   1
  16   0  -5 791.900 1527.62   1
   5   7   5 1652.83 2245.24   1
  -5   7  -5 2576.80 1367.71   1
  -9   6  -3 819.380 704.140   1
  -9   6  -3 3091.03 1555.82   1
   9   6   3 1333.75 913.280   1
  -9  -6  -3 261.190 804.750   1
   9  -6   3 425.160 493.760   1
  -2   8   5 13347.5 2178.24   1
  14  -1 -12 1335.43 1405.01   1
  14   1 -12 -2051.4 1062.74   1
  14   1 -12 538.550 765.500   1
 -14   1  12 -1550.5 1027.89   1
 -14  -1  12 1070.67 755.960   1
  14  -1 -12 1702.97 999.250   1
  14  -1 -12 1412.20 1226.40   1
  14   1 -12 -1854.1 1378.18   1
  -5   8   1 1296.68 1283.45   1
   5   8  -1 508.420 1756.58   1
  -3   2 -13 161.270 748.740   1
  -3  -2 -13 2274.43 1069.33   1
  -3   2 -13 586.550 2107.69   1
  -3  -2 -13 -1066.0 1496.13   1
   0  -4 -13 8563.96 1599.07   1
   0   4 -13 6764.11 2310.02   1
   0   4  13 4632.78 3168.68   1
   0  -4 -13 2509.79 1087.33   1
  -9   0  -9 -134.54 1605.15   1
   9   0   9 -118.37 1378.04   1
  -9   0  -9 4369.95 2212.59   1
  10  -1 -15 8589.84 1634.02   1
  10   1 -15 6356.26 1218.39   1
  10  -1 -15 2466.57 1290.00   1
  10   1 -15 8747.31 1482.70   1
 -13   0  -4 12730.5 1539.57   1
  13   0   4 15379.5 3875.99   1
  13   0   4 14330.2 1710.24   1
 -15   3   5 2754.42 2067.67   1
  15   3  -5 340.930 335.380   1
  15  -3  -5 1680.32 848.090   1
  15   3  -5 -3210.8 1757.64   1
  15  -3  -5 -1496.0 1186.73   1
  14  -1   2 5250.00 1471.07   1
  14   1   2 1353.79 868.250   1
  14  -1   2 2805.08 1109.61   1
  14   1   2 4229.01 1637.09   1
 -14   1  -2 2940.97 1374.72   1
   1  -1 -15 2029.89 1020.64   1
   1   1 -15 4295.19 2221.12   1
   1   1 -15 3819.71 1578.25   1
   1  -1 -15 8850.13 1640.29   1
 -14   3  10 2397.06 1024.71   1
 -14  -3  10 1919.06 925.790   1
  14  -3 -10 3658.01 1606.54   1
  14  -3 -10 207.330 998.390   1
  14   3 -10 -654.35 1499.70   1
  -6   7  -4 8856.44 1336.91   1
   6   7   4 5494.69 3158.66   1
 -16   0   7 269.650 684.560   1
  16   0  -7 -663.14 1526.08   1
  16   0  -7 735.000 525.310   1
  -1   8   5 2383.45 1738.86   1
  -1  -6 -10 7832.65 1452.76   1
  -1  -6 -10 6305.83 877.220   1
   1   6  10 11299.0 2547.22   1
  -1   6 -10 2022.05 1852.45   1
  12  -3   4 10735.4 1462.72   1
  12  -3   4 10793.7 2462.37   1
 -12   3  -4 4738.89 1838.04   1
 -12   3  -4 19575.2 3756.89   1
  12   3   4 6646.19 1143.76   1
  15  -3  -6 1545.04 774.950   1
 -15   3   6 -1410.0 1357.66   1
  15   3  -6 1150.65 698.450   1
  15   3  -6 1187.34 2052.04   1
  15  -3  -6 2058.88 1245.86   1
  -5   8   3 2771.61 1388.33   1
   9   7  -3 -755.41 1343.84   1
   9  -7  -3 3023.50 1351.96   1
  -9   7   3 4311.09 2014.72   1
 -14   3   0 -338.07 1715.82   1
  14  -3   0 3961.51 1564.64   1
  14   3   0 -98.100 1556.80   1
  14  -3   0 4845.25 1621.34   1
  14   3   0 6124.41 1213.77   1
 -10   5  -4 1946.25 1323.10   1
  10   5   4 -277.78 1006.41   1
 -10  -5  -4 -364.28 791.140   1
  10  -5   4 1305.85 818.490   1
 -10   5  -4 2561.73 1018.97   1
   4   7   6 3102.63 2533.45   1
  -4   7  -6 6551.21 1924.44   1
  -4  -7  -6 2042.44 800.330   1
  10   0   8 -3153.9 1341.08   1
 -10   0  -8 2365.09 1554.66   1
 -10   0  -8 -395.36 1312.14   1
  14  -4  -7 2382.18 1307.40   1
 -14   4   7 11421.0 1788.36   1
  14  -4  -7 11318.4 1327.43   1
  14   4  -7 5460.19 1702.43   1
  -3   8   5 3213.19 1478.76   1
 -14   4   3 1716.45 1155.74   1
  14  -4  -3 -111.12 674.920   1
  14   4  -3 -1271.9 1504.03   1
   6  -6 -11 28369.9 2517.25   1
  -6   6  11 21692.4 2042.02   1
  12   1 -14 1824.53 1272.37   1
  12  -1 -14 133.760 806.790   1
  12  -1 -14 4011.22 1796.88   1
  12  -1 -14 5439.46 1668.57   1
  12   1 -14 3698.82 1549.90   1
 -12   1  14 3258.67 1284.62   1
  12   1 -14 3026.80 1302.25   1
  -2   3 -13 2714.65 1406.27   1
  -2  -3 -13 641.530 1601.20   1
  -2   3 -13 2035.86 1075.73   1
  -2  -3 -13 6554.70 1179.51   1
   2   3  13 7771.19 2211.49   1
   8   7   1 14405.6 2156.13   1
  -8   7  -1 20667.4 3332.19   1
   8  -7   1 11883.9 2407.68   1
   5  -4 -14 192.650 934.710   1
   5  -4 -14 1865.58 762.230   1
   5   4 -14 1611.00 872.770   1
  -5   4  14 1908.42 1133.83   1
  -9   7   4 9323.08 1822.80   1
   9  -7  -4 8012.89 1118.55   1
   9   7  -4 3430.48 1622.65   1
  -1   2 -14 -339.04 774.930   1
  -1  -2 -14 1258.67 1045.67   1
  -1   2 -14 2925.41 1457.33   1
   1   2  14 4033.95 2148.36   1
  -1  -2 -14 5229.41 1075.51   1
  -3  -6  -9 1075.59 809.600   1
   3   6   9 6422.43 2043.66   1
  -3   6  -9 -3080.3 1620.52   1
   3   6   9 3614.68 1619.15   1
   2   6 -11 13960.7 2444.51   1
   2  -6 -11 301.510 701.130   1
  -2   6  11 5493.79 1569.53   1
  15   0   0 904.500 744.360   1
  15   0   0 5324.86 1788.70   1
  -9   2  15 557.190 784.150   1
   9   2 -15 -1485.1 1560.34   1
   9  -2 -15 -713.81 1588.70   1
   9   2 -15 -411.77 756.530   1
   9  -2 -15 1405.87 1046.70   1
   2  -2 -15 2566.33 1161.45   1
   2  -2 -15 -279.88 1144.31   1
   2   2 -15 1944.85 1059.57   1
  -2   2  15 -830.04 1285.19   1
   2   2 -15 802.050 710.790   1
  -8   0 -10 35641.8 4759.19   1
  -8   0 -10 34756.8 3207.19   1
   8   0  10 31591.7 5958.95   1
  16   0  -4 6306.93 1666.58   1
  16   0  -4 3279.59 1202.95   1
  13  -5  -5 59.1700 750.290   1
 -13   5   5 655.370 633.590   1
  13   5  -5 4178.63 2018.39   1
  -6   4  14 1232.47 785.070   1
   6  -4 -14 -612.65 1170.35   1
   6   4 -14 2980.84 1311.95   1
   6  -4 -14 -408.37 976.160   1
  16   1  -6 1373.78 913.460   1
  16  -1  -6 -2999.9 832.230   1
  16   1  -6 1710.71 1929.01   1
  16  -1  -6 3198.43 2141.35   1
 -16   1   6 3146.21 1506.55   1
  15  -3  -4 3131.37 1137.07   1
  15   3  -4 1736.85 1889.85   1
  15  -3  -4 339.250 1165.30   1
 -15   3   4 3184.82 1529.82   1
  15   3  -4 1203.12 707.090   1
  -2   0 -14 131.170 747.810   1
  -2   0 -14 1836.86 976.470   1
  13  -5  -4 1950.97 698.350   1
 -13   5   4 4033.92 1558.36   1
  13   5  -4 -1859.3 1406.33   1
  -9   7   2 1045.14 777.820   1
   9  -7  -2 -175.03 624.450   1
   9   7  -2 757.980 1308.90   1
   3   8   3 3013.97 2046.86   1
 -16   1   5 -35.290 743.150   1
  16  -1  -5 -1183.3 1947.18   1
  16   1  -5 -3195.7 1733.11   1
  16  -1  -5 3384.00 1215.84   1
  16   1  -5 3103.18 1136.10   1
  -5   8   0 3629.40 1747.93   1
   5   8   0 3240.81 2068.07   1
   4  -4 -14 -317.33 1210.92   1
   4   4 -14 -1517.1 1789.60   1
  -4   4  14 1019.79 1234.36   1
   4  -4 -14 2229.46 1095.78   1
   3   7  -9 14752.9 2186.31   1
  -3   7   9 20226.8 2149.10   1
   3  -7  -9 31592.3 2568.46   1
   0   5  12 2996.08 1839.89   1
   0  -5 -12 996.910 818.970   1
   0  -5 -12 5580.49 994.760   1
   0   5 -12 4282.08 1800.78   1
  12   5  -9 2275.00 1576.97   1
  12  -5  -9 316.400 836.630   1
 -12   5   9 4572.09 2314.44   1
 -13   4  10 7714.44 1429.53   1
  13  -4 -10 1347.79 1339.65   1
  13   4 -10 6335.51 1535.61   1
  13  -4 -10 5039.25 2845.12   1
 -12   2  -5 2355.49 1875.18   1
  12  -2   5 1277.56 842.300   1
  12  -2   5 -30.670 1233.89   1
  12   2   5 -1465.7 1302.69   1
  15  -3  -7 1350.32 911.170   1
  15   3  -7 -414.32 1774.44   1
 -15   3   7 3991.00 1487.26   1
  15  -3  -7 2970.65 1443.14   1
  15   3  -7 1049.83 678.350   1
 -10   3  14 -1491.5 907.490   1
  10  -3 -14 1436.10 916.770   1
  10   3 -14 -1276.3 1602.94   1
  10  -3 -14 653.720 1051.27   1
  10   3 -14 -727.41 1802.56   1
  -1  -7  -8 3667.18 1376.67   1
  -1   7  -8 -255.22 1240.90   1
   1   7   8 3156.43 1836.21   1
  -4   5 -10 5768.01 2683.97   1
   4   5  10 1963.43 2042.94   1
  -4  -5 -10 -39.120 562.670   1
   4   5  10 2452.15 1006.85   1
  -4  -5 -10 1276.26 912.580   1
   4  -7  -9 3549.99 1457.38   1
  -4   7   9 8321.43 1619.05   1
   0   8  -5 2346.20 1306.96   1
   0   8   5 2821.04 1582.13   1
  -9  -1  -9 5015.27 2796.54   1
  -9   1  -9 2036.37 1411.31   1
   9  -1   9 2124.70 1590.70   1
   9   1   9 1080.03 849.190   1
  -9   1  -9 2701.37 1347.69   1
  -9  -1  -9 4378.74 1806.55   1
 -13   1  -4 -433.05 846.270   1
  13   1   4 436.280 619.510   1
  13  -1   4 -175.59 1125.20   1
  13   1   4 -344.51 913.390   1
  13  -1   4 -1033.1 941.970   1
   8  -4   8 5833.75 1130.79   1
   8  -4   8 5615.09 817.160   1
  -8   4  -8 1805.18 2524.44   1
  -8  -4  -8 8679.48 1483.75   1
   8   4   8 12423.0 1918.66   1
  -8   7   7 4052.84 1535.40   1
   8  -7  -7 4990.76 1708.97   1
   4   8   2 9387.94 1800.49   1
  -4   8  -2 9977.68 1704.70   1
  11  -6  -1 757.400 545.170   1
 -11   6   1 3224.52 1250.95   1
  11   6  -1 827.800 761.490   1
 -16   1   7 9117.97 1797.97   1
  16   1  -7 6421.70 1232.44   1
 -16  -1   7 7477.50 2346.26   1
  16  -1  -7 6255.84 1142.85   1
  16  -1  -7 7739.59 2438.10   1
  16   1  -7 8991.63 2325.97   1
 -13   5   6 1938.94 776.080   1
  13  -5  -6 -1239.6 727.640   1
  13   5  -6 -2030.1 1461.42   1
   4   3  12 7717.37 1381.98   1
  -4  -3 -12 6809.99 1646.20   1
  -4   3 -12 8189.27 1858.98   1
  -4   3 -12 3845.69 1685.39   1
  -4  -3 -12 8238.35 1332.90   1
   2   8   4 -661.71 1415.34   1
  -2   8  -4 -85.320 831.720   1
  -7   7   8 2173.25 1377.37   1
   7  -7  -8 3538.79 1710.59   1
   9  -7  -5 3662.12 1641.53   1
  -9   7   5 3398.13 1470.62   1
   9   7  -5 194.680 1234.06   1
  -4   0 -13 -2030.0 922.870   1
  -4   0 -13 -6060.3 1662.24   1
  -7   7  -3 -404.91 1020.87   1
  -7   7  -3 5022.98 1402.25   1
   7   7   3 -1423.0 1791.70   1
  16   0  -8 -41.300 738.570   1
  16   0  -8 1270.59 1451.62   1
 -16   0   8 2399.27 1355.10   1
  15   2  -1 2621.15 1164.02   1
 -15   2   1 -1459.6 2210.72   1
  15  -2  -1 2394.57 1399.52   1
  15   2  -1 4091.19 1820.68   1
  15  -2  -1 2048.46 1036.08   1
 -10  -1  -8 2794.34 2028.19   1
 -10   1  -8 3058.76 2032.55   1
 -10  -1  -8 -749.41 1301.05   1
  10  -1   8 2272.79 914.790   1
  10   1   8 2429.80 926.060   1
 -10   1  -8 429.460 1327.96   1
  -5   8   4 -2116.4 1095.04   1
  11  -6  -7 796.410 948.770   1
 -11   6   7 1916.62 1137.13   1
  11   6  -7 3292.76 2259.10   1
  -2   7   9 -451.86 1121.02   1
   2   7  -9 -581.20 1147.68   1
   2  -7  -9 1616.65 1121.19   1
   2  -7  -9 2264.12 1235.64   1
   9  -5 -12 14782.2 2200.14   1
   9   5 -12 14654.2 2747.64   1
  -9   5  12 15797.3 2618.44   1
  -9  -4  -7 361.280 1112.72   1
   9  -4   7 503.720 378.270   1
  -9   4  -7 -3252.3 1396.49   1
   9   4   7 -2118.2 1260.47   1
   9  -4   7 -919.50 981.920   1
  15   0 -11 2571.80 1553.27   1
 -15   0  11 334.520 824.990   1
  15   0 -11 -36.550 796.660   1
  15   0 -11 2944.70 1340.47   1
  -9  -3  -8 2825.04 1541.50   1
  -9   3  -8 2618.84 1754.61   1
   9   3   8 9460.57 2051.81   1
   9  -3   8 3940.50 1836.84   1
  11   0   7 -1005.2 1376.08   1
 -11   0  -7 1783.51 1358.44   1
  -4   8   5 4318.84 2552.57   1
   6   0 -16 -617.44 915.930   1
   6   0 -16 6497.61 1749.93   1
  10  -4 -13 10222.1 2009.46   1
 -10   4  13 8325.08 1883.90   1
  10   4 -13 12194.6 2293.13   1
  13  -5  -3 2543.48 1187.51   1
 -13   5   3 4180.36 1996.51   1
  13   5  -3 1330.92 1651.02   1
  15   1   0 4105.63 2128.23   1
  15  -1   0 4110.21 2167.12   1
  15   1   0 5590.67 1230.54   1
  15  -1   0 6351.36 1179.53   1
   7  -4 -14 1167.76 839.050   1
   7   4 -14 6149.21 2006.33   1
  -7   4  14 2207.01 1250.09   1
   7  -4 -14 7146.33 1625.77   1
  -8  -3  -9 622.400 926.200   1
   8  -3   9 -592.76 955.310   1
   8   3   9 -405.86 1397.14   1
  -8   3  -9 -4703.4 1750.38   1
  -8   1 -10 -484.10 1234.32   1
  -8  -1 -10 1300.84 1490.15   1
   8   1  10 4098.18 2205.73   1
  -8  -1 -10 2771.54 1803.79   1
   8  -1  10 1275.55 1078.84   1
  -8   1 -10 4101.84 2037.98   1
  16  -1  -4 -1546.8 879.530   1
  16   1  -4 2519.00 1947.37   1
  16   1  -4 -877.06 718.680   1
  16  -1  -4 -733.63 1852.06   1
 -16   1   4 7110.00 2000.08   1
  -3  -7  -7 -1148.1 493.160   1
  -3   7  -7 -2214.1 1266.03   1
   3   7   7 593.170 1974.27   1
   7   4   9 5498.61 1179.53   1
   7  -4   9 3393.72 1563.62   1
  -7   4  -9 5843.55 1818.91   1
  -7  -4  -9 4549.12 1169.59   1
  -2   1 -14 3776.91 1855.74   1
  -2   1 -14 3273.17 2087.40   1
  -2  -1 -14 3189.41 2325.33   1
  -2  -1 -14 1921.32 1138.63   1
   5   0 -16 12207.4 2826.42   1
   5   0 -16 6456.47 1440.93   1
   6  -3 -15 9916.26 2071.01   1
  -6   3  15 11846.3 1984.85   1
   6   3 -15 9134.27 2664.12   1
   6  -3 -15 9787.14 2278.50   1
   5  -7  -9 19945.6 2863.92   1
  -5   7   9 14761.0 2424.77   1
   5   3 -15 8300.10 2660.92   1
   5  -3 -15 9440.80 1939.31   1
   5  -3 -15 2975.79 1544.83   1
  -5   3  15 6747.58 1529.19   1
   5   5 -13 3716.21 1776.09   1
   5  -5 -13 -45.860 852.110   1
   5  -5 -13 1846.69 1059.95   1
  -5   5  13 1676.33 1635.28   1
   7   0 -16 1536.58 1143.65   1
   7   0 -16 6974.24 2208.76   1
   0   3 -14 -0.3900 414.100   1
   0  -3 -14 725.060 702.970   1
   0   3 -14 -3256.3 2074.02   1
   0  -3 -14 898.240 902.840   1
   0   3  14 349.110 1481.59   1
   9  -7  -1 -1310.1 570.490   1
   9   7  -1 -219.08 1292.13   1
  -9   7   1 -699.65 1181.30   1
   5   2  12 15575.8 2772.30   1
  -5  -2 -12 16656.6 3173.45   1
  -5   2 -12 13694.0 3012.49   1
  -5  -2 -12 11879.7 2259.98   1
  -5   2 -12 11937.9 2214.95   1
   3   4 -14 2777.22 1914.27   1
  -3   4  14 1672.39 1400.28   1
   3  -4 -14 -354.67 1262.18   1
   3  -4 -14 -385.01 887.930   1
 -15   3   3 3199.50 2293.19   1
  15  -3  -3 27.5300 1112.43   1
  15  -3  -3 2394.94 1122.28   1
  15   3  -3 5758.94 1289.63   1
  15   3  -3 1154.46 733.000   1
   7  -6 -11 1645.42 1226.19   1
  -7   6  11 1963.67 1189.28   1
 -14   4   8 -427.22 1185.22   1
  14   4  -8 4594.46 1831.91   1
  14  -4  -8 1916.42 1357.08   1
  14  -4  -8 1068.46 936.030   1
   4   5 -13 4398.39 1169.14   1
   4  -5 -13 652.670 839.310   1
   4  -5 -13 -421.05 1094.16   1
  -4   5  13 1616.78 1231.66   1
  -7   0 -11 253.990 2304.82   1
  -7   0 -11 -12.390 1216.08   1
   7   0  11 -1245.2 1243.59   1
  14   4  -2 5021.60 1098.96   1
  14  -4  -2 6087.28 1117.22   1
  14   4  -2 4230.11 2277.00   1
 -14   4   2 9151.73 2142.21   1
  13   4   1 31016.3 4538.74   1
 -13   4  -1 34020.1 6780.09   1
  13  -4   1 35873.2 4992.11   1
  13   4   1 36788.6 5101.59   1
  13  -4   1 44038.4 21465.6   1
   7   6   6 10555.8 1749.92   1
   7  -6   6 9663.39 1964.27   1
   7   6   6 3722.93 3127.15   1
  -7   6  -6 11081.6 2667.97   1
  -7  -6  -6 7549.43 1340.48   1
  15  -2 -10 1244.13 1089.88   1
  15   2 -10 -1110.7 1433.65   1
  15  -2 -10 3092.96 1672.99   1
 -15  -2  10 -590.36 981.160   1
 -15   2  10 1404.91 1106.17   1
  15   2 -10 -179.04 381.310   1
 -12   4  -3 -1422.6 1546.65   1
 -12   4  -3 -1681.3 1001.14   1
  12   4   3 -1110.2 1072.91   1
  12  -4   3 2954.19 1407.64   1
  12  -4   3 981.020 597.930   1
  16   0  -3 -836.94 751.490   1
  16   0  -3 -714.12 1437.41   1
  10  -6  -9 9057.74 1729.47   1
  10   6  -9 7881.31 2110.99   1
 -10   6   9 6737.44 1586.95   1
  10   3   7 1950.61 1329.07   1
 -10   3  -7 1654.67 1428.56   1
  10  -3   7 3767.75 1779.81   1
 -10  -3  -7 1072.38 1111.34   1
  10  -3   7 583.280 467.850   1
   1   6 -11 3431.10 1736.62   1
   1  -6 -11 4744.05 1246.69   1
   1  -6 -11 3001.09 1417.58   1
  -1   6  11 3535.58 1828.85   1
  -6   6  -7 -553.40 1541.94   1
   6   6   7 -1323.8 1918.96   1
   6   6   7 2710.53 1295.15   1
  -6  -6  -7 1172.74 632.300   1
  13   3 -12 14346.7 2813.03   1
  13  -3 -12 13353.8 2743.31   1
  13  -3 -12 10151.3 2060.78   1
 -13   3  12 17863.0 3347.77   1
   9   6 -10 1192.63 1303.39   1
  -9   6  10 5236.46 1392.32   1
   9  -6 -10 4526.66 1050.61   1
  11   0 -15 691.750 948.810   1
  11   0 -15 3213.01 1582.91   1
   6   5 -13 6344.05 2084.00   1
  -6   5  13 2029.90 1218.97   1
   6  -5 -13 2207.43 1045.27   1
   6  -5 -13 635.060 823.050   1
  13  -2 -13 3562.61 1723.28   1
  13   2 -13 4746.81 960.610   1
 -13   2  13 7692.70 1742.07   1
  13  -2 -13 -331.76 1135.80   1
  13   2 -13 5245.00 1641.45   1
  13  -2 -13 4689.18 1360.98   1
  -4  -1 -13 1398.25 1197.49   1
  -4   1 -13 5382.11 1180.39   1
  -4  -1 -13 2893.01 1421.98   1
  -4   1 -13 2921.80 1559.75   1
   5   8   1 36432.2 5541.62   1
  -5   8  -1 36984.3 5176.85   1
  16   1  -8 7713.06 1574.81   1
  16  -1  -8 5937.12 1484.00   1
  16   1  -8 5235.20 1566.44   1
  16  -1  -8 15078.7 3088.20   1
 -16   1   8 2222.69 1204.12   1
 -16  -1   8 3460.85 1762.21   1
  15  -3  -8 -1047.1 899.230   1
  15   3  -8 686.960 1779.09   1
  15  -3  -8 2893.25 1555.24   1
 -15   3   8 -1031.3 1152.04   1
   0   0 -15 3481.64 1930.30   1
   0   0 -15 462.840 582.960   1
   7  -3 -15 -670.56 1429.48   1
  -7   3  15 4630.82 1354.44   1
   7  -3 -15 -987.57 1131.58   1
   7   3 -15 -1124.3 1532.03   1
  13  -5  -7 1947.56 1039.46   1
 -13   5   7 912.390 666.650   1
  13   5  -7 -2411.4 1509.79   1
   4  -3 -15 735.630 549.830   1
   4  -3 -15 2931.73 1655.08   1
  -4   3  15 -1693.1 1040.66   1
   4   3 -15 -863.65 1721.60   1
 -12   3  13 2787.30 1543.10   1
  12   3 -13 1388.31 1766.93   1
  12  -3 -13 -153.99 1138.33   1
 -15   1  11 6218.89 2098.68   1
  15  -1 -11 7875.95 1309.35   1
  15   1 -11 7187.57 1318.71   1
  15   1 -11 9153.90 2280.02   1
  15  -1 -11 8928.63 1849.62   1
 -15  -1  11 10050.6 2325.31   1
  11   1   7 -4043.1 1459.99   1
 -11  -1  -7 -896.80 1139.87   1
 -11   1  -7 866.870 1234.87   1
 -11  -1  -7 -1070.7 1121.17   1
  11  -1   7 1485.15 1057.33   1
   6   1 -16 552.000 783.680   1
   6  -1 -16 897.480 1066.82   1
   6   1 -16 1224.94 971.660   1
   6  -1 -16 858.400 1016.97   1
  -7   3 -10 -888.63 860.350   1
   7  -3  10 2990.97 1451.94   1
  -7   3 -10 -521.49 1811.52   1
  -7  -3 -10 -1770.7 962.100   1
   7   3  10 -2286.9 1411.84   1
  -7  -3 -10 -1721.8 774.340   1
 -10   4  -6 811.770 1034.20   1
  10   4   6 272.140 493.190   1
  10  -4   6 3183.00 1495.43   1
  10  -4   6 -959.43 777.130   1
 -10  -4  -6 1396.80 1259.44   1
 -10   4  -6 1027.30 1322.82   1
   1   8   5 236.680 1462.84   1
  -1   8  -5 -304.20 802.370   1
   1  -7  -9 331.600 797.280   1
   1   7  -9 518.650 1387.82   1
  -1   7   9 -3562.9 1266.98   1
   1  -7  -9 -45.880 572.720   1
   4   0 -16 36094.2 4995.09   1
   4   0 -16 24363.2 5546.21   1
  10   6   2 4514.02 1663.86   1
  10  -6   2 4221.44 1737.56   1
 -10   6  -2 -96.410 1109.27   1
 -10   6  -2 2695.37 1261.64   1
   5  -1 -16 563.230 1025.48   1
   5   1 -16 95.4600 735.670   1
   5  -1 -16 1032.44 655.300   1
   5   1 -16 2426.93 1414.93   1
  -8  -6  -5 1053.81 1194.97   1
   8  -6   5 -314.80 527.320   1
  -8   6  -5 4580.63 2034.97   1
   8   6   5 2770.12 1229.88   1
  -9   7   6 -494.65 1124.56   1
   9   7  -6 1270.47 1362.85   1
   9  -7  -6 5516.69 1048.78   1
   3   5 -13 -2330.9 1752.87   1
  -3   5  13 2503.66 1488.62   1
   3  -5 -13 3329.23 1742.13   1
   3  -5 -13 2725.70 1305.74   1
  -6   8   2 4320.22 2330.74   1
   6   8  -2 386.070 1548.68   1
   7  -1 -16 1663.50 1246.78   1
   7   1 -16 4777.60 2110.14   1
   7   1 -16 2469.93 1512.49   1
   7  -1 -16 8391.68 1804.49   1
  12  -5   1 6344.99 1006.27   1
  12   5   1 4408.19 1424.70   1
 -12   5  -1 4600.76 1462.66   1
   8   0 -16 13055.7 2887.88   1
   8   0 -16 29226.9 4168.04   1
  13  -5  -2 5201.67 1185.17   1
 -13   5   2 1956.52 1347.24   1
  13   5  -2 2775.05 1843.58   1
  14   2 -12 455.660 405.950   1
  14  -2 -12 -739.10 1158.30   1
 -14   2  12 -359.28 1181.37   1
  14   2 -12 4390.83 1572.66   1
  -7  -1 -11 1880.86 1131.11   1
  -7   1 -11 -1378.0 2007.00   1
  -7   1 -11 2742.50 1557.21   1
  -7  -1 -11 4969.91 1342.60   1
   7  -1  11 -1204.9 1145.59   1
   7   1  11 -712.54 1335.01   1
   6  -4  10 863.740 737.220   1
   6   4  10 6127.27 1244.89   1
  -6  -4 -10 2495.24 1173.15   1
  -6   4 -10 4492.26 1920.16   1
   8  -4 -14 284.050 974.640   1
   8   4 -14 2090.32 1555.88   1
   8  -4 -14 -904.90 1145.40   1
  -8   4  14 3501.76 1935.23   1
  -6   8   3 -896.82 1120.45   1
  11   5   3 1500.63 1149.10   1
  11  -5   3 781.890 537.000   1
 -11   5  -3 2404.30 1285.66   1
 -11   5  -3 1968.83 1306.37   1
  10  -2 -15 8702.22 1783.72   1
 -10   2  15 7432.02 1562.11   1
  10   2 -15 6978.52 1822.02   1
  10  -2 -15 9792.33 2384.22   1
  10   2 -15 11073.3 2029.81   1
  -2   8   6 33161.9 4844.11   1
   5   6   8 5390.78 1291.86   1
   5   6   8 1006.67 2121.29   1
  -5  -6  -8 1512.91 910.910   1
  -5   6  -8 3249.03 1964.08   1
  16   1  -3 2118.64 1751.34   1
  16  -1  -3 2172.73 1370.68   1
 -16   1   3 -3205.7 1842.95   1
  16  -1  -3 -833.57 888.220   1
  16   1  -3 2268.01 1033.80   1
  16   0  -9 412.840 439.530   1
  16   0  -9 274.450 1366.40   1
 -16   0   9 1645.07 1113.97   1
  -5   8   5 1322.34 1290.49   1
  -6   7   9 6903.10 1674.21   1
   6  -7  -9 10167.2 1812.00   1
  14   2   2 1777.11 829.620   1
  14  -2   2 1115.69 925.730   1
  14  -2   2 1258.58 714.510   1
  14   2   2 566.440 639.620   1
 -14   2  -2 1676.25 1013.54   1
  -1   2  15 -2198.9 1287.91   1
   1  -2 -15 -735.11 855.930   1
   1   2 -15 1095.35 840.250   1
   1  -2 -15 6033.10 1435.01   1
   1   2 -15 6440.71 1727.14   1
  -3  -4 -12 1828.83 840.850   1
  -3   4 -12 758.980 794.990   1
  -3   4 -12 -282.93 2037.03   1
   3   4  12 -2361.2 2039.55   1
  -3  -4 -12 1289.70 922.060   1
   3   4  12 675.920 594.350   1
  11  -1 -15 2657.90 1437.00   1
  11   1 -15 2270.73 1123.63   1
  11   1 -15 1698.15 938.200   1
  11  -1 -15 2845.93 1409.08   1
  -6   8   1 30746.0 5934.26   1
   6   8  -1 35699.8 5732.40   1
  -3   8   6 5110.87 1800.20   1
   8  -7   2 -291.49 471.750   1
  -8   7  -2 2538.52 1444.70   1
   8   7   2 -2278.7 1002.90   1
 -12   0  -6 4000.46 1873.10   1
  12   0   6 5817.59 1211.34   1
   0   1 -15 -2372.0 1427.34   1
   0  -1 -15 2924.03 1420.45   1
   0   1 -15 1114.77 1180.97   1
   0  -1 -15 4164.08 2033.56   1
  -8  -5  -7 3666.76 1651.58   1
  -8   5  -7 423.700 1587.50   1
   8  -5   7 936.200 596.010   1
   8   5   7 3081.37 1508.24   1
   7   5 -13 774.130 1426.96   1
   7  -5 -13 -540.13 980.670   1
  -7   5  13 2411.47 1331.15   1
   7  -5 -13 85.4800 892.700   1
  11  -6   0 1607.07 1002.64   1
 -11   6   0 -184.39 1006.20   1
  11   6   0 -1961.3 1176.72   1
  12   2 -14 11445.7 2155.05   1
 -12   2  14 12618.2 2348.96   1
  12   2 -14 10132.0 1991.60   1
  12   2 -14 14879.4 2369.77   1
  12  -2 -14 18900.5 3266.80   1
  -1   4 -13 21072.6 4261.06   1
   1   4  13 23683.0 4715.81   1
  -1  -4 -13 35898.6 4962.44   1
  -1  -4 -13 22203.9 4670.28   1
  -2  -6 -10 1527.28 766.550   1
   2   6  10 -1543.2 1934.35   1
  -2   6 -10 3754.82 2388.95   1
  -2  -6 -10 1255.28 744.390   1
   2   6  10 1106.93 727.910   1
  -7  -5  -8 4636.50 980.120   1
  -7   5  -8 5036.95 1758.74   1
   7  -5   8 2683.81 1197.04   1
   7  -5   8 8333.37 1712.22   1
   7   5   8 4031.73 1883.65   1
  -1   8   6 7266.02 1951.90   1
   4  -1 -16 -201.26 808.650   1
   4   1 -16 2680.81 1434.51   1
   4  -1 -16 -328.26 731.790   1
   4   1 -16 5368.24 1868.75   1
 -11   5  11 4088.21 1933.27   1
  11  -5 -11 14514.5 2297.47   1
  11   5 -11 6417.70 2040.39   1
  -2   4  14 -2970.3 1258.36   1
   2   4 -14 433.160 1092.47   1
   2  -4 -14 -1405.9 1248.73   1
   2  -4 -14 1098.10 1320.33   1
  11  -3   6 4146.14 1778.08   1
 -11  -3  -6 2743.31 1460.58   1
  11   3   6 3504.18 1510.50   1
 -11   3  -6 -2376.4 2005.51   1
 -11   3  -6 3982.45 2052.77   1
  11  -3   6 2410.65 1100.99   1
  -8   3  15 1405.07 1086.09   1
   8   3 -15 6147.66 1903.34   1
   8  -3 -15 4226.17 1972.76   1
   8  -3 -15 7017.25 1607.59   1
  -9   7   0 22839.3 4934.77   1
   9  -7   0 15894.0 2255.17   1
   9   7   0 15710.4 2637.50   1
  -3   3  15 15398.4 3097.29   1
   3   3 -15 10354.4 2399.59   1
   3  -3 -15 9235.43 1768.43   1
   3  -3 -15 13126.8 2290.98   1
 -16   2   6 14327.6 2891.67   1
  16   2  -6 15382.1 3350.42   1
  16  -2  -6 13293.4 2711.25   1
  16   2  -6 22439.0 4190.75   1
  16  -2  -6 18166.6 4189.96   1
  11  -6  -8 8774.41 1573.95   1
 -11   6   8 8969.30 2048.11   1
  11   6  -8 8102.59 2121.20   1
   4   8   3 10347.6 3003.41   1
  14   3 -11 830.890 1564.82   1
  14  -3 -11 -736.13 1081.94   1
 -14   3  11 1705.04 990.100   1
  14  -3 -11 4587.03 1886.92   1
 -13   3  -3 3267.08 1466.72   1
 -13   3  -3 -2227.9 1086.42   1
  13   3   3 1040.41 729.460   1
  13  -3   3 1649.07 741.680   1
  13  -3   3 1639.08 720.520   1
  13   3   3 6425.47 1508.23   1
  -3   8  -4 5664.36 1484.87   1
   3   8   4 4942.81 1833.70   1
  -2  -7  -8 1337.05 841.030   1
   2   7   8 -2138.3 1944.83   1
  -2   7  -8 2866.18 2074.88   1
  15  -3  -2 7773.27 1435.48   1
 -15   3   2 10085.9 2444.69   1
  15   3  -2 5190.99 1826.10   1
  15  -3  -2 9379.16 1869.04   1
  15   3  -2 7028.02 1345.52   1
 -16   2   5 1474.01 982.200   1
  16   2  -5 3191.00 1346.68   1
  16  -2  -5 4123.84 2496.48   1
  16   2  -5 6141.52 1781.19   1
  16  -2  -5 4127.10 1783.05   1
 -14   0  13 1612.07 1215.25   1
  14   0 -13 -81.160 777.240   1
  14   0 -13 -1898.2 1083.91   1
  14   0 -13 1772.05 1301.56   1
   8   1 -16 826.740 948.350   1
   8  -1 -16 1580.65 1290.20   1
  14  -3   1 -758.62 974.040   1
  14   3   1 808.100 586.400   1
  14  -3   1 1444.20 888.840   1
  14   3   1 3620.34 2016.45   1
 -14   3  -1 10059.8 2629.35   1
  -6   8   4 2252.30 1275.46   1
   3   5  11 5190.44 2515.99   1
  -3  -5 -11 5192.77 957.250   1
   3   5  11 6749.94 1200.53   1
  -3  -5 -11 63.5100 748.600   1
  -3   5 -11 6955.29 1851.84   1
  -1   5 -12 11874.3 2816.60   1
   1   5  12 17962.0 2761.50   1
  -1  -5 -12 10483.0 2240.09   1
   1   5  12 12284.5 3000.34   1
  -1  -5 -12 11744.3 2600.86   1
 -12   4  12 2146.73 1161.47   1
  12   4 -12 66.8600 1475.06   1
  12  -4 -12 1467.19 1098.62   1
  14   0   3 1175.82 764.210   1
  14   0   3 -1751.3 1006.49   1
 -14   0  -3 -1350.2 794.970   1
   9  -5   6 -424.83 639.560   1
  -9   5  -6 117.040 1271.62   1
  -9  -5  -6 3715.54 1840.44   1
   9   5   6 3734.86 1603.09   1
  -9  -2  -9 1280.53 1263.98   1
  -9   2  -9 -187.77 1814.57   1
  -9   2  -9 2958.85 1687.98   1
   9  -2   9 4413.53 1752.00   1
   9   2   9 2165.98 1348.26   1
  -9  -2  -9 5038.85 1470.87   1
  13  -2   4 14726.3 2871.94   1
 -13   2  -4 9327.14 1942.79   1
  13   2   4 12341.7 2712.57   1
  13   2   4 12238.3 2422.82   1
  13  -2   4 10021.6 1989.98   1
  13   0 -14 41629.6 20246.9   1
  13   0 -14 27032.2 5644.78   1
  13   0 -14 33624.2 6924.22   1
   3   0 -16 421.050 794.270   1
   3   0 -16 -495.37 764.700   1
   4  -8  -6 1746.13 1060.86   1
  16   1  -9 7395.37 1755.79   1
 -16   1   9 7534.72 1879.17   1
 -16  -1   9 5617.35 1433.14   1
  16  -1  -9 6679.96 2263.02   1
  16   1  -9 8678.08 2075.83   1
  16  -1  -9 7976.82 1484.77   1
   8   6 -11 8451.20 2095.14   1
  -8   6  11 2598.65 1616.72   1
   8  -6 -11 6642.25 1450.52   1
  -8   7   8 667.980 1293.84   1
   8  -7  -8 -1626.8 711.410   1
  16   2  -7 2841.94 1969.92   1
  16   2  -7 6632.14 1693.25   1
  16  -2  -7 8171.69 2479.34   1
  16  -2  -7 12021.8 2687.56   1
 -16   2   7 12848.2 2532.15   1
  16   0  -2 -424.64 1363.25   1
  16   0  -2 568.010 748.970   1
  -6   0 -12 9078.87 1894.48   1
  -6   0 -12 8568.07 1948.61   1
   6   0  12 10793.1 1920.27   1
  14  -4  -9 2190.33 1200.62   1
  14   4  -9 -729.43 1580.42   1
  14  -4  -9 244.190 751.330   1
 -14   4   9 1222.87 1070.38   1
 -13   5   8 11367.0 2321.59   1
  13  -5  -8 10520.8 2645.64   1
  13   5  -8 6101.53 1729.64   1
   2   5 -13 -3800.2 1797.21   1
  -2   5  13 -1273.7 1361.63   1
   2  -5 -13 2350.35 1193.16   1
   2  -5 -13 1636.20 886.690   1
  12  -5 -10 -626.89 873.200   1
  12   5 -10 3661.89 1980.39   1
 -12   5  10 1529.30 1404.33   1
  -6   3 -11 1976.66 1180.98   1
   6  -3  11 3893.01 1730.14   1
  -6   3 -11 -726.69 1805.00   1
  -6  -3 -11 -4.2200 1189.59   1
   6   3  11 1857.05 1226.10   1
  -6  -3 -11 2908.09 1371.55   1
   9   6   4 13686.5 3168.98   1
  -9   6  -4 16972.8 3328.15   1
  -9   6  -4 6475.99 1533.31   1
  -9  -6  -4 12754.0 2038.86   1
   9  -6   4 14904.4 2760.69   1
   0   7   9 2149.21 1651.25   1
   0   7  -9 566.730 1499.61   1
   0  -7  -9 881.250 903.130   1
   0  -7  -9 1537.13 764.210   1
  -6   8   0 2555.56 1943.25   1
   6   8   0 -24.390 1930.23   1
  12   1   6 3109.39 1431.15   1
  12  -1   6 1123.73 772.740   1
 -12   1  -6 -1676.8 1173.34   1
  12  -1   6 3614.50 1625.00   1
  14   4  -1 11958.8 2776.83   1
  14   4  -1 15098.4 2899.59   1
 -14   4   1 15519.1 3558.21   1
  14  -4  -1 18291.7 3069.17   1
 -10  -2  -8 1793.26 1220.86   1
  10  -2   8 -2863.0 1350.52   1
  10   2   8 37.8200 1435.51   1
 -10   2  -8 -925.25 1679.21   1
  15   0   1 1307.43 1363.35   1
  15   0   1 1179.04 834.250   1
  11   3 -14 9416.56 2633.01   1
  11   3 -14 18283.9 3725.45   1
  11  -3 -14 17371.8 2798.20   1
 -11   3  14 13429.8 2615.67   1
 -15   3   9 2081.28 1322.90   1
  15   3  -9 2671.78 2070.98   1
  15  -3  -9 5701.31 1519.95   1
  15  -3  -9 3868.01 2027.40   1
   0   6 -11 12438.1 2666.67   1
   0  -6 -11 4963.73 1181.99   1
   0  -6 -11 2342.93 1323.73   1
   0   6  11 8602.06 2123.58   1
  -6  -5  -9 2029.59 1059.06   1
   6  -5   9 657.100 519.530   1
  -6   5  -9 2973.65 2221.11   1
   6   5   9 2261.82 1130.52   1
   6  -5   9 868.280 703.310   1
 -11   4  -5 1919.22 1409.79   1
  11  -4   5 2037.39 1165.11   1
  11  -4   5 1001.93 583.450   1
 -11  -4  -5 -2591.4 1043.35   1
 -11   4  -5 3047.27 1710.91   1
  11   4   5 2273.69 1061.60   1
   5   8   2 43760.9 21375.9   1
  -5   8  -2 37598.0 7319.26   1
   6   7   5 2232.56 2435.69   1
  -6   7  -5 8.18000 1218.99   1
  15   2   0 742.550 582.280   1
  15   2   0 2465.32 1715.50   1
  15  -2   0 -2249.2 1200.87   1
 -15   2   0 -21.570 899.280   1
  15  -2   0 2662.07 1206.63   1
   9   0 -16 16052.2 3383.22   1
   9   0 -16 15895.6 4340.87   1
  -5  -7  -6 1793.40 885.190   1
   5   7   6 951.620 2473.46   1
  -5   7  -6 -1707.0 1300.61   1
   0   8  -6 981.990 997.790   1
   0   8   6 1790.67 1530.89   1
  -8   2 -10 4174.91 2573.07   1
  -8  -2 -10 1564.79 1133.06   1
   8   2  10 -1006.0 1606.88   1
  -8   2 -10 -601.05 1099.59   1
  -8  -2 -10 4399.34 1138.61   1
   8  -2  10 1284.09 1643.12   1
  16   2  -4 2611.39 1865.36   1
  16  -2  -4 -346.83 1396.65   1
 -16   2   4 11935.8 2783.92   1
  16  -2  -4 5212.55 1095.11   1
  16   2  -4 1979.91 848.930   1
   2   8   5 11197.8 3166.39   1
  -2   8  -5 843.860 1071.48   1
  10   5 -12 5602.14 1494.60   1
 -10   5  12 8430.19 1553.80   1
  10  -5 -12 15552.5 2478.73   1
  -2  -2 -14 483.280 576.440   1
  -2   2 -14 6601.83 2118.55   1
  -2  -2 -14 455.470 840.040   1
  -2   2 -14 492.760 428.480   1
  12  -6  -4 2909.51 1226.62   1
 -12   6   4 2639.32 1181.72   1
  12   6  -4 3599.65 1993.05   1
 -13   4  11 6457.44 1569.43   1
  13  -4 -11 5189.93 1387.08   1
  13   4 -11 7272.38 2303.14   1
  13  -4 -11 6566.21 1148.62   1
  -4   6  -9 6610.10 1887.18   1
   4   6   9 6760.50 1506.00   1
  -4  -6  -9 9342.56 1656.34   1
   4   6   9 5748.22 2812.65   1
 -12   6   5 2838.27 1714.57   1
  12  -6  -5 2152.65 1174.53   1
  12   6  -5 3762.96 2407.91   1
  14   1 -13 19148.6 3513.24   1
  14   1 -13 16011.5 3533.87   1
  14  -1 -13 16606.0 3081.63   1
 -14   1  13 23583.0 4267.71   1
  14  -1 -13 17972.1 3007.74   1
  14  -1 -13 18350.4 3879.73   1
  14   1 -13 20688.5 3392.38   1
  -9   7   7 5238.83 1978.47   1
   9  -7  -7 9808.40 1742.38   1
   9   7  -7 2639.65 1544.47   1
  13   5  -1 3660.33 1606.93   1
  13  -5  -1 1772.89 865.930   1
  -3  -3 -13 1505.28 892.900   1
  -3   3 -13 3721.56 2308.24   1
  -3  -3 -13 516.630 746.600   1
  -3   3 -13 -15.820 749.280   1
  14   1   3 8168.52 1578.31   1
  14  -1   3 5510.41 1469.55   1
  14   1   3 8188.43 2372.85   1
 -14   1  -3 4068.80 2057.12   1
  14  -1   3 9115.16 2084.77   1
  13  -1 -14 1908.89 1207.62   1
  13   1 -14 310.630 837.370   1
  13  -1 -14 -2144.1 1240.63   1
  13  -1 -14 1883.50 1010.05   1
  13   1 -14 3034.88 1528.30   1
 -13   1  14 3630.20 1807.57   1
  13   1 -14 2272.07 1565.84   1
  -8   5  13 2488.43 1376.31   1
   8  -5 -13 516.660 993.550   1
   8  -5 -13 2563.98 1664.39   1
   3  -1 -16 675.630 625.560   1
   3   1 -16 2609.62 1224.66   1
   3  -1 -16 1560.73 1035.82   1
   3   1 -16 7890.30 2389.07   1
  11   4 -13 10324.9 2423.59   1
 -11   4  13 8932.20 1828.82   1
  11  -4 -13 8623.19 1755.21   1
   9  -4 -14 603.100 753.680   1
   9   4 -14 -311.60 1631.81   1
  -9   4  14 -1482.4 964.630   1
   9  -4 -14 -1418.5 1194.50   1
  -7   7   9 7771.31 1821.85   1
   7  -7  -9 4029.82 1779.07   1
  16   1  -2 -1322.3 1357.29   1
  16  -1  -2 393.580 1422.22   1
  16   1  -2 1058.26 592.450   1
  16  -1  -2 903.640 737.470   1
  -6   1 -12 4329.85 1453.09   1
  -6  -1 -12 1647.37 1264.96   1
  -6   1 -12 836.170 1183.74   1
   6   1  12 -523.71 1261.59   1
  -6  -1 -12 4145.38 2022.71   1
   6  -1  12 808.480 642.540   1
  -5   4 -11 4224.63 2173.02   1
  -5  -4 -11 434.320 535.680   1
   5   4  11 2796.18 1226.61   1
  -5  -4 -11 1013.07 827.540   1
  -5   4 -11 533.840 750.150   1
 -12   6   3 3881.28 2021.62   1
  12  -6  -3 1738.70 801.850   1
  12   6  -3 4922.24 1503.14   1
   7   7   4 2806.57 2230.78   1
  -7   7  -4 1206.55 1254.64   1
  -4   2 -13 288.460 1122.66   1
  -4  -2 -13 4219.62 2110.31   1
   4   2  13 1136.16 1298.74   1
  -4   2 -13 40.4700 762.650   1
  -4  -2 -13 2051.45 1166.33   1
  16   2  -8 -445.05 541.300   1
  16  -2  -8 1332.50 916.010   1
  16   2  -8 1694.74 1646.92   1
  16  -2  -8 -786.71 1342.44   1
 -16   2   8 1026.85 854.310   1
  15   1   1 6266.68 1239.41   1
  15  -1   1 4042.90 1968.04   1
  15   1   1 10516.0 1951.26   1
  15  -1   1 9351.05 1550.12   1
  15   0 -12 2683.57 1555.31   1
  15   0 -12 2022.92 1224.10   1
 -15   0  12 2956.51 1353.83   1
  15   0 -12 1086.16 829.120   1
  15  -2 -11 14361.2 1963.55   1
 -15   2  11 8687.23 1774.75   1
  15   2 -11 7649.21 1160.12   1
  15   2 -11 5883.73 1525.82   1
  15  -2 -11 5414.71 1290.13   1
 -15  -2  11 5142.15 1549.86   1
 -11  -2  -7 1036.53 1167.65   1
  11  -2   7 -325.64 755.970   1
 -11   2  -7 4041.88 2083.22   1
  11   2   7 1250.54 1207.41   1
  11  -2   7 606.190 729.450   1
   6   2 -16 4284.05 2801.51   1
   6  -2 -16 6739.62 1706.16   1
   6   2 -16 5810.00 1061.68   1
   6  -2 -16 4743.75 1158.77   1
  -1  -3 -14 4137.20 1905.62   1
  -1  -3 -14 2071.14 1118.59   1
   1   3  14 -43.330 1614.85   1
  -1   3 -14 1349.37 909.690   1
  -1   3 -14 1051.35 1402.72   1
  -6   8   5 1201.77 1713.41   1
   6  -8  -5 984.570 1154.58   1
  -4   7  -7 1281.38 1374.75   1
  -4  -7  -7 226.290 203.200   1
   4   7   7 -416.90 2457.80   1
   9  -3 -15 1052.02 1272.37   1
  -9   3  15 226.830 932.610   1
   9   3 -15 1450.75 1259.85   1
   9  -3 -15 998.510 1103.00   1
   9   1 -16 3958.26 1838.19   1
   9  -1 -16 -1625.0 1643.41   1
   9   1 -16 25.4100 1003.18   1
   9  -1 -16 -301.19 1104.33   1
   5  -8  -6 -84.790 794.870   1
  -5   8   6 1246.41 1266.09   1
  -3   0 -14 13103.9 2400.89   1
  -3   0 -14 12977.6 1835.08   1
 -10   7   4 2524.57 1293.12   1
  10  -7  -4 6119.51 1347.02   1
  10   7  -4 195.210 1370.37   1
 -10   5  -5 1362.02 1272.76   1
 -10   5  -5 1368.21 1616.64   1
  10   5   5 2030.18 931.220   1
 -10  -5  -5 1567.16 1022.16   1
  10  -5   5 1945.39 870.680   1
   2  -3 -15 2676.75 1599.16   1
   2   3 -15 6199.16 1343.71   1
  -2   3  15 3848.50 2413.83   1
   2  -3 -15 774.600 894.420   1
  16   0 -10 22650.0 3094.40   1
  16   0 -10 17557.1 2624.75   1
 -16   0  10 15284.9 2723.24   1
  12  -6  -6 -413.38 810.460   1
 -12   6   6 2652.75 1218.84   1
  12   6  -6 -196.87 1269.11   1
 -10   7   3 -2093.0 1155.53   1
  10  -7  -3 414.910 695.840   1
  10   7  -3 -978.71 1438.43   1
   5   2 -16 8369.00 2930.98   1
   5  -2 -16 10508.3 1865.65   1
   5   2 -16 10459.3 1380.51   1
   5  -2 -16 12702.1 2417.94   1
   4   6 -12 10337.1 2925.80   1
   4  -6 -12 12265.1 1774.99   1
   4  -6 -12 4088.11 1946.21   1
  -4   6  12 9851.47 1885.36   1
   5   6 -12 3738.53 1868.17   1
  -5   6  12 9098.77 1939.42   1
   5  -6 -12 10952.8 2147.91   1
   5  -6 -12 13914.7 2078.68   1
   7  -2 -16 3369.79 1774.61   1
   7   2 -16 6679.30 1790.57   1
   7  -2 -16 1949.08 1242.79   1
   7   2 -16 2701.59 1183.35   1
   1  -4 -14 -394.13 743.890   1
   1  -4 -14 917.150 781.300   1
   1   4 -14 -206.75 1912.15   1
  -1   4  14 2235.30 1697.92   1
 -12   3  -5 -1100.2 1147.14   1
 -12   3  -5 3037.49 1514.75   1
  12   3   5 3791.75 1994.76   1
  12  -3   5 2189.53 975.700   1
  12  -3   5 5032.38 1261.31   1
  10  -6 -10 8669.42 1453.05   1
 -10   6  10 10686.2 2101.39   1
  10   6 -10 4711.63 1457.03   1
  -7  -2 -11 640.840 674.010   1
  -7   2 -11 2500.38 1176.04   1
  -7  -2 -11 5321.25 1281.03   1
  -7   2 -11 2089.02 1179.76   1
   7  -2  11 897.810 832.380   1
   7   2  11 1695.62 962.880   1
  13   0   5 2597.79 1133.66   1
  13   0   5 704.910 733.520   1
 -13   0  -5 2425.13 1286.03   1
  -6   8  -1 13611.4 1854.17   1
   6   8   1 2624.58 1981.42   1
  12   0 -15 -41.650 836.190   1
  12   0 -15 -516.24 1398.03   1
 -13   4  -2 1727.52 918.060   1
  13  -4   2 -817.24 628.200   1
  13   4   2 431.580 817.210   1
  13  -4   2 1396.22 797.270   1
  13   4   2 -217.92 675.080   1
 -13   4  -2 -2059.4 1384.52   1
  16  -2  -3 12235.9 2011.39   1
  16   2  -3 7780.52 1850.20   1
 -16   2   3 9424.50 2557.25   1
  16  -2  -3 5468.28 1334.69   1
  16   2  -3 4385.63 2671.41   1
   9  -7   1 -866.10 499.090   1
  -9   7  -1 1120.14 839.050   1
   9   7   1 2614.49 1351.08   1
  -1   0 -15 -943.95 751.490   1
  -1   0 -15 -757.03 1279.27   1
 -10   7   5 9177.44 1758.25   1
  10  -7  -5 11518.5 1544.90   1
  10   7  -5 4998.41 1489.09   1
   5   5  10 -502.38 1423.68   1
  -5   5 -10 1234.02 2073.39   1
   5   5  10 4321.96 2495.55   1
  -5  -5 -10 -437.83 609.920   1
   2   0 -16 -660.04 724.530   1
   2   0 -16 -636.46 1518.91   1
  11   2 -15 11052.7 2373.20   1
  11  -2 -15 8424.29 1276.37   1
  11   2 -15 8088.87 1689.69   1
  11  -2 -15 11576.6 2565.98   1
 -11   2  15 9279.29 1587.68   1
   4  -7 -10 1998.05 1056.48   1
  -4   7  10 10675.3 1903.60   1
  11  -6   1 321.910 300.320   1
 -11   6  -1 1210.90 1018.26   1
  11   6   1 427.340 1226.09   1
   1   5 -13 6007.43 1410.12   1
  -1   5  13 3015.61 2350.41   1
   1  -5 -13 10672.0 1528.74   1
   1  -5 -13 4503.99 2699.59   1
   3   6 -12 7951.23 2114.93   1
  -3   6  12 11996.5 2124.55   1
   3  -6 -12 2372.51 1566.48   1
   3  -6 -12 9959.22 1534.90   1
 -15   3   1 1146.86 1452.87   1
  15   3  -1 843.070 909.360   1
  15  -3  -1 -460.09 673.080   1
  15   3  -1 2666.77 1874.99   1
  15  -3  -1 974.450 1156.07   1
  10  -7  -2 3245.47 1311.30   1
 -10   7   2 -2029.7 1084.59   1
  10   7  -2 1859.13 1554.86   1
   0  -2 -15 6967.36 1690.90   1
   0   2 -15 9794.56 1590.35   1
   0  -2 -15 12075.9 1933.07   1
   0   2 -15 7480.07 1924.99   1
   0   2  15 4251.48 1941.06   1
   1   8   6 15188.8 3237.23   1
  -1   8  -6 17979.2 2175.18   1
   3   7 -10 6109.81 1534.51   1
   3  -7 -10 604.570 796.320   1
  -3   7  10 7583.23 1520.47   1
   3  -7 -10 7463.28 1252.31   1
 -15   1  12 -2246.7 1023.05   1
 -15  -1  12 2690.72 1307.28   1
  15  -1 -12 -1107.3 1243.47   1
  15   1 -12 3776.74 2235.40   1
  15  -1 -12 -1281.5 826.760   1
  15   1 -12 1252.24 1248.10   1
 -12   6   2 1082.63 817.550   1
  12  -6  -2 -200.97 637.560   1
  12   6  -2 6172.26 1400.98   1
  -7   8   3 -1622.7 991.420   1
  -7   8   2 -362.27 1080.43   1
  -6   6  12 6078.68 1315.46   1
   6  -6 -12 4387.22 2479.17   1
   6  -6 -12 6727.34 1203.80   1
  -3   1 -14 -2406.8 1443.87   1
  -3  -1 -14 2193.80 1265.53   1
  -3   1 -14 1208.03 1019.29   1
  -3  -1 -14 -56.370 849.170   1
   4   2 -16 3086.25 1225.75   1
   4   2 -16 7448.13 2374.69   1
   4  -2 -16 2403.03 1343.24   1
   4  -2 -16 4834.99 1152.83   1
  16  -1 -10 -1672.3 1382.55   1
  16   1 -10 394.100 1485.67   1
  16  -1 -10 -433.78 841.500   1
 -16   1  10 -1679.8 1249.22   1
  16   1 -10 856.950 596.240   1
 -16  -1  10 2049.14 1112.87   1
  12   5   2 3310.17 1372.34   1
 -12   5  -2 2367.16 1153.23   1
 -12   5  -2 2016.60 974.730   1
  12   5   2 4441.31 2554.88   1
  12  -5   2 3003.33 1194.22   1
 -10  -6  -3 -946.45 842.030   1
  10   6   3 1278.58 1029.91   1
 -10   6  -3 5076.47 1965.86   1
 -10   6  -3 491.900 652.230   1
  10  -6   3 -1330.7 625.180   1
 -11   6   9 1580.27 887.410   1
  11  -6  -9 1571.03 1178.44   1
  -1  -7  -9 2327.26 1222.83   1
  -1   7  -9 -2470.5 1371.29   1
   1   7   9 -2894.6 1446.72   1
  13  -5  -9 6008.09 998.500   1
  13   5  -9 -234.31 1359.04   1
 -13   5   9 4700.79 1067.65   1
   5  -7 -10 7779.20 1909.82   1
  -5   7  10 8854.92 1548.91   1
  -8   7  -3 8715.09 2337.88   1
   8   7   3 9469.02 1716.26   1
  -8   7  -3 8016.73 1789.85   1
  -3   8   7 6163.57 1846.81   1
   3  -8  -7 6736.30 1326.00   1
  10   0 -16 1160.94 1075.79   1
  10   0 -16 6288.15 1212.53   1
   2  -8  -7 5008.75 1044.25   1
  -2   8   7 8251.59 1959.51   1
   8  -2 -16 2686.26 1460.04   1
   8   2 -16 3459.32 1492.55   1
   8   2 -16 5594.54 1473.70   1
   8  -2 -16 4118.23 1900.75   1
   5   3  12 24947.0 4817.89   1
  -5  -3 -12 26830.7 3009.28   1
  -5  -3 -12 23593.0 3342.49   1
  -5   3 -12 23065.0 4759.27   1
  -5   3 -12 26324.3 3091.75   1
   4   8   4 7947.25 2137.63   1
  -4   8  -4 6597.83 1178.54   1
  16   0  -1 1001.81 1171.96   1
  16   0  -1 896.640 864.970   1
   9   6 -11 -1425.9 1226.80   1
  -9   6  11 2918.75 1330.84   1
   9  -6 -11 496.830 474.330   1
 -15  -3  10 4290.08 2642.49   1
 -15   3  10 6760.79 1723.84   1
  15   3 -10 6518.12 1747.39   1
  15  -3 -10 11641.7 1911.12   1
  15  -3 -10 6852.09 1612.21   1
  13   1   5 5612.19 2587.50   1
 -13   1  -5 5473.44 1236.59   1
  13   1   5 4376.70 2881.48   1
  13  -1   5 7398.03 1862.23   1
  13  -1   5 4331.07 2364.43   1
  12  -6  -7 2726.67 1297.41   1
 -12   6   7 -1794.0 1322.65   1
  12   6  -7 1718.63 1548.03   1
  12  -1 -15 43614.9 22807.0   1
  12   1 -15 40191.3 7464.01   1
  12   1 -15 40916.4 4483.47   1
  12  -1 -15 39955.4 5144.72   1
  12   1 -15 42914.0 22521.9   1
   2   7 -10 5144.45 1458.15   1
   2  -7 -10 7380.89 1307.78   1
  -2   7  10 5992.67 1553.29   1
   2  -7 -10 46.1500 1007.96   1
  15  -4  -5 15324.9 1823.91   1
  15   4  -5 10292.1 2075.82   1
 -15   4   5 12945.1 2323.86   1
  16  -2  -9 830.260 1009.98   1
  16  -2  -9 1272.86 1357.27   1
 -16  -2   9 3136.23 1448.12   1
  16   2  -9 4620.29 2829.69   1
 -16   2   9 942.370 927.660   1
  16   2  -9 2550.94 993.730   1
  -7   8   4 26132.6 3858.50   1
   7   8  -1 1577.08 1397.81   1
  14  -4 -10 1385.70 987.730   1
 -14   4  10 1058.03 661.610   1
  14  -4 -10 2210.82 878.870   1
  14   4 -10 1179.01 1669.37   1
  -1   1 -15 13507.6 2939.76   1
  -1  -1 -15 17086.8 2122.40   1
  -1   1 -15 14220.9 1997.60   1
  -1  -1 -15 14644.7 2389.35   1
 -12   4  -4 -449.98 1092.30   1
  12   4   4 5031.18 1154.50   1
 -12   4  -4 68.1200 1215.86   1
  12  -4   4 1958.36 894.290   1
  12  -4   4 1718.06 710.890   1
  15   4  -6 44.7300 1850.04   1
 -15   4   6 636.410 512.840   1
  15  -4  -6 2549.08 1227.17   1
  -5   0 -13 840.390 1088.58   1
  -5   0 -13 1851.17 1250.97   1
   2  -1 -16 7692.28 2063.42   1
   2   1 -16 4189.41 2181.18   1
   2  -1 -16 1483.10 983.850   1
   2   1 -16 3541.78 1653.87   1
   3   7   8 -1647.7 2525.98   1
  -3   7  -8 1738.54 1388.06   1
  -3  -7  -8 4162.71 1689.33   1
  -1   6 -11 266.750 1737.71   1
  -1  -6 -11 2346.33 1134.34   1
  -1  -6 -11 -1718.0 636.130   1
   1   6  11 -2919.5 1598.38   1
   5   8   3 531.600 1920.92   1
  14   4   0 713.130 837.630   1
  14  -4   0 54.2400 369.280   1
  14   4   0 2337.11 1752.58   1
 -14   4   0 1407.33 944.570   1
  13   3 -13 8483.36 2328.51   1
  13  -3 -13 7583.78 1692.84   1
 -13   3  13 7030.29 1502.71   1
  12  -2   6 911.220 665.400   1
  12  -2   6 -964.46 1246.89   1
  12   2   6 734.950 1768.14   1
 -12   2  -6 -59.870 1138.94   1
   3   8   5 5697.59 1778.15   1
  -3   8  -5 259.170 1038.79   1
  -4   8   7 781.320 1190.19   1
   4  -8  -7 -664.21 854.830   1
   3   6  10 -355.68 1701.78   1
   3   6  10 1655.00 902.880   1
  -3  -6 -10 2411.03 1131.08   1
  -3   6 -10 2547.66 2028.56   1
  -2  -4 -13 4334.08 2422.32   1
  -2   4 -13 2429.78 1305.23   1
   2   4  13 8109.06 2553.39   1
  -2  -4 -13 3540.69 1606.86   1
   2   4  13 5094.15 1068.07   1
 -10   7   6 -1121.2 1092.50   1
  10  -7  -6 3227.76 1355.58   1
  10   7  -6 1545.12 1450.20   1
   9   5 -13 45.1000 1142.12   1
  -9   5  13 -1493.2 1016.81   1
   9  -5 -13 744.050 1111.37   1
  -2   6  12 3846.31 1799.58   1
   2  -6 -12 2725.65 1360.24   1
   2   6 -12 -848.56 2174.04   1
   2  -6 -12 1699.09 1014.76   1
  -1   8   7 935.300 1303.26   1
  -6   8   6 -914.31 1190.37   1
   6  -8  -6 -1924.8 841.480   1
  13  -5   0 -190.57 693.400   1
 -13   5   0 4672.10 878.510   1
  13   5   0 1300.70 702.960   1
  10  -7  -1 1774.07 856.160   1
 -10   7   1 3739.35 1564.84   1
  10   7  -1 1263.69 1538.17   1
  15   4  -4 5815.83 1885.26   1
 -15   4   4 5808.93 1561.31   1
  15  -4  -4 6575.56 1585.68   1
   9  -7  -8 1942.58 1019.99   1
   9   7  -8 2979.20 1995.69   1
  -9   7   8 721.780 948.100   1
  -2   5 -12 -1555.3 2031.65   1
   2   5  12 5738.00 2024.41   1
  -2  -5 -12 -1024.6 919.690   1
   2   5  12 -985.85 1035.83   1
  -2  -5 -12 788.090 795.090   1
  -7   6  12 14479.6 2154.72   1
   7  -6 -12 9289.44 1764.88   1
  -8   7   9 2335.01 1477.15   1
   8  -7  -9 909.550 709.370   1
  10  -1 -16 -912.82 999.190   1
  10   1 -16 1851.71 1094.89   1
  10  -1 -16 1061.99 1754.61   1
  10   1 -16 -1653.4 1221.39   1
  14   2 -13 3084.73 1574.88   1
  14   2 -13 7117.28 1596.97   1
  14  -2 -13 1054.77 836.440   1
  14  -2 -13 -2124.0 1176.90   1
 -14   2  13 3002.89 1645.50   1
  11   5   4 2768.21 1419.27   1
 -11  -5  -4 5876.08 1462.37   1
  11  -5   4 3720.62 1434.45   1
 -11   5  -4 4628.07 2869.00   1
 -11   5  -4 4323.20 2608.28   1
  15  -4  -7 6014.47 1169.84   1
  15   4  -7 3958.97 2339.13   1
 -15   4   7 8110.81 1729.76   1
  -7   6  -7 136.790 1541.66   1
  -7  -6  -7 -599.76 642.430   1
   7   6   7 2668.40 1245.42   1
   6  -7 -10 -725.45 853.320   1
  -6   7  10 -313.29 868.750   1
  10  -4 -14 513.480 564.680   1
  10   4 -14 5174.88 1423.16   1
  10  -4 -14 -1066.0 1380.37   1
 -10   4  14 55.7200 1020.81   1
  16  -1  -1 2208.80 992.530   1
  16  -1  -1 2529.82 1519.99   1
  16   1  -1 977.880 702.970   1
  16   1  -1 1390.30 767.390   1
  14  -3 -12 16515.5 2531.82   1
  14   3 -12 13499.0 3053.31   1
  14  -3 -12 10757.2 1867.52   1
 -14   3  12 13558.9 2413.17   1
  14   2   3 971.470 739.030   1
 -14   2  -3 3286.27 1480.67   1
  14   2   3 -962.28 849.740   1
  14  -2   3 -256.83 806.480   1
  14  -2   3 1177.83 1078.32   1
 -14   5   5 2410.02 1285.79   1
  14  -5  -5 735.370 559.180   1
  14   5  -5 1143.05 1553.96   1
  10   3 -15 3959.76 1653.77   1
  10  -3 -15 -641.72 1340.71   1
  10  -3 -15 3457.65 1806.90   1
 -10   3  15 1928.91 1235.76   1
  13  -2 -14 10326.5 1948.77   1
  13   2 -14 7107.53 1981.84   1
  13   2 -14 7603.66 1550.26   1
  13  -2 -14 6710.74 1552.87   1
  13  -2 -14 3937.72 2489.74   1
 -13   2  14 7756.50 1753.80   1
   3   2 -16 4215.61 1733.89   1
   3   2 -16 1404.91 1303.36   1
   3  -2 -16 3867.48 1797.86   1
   3  -2 -16 1683.85 1032.50   1
 -14   3  -2 47313.1 26059.8   1
  14   3   2 44424.2 23258.6   1
  14  -3   2 40862.7 5290.13   1
  14  -3   2 44248.7 23223.5   1
  14   3   2 34253.4 6228.59   1
   1  -3 -15 1485.99 696.330   1
   1   3 -15 2046.23 1150.88   1
   1   3 -15 -767.85 1140.05   1
   1  -3 -15 307.530 573.420   1
  -1   3  15 4712.79 2279.95   1
  16  -2  -2 2204.79 1088.65   1
  16   2  -2 3465.26 1878.39   1
 -16   2   2 2314.84 1777.63   1
  16  -2  -2 -1161.6 919.080   1
  16   2  -2 1829.40 828.500   1
  -6   2 -12 13174.2 1911.12   1
  -6  -2 -12 10843.1 1893.72   1
   6  -2  12 17470.4 2441.88   1
   6   2  12 12059.1 2254.51   1
  -6   2 -12 22013.5 3492.05   1
  -6  -2 -12 13187.6 2293.77   1
  -4   4 -12 395.420 797.990   1
   4   4  12 1512.41 1622.22   1
  -4   4 -12 -1542.6 2148.59   1
  -4  -4 -12 -1525.2 1154.88   1
   4   4  12 672.900 684.490   1
  -4  -4 -12 832.990 490.790   1
 -10   0  -9 2428.40 1275.88   1
 -10   0  -9 186.050 1316.53   1
  10   0   9 2968.05 1251.63   1
  -5  -1 -13 1475.93 843.680   1
  -5  -1 -13 2263.06 1138.18   1
  -5   1 -13 3983.90 1995.15   1
  -5   1 -13 9371.56 1693.29   1
   5   1  13 -3046.6 1288.43   1
  -8   6  -6 6549.29 2188.27   1
   8  -6   6 1135.18 729.690   1
  -8  -6  -6 2968.89 1453.78   1
   8   6   6 2160.78 990.780   1
  12  -6  -1 965.900 618.730   1
 -12   6   1 -1102.8 996.470   1
  12   6  -1 -366.26 1378.28   1
  12  -5 -11 2795.16 1508.16   1
 -12   5  11 1101.05 1236.01   1
  12   5 -11 2387.05 1479.13   1
  15   2   1 -353.10 790.950   1
  15  -2   1 1509.46 772.200   1
  15   2   1 1786.82 1396.56   1
  15  -2   1 -684.96 1181.07   1
 -15   2  -1 1057.28 2280.56   1
  14  -5  -6 896.310 647.760   1
  14   5  -6 2271.05 1700.10   1
 -14   5   6 3549.19 1782.35   1
   9   0  10 -130.59 1377.95   1
  -9   0 -10 5517.64 1854.35   1
  -9   0 -10 5953.73 1478.10   1
 -14   5   4 -1425.5 1220.18   1
  14  -5  -4 1083.37 714.890   1
  14   5  -4 1963.74 1510.45   1
  12  -3 -14 5960.40 1366.66   1
  12   3 -14 5545.73 1630.40   1
 -12   3  14 2999.96 1424.22   1
  12  -3 -14 805.660 1230.45   1
   9  -4   8 -2421.9 1003.96   1
   9   4   8 1918.27 1058.62   1
  -9   4  -8 1254.25 1475.69   1
   9  -4   8 492.660 441.230   1
  -9  -4  -8 341.890 937.140   1
   7  -8  -5 2280.37 1345.15   1
  -7   8   5 998.820 1199.39   1
   6   8   2 4207.89 2230.09   1
  -6   8  -2 -1341.6 1066.68   1
   6   6   8 1950.94 961.210   1
  -6   6  -8 1519.73 1645.21   1
  -6  -6  -8 1374.56 732.200   1
   6   6   8 1207.71 1597.58   1
   7   8   0 7510.67 1885.80   1
  -7   8   0 12607.9 2817.12   1
   1   7 -10 12214.7 2573.32   1
   1  -7 -10 15.9700 617.210   1
  -1   7  10 7062.38 1759.17   1
 -11   5  12 3719.87 1775.06   1
  11   5 -12 3754.89 1792.26   1
  11  -5 -12 2268.71 1512.93   1
  -8   4  -9 16171.6 2303.89   1
   8   4   9 16982.0 2893.77   1
   8  -4   9 13073.3 3283.76   1
  -8  -4  -9 19335.7 2431.46   1
   8  -4   9 14193.0 2635.89   1
   9   2 -16 6066.78 1367.84   1
   9  -2 -16 5596.61 1246.58   1
   9   2 -16 6777.73 1506.07   1
   9  -2 -16 5360.21 2003.39   1
  -5   8   7 -861.14 1121.43   1
   5  -8  -7 2043.00 1117.05   1
  16  -3  -6 1693.54 842.360   1
  16   3  -6 2661.74 2156.50   1
  16  -3  -6 97.8800 1083.20   1
 -16   3   6 1878.35 880.940   1
  16   3  -6 847.500 751.230   1
 -16   0  11 -2156.2 1041.72   1
  16   0 -11 -589.12 1419.59   1
  16   0 -11 -819.18 631.210   1
  -2   8  -6 5213.17 1183.60   1
   2   8   6 6723.15 2593.80   1
   6  -4 -15 -1007.9 1219.68   1
   6  -4 -15 -970.74 875.850   1
  -6   4  15 1530.18 1482.56   1
   6   4 -15 1040.64 1575.29   1
   5  -4 -15 4939.31 1507.64   1
  -5   4  15 1477.79 1091.48   1
   5  -4 -15 -2054.1 841.140   1
   5   4 -15 1876.83 1354.13   1
   4   5  11 2833.39 2825.89   1
  -4   5 -11 407.970 1803.72   1
   4   5  11 -1051.6 1336.48   1
  -4  -5 -11 877.810 674.610   1
 -17   0   6 6773.87 1667.81   1
  17   0  -6 -338.61 1749.11   1
  17   0  -6 3578.15 1468.80   1
 -16   3   5 3047.49 1464.62   1
  16  -3  -5 2697.63 1212.32   1
  16  -3  -5 -1706.9 1133.19   1
  16   3  -5 614.060 1792.21   1
  16   3  -5 1227.17 799.730   1
  15   0   2 9722.06 1667.30   1
  15   0   2 16900.4 3067.91   1
   0   8  -7 1.96000 1040.79   1
   0   8   7 3380.79 2376.69   1
   0   4  14 -1959.2 1758.53   1
   0   4 -14 1472.17 879.370   1
   0  -4 -14 979.320 1031.55   1
   0  -4 -14 3542.05 1576.31   1
 -11   0  -8 4943.50 1916.14   1
 -11   0  -8 -1782.1 1471.32   1
  11   0   8 3766.11 1559.38   1
  15  -4  -3 850.160 455.830   1
  15   4  -3 2125.95 1153.24   1
 -15   4   3 -1089.6 1461.56   1
   1   0 -16 35297.2 3771.02   1
   1   0 -16 18960.7 3714.68   1
  17   0  -7 -2961.3 1782.70   1
  17   0  -7 1278.29 806.350   1
 -17   0   7 -819.84 1255.15   1
   0   5 -13 -1600.8 1909.82   1
   0   5  13 5500.93 2337.86   1
   0  -5 -13 2434.93 1046.93   1
   0  -5 -13 4172.34 1774.02   1
   9  -3   9 10517.3 2208.48   1
  -9  -3  -9 13693.9 2249.16   1
   9   3   9 8369.05 1454.40   1
  -9   3  -9 9970.61 1962.81   1
  13  -3   4 1010.38 876.490   1
  13   3   4 180.030 935.080   1
  13  -3   4 -300.83 899.610   1
 -13   3  -4 -1215.6 1984.31   1
 -13   3  -4 -315.63 1083.61   1
  10  -4   7 2810.55 1248.65   1
  10   4   7 1459.19 936.270   1
 -10   4  -7 3505.28 1779.77   1
  10  -4   7 6352.08 995.760   1
 -10  -4  -7 5890.91 1439.52   1
  12  -6  -8 -446.03 839.300   1
 -12   6   8 -145.51 1373.09   1
  12   6  -8 1410.88 1617.08   1
  17   0  -5 560.700 422.080   1
 -17   0   5 -1823.1 1344.04   1
  17   0  -5 -2457.1 1642.28   1
  16  -3  -7 739.630 1239.51   1
  16   3  -7 -1025.0 1857.61   1
  16  -3  -7 1637.47 1165.02   1
 -16   3   7 2494.34 1143.42   1
  16   3  -7 -662.25 549.200   1
  -9   7  -2 -422.88 1286.03   1
   9   7   2 572.950 1199.59   1
   9  -7   2 1306.26 683.490   1
  13   4 -12 650.870 1405.82   1
  13  -4 -12 2417.91 1240.96   1
 -13   4  12 2371.23 1750.63   1
 -10  -1  -9 27703.4 4723.53   1
 -10   1  -9 19339.1 3144.78   1
 -10  -1  -9 36654.5 4252.45   1
 -10   1  -9 41552.5 4852.60   1
  10  -1   9 34479.8 4880.08   1
  10   1   9 32934.3 5866.74   1
 -10   7   7 5474.81 1493.79   1
  10  -7  -7 3580.99 1593.81   1
  10   7  -7 5129.28 1338.09   1
  15  -4  -8 3137.18 1423.42   1
  15   4  -8 1616.60 1755.13   1
 -15   4   8 5148.14 1333.85   1
 -10  -3  -8 1888.13 1236.07   1
  10  -3   8 3267.70 1492.04   1
  10   3   8 5867.90 1442.22   1
 -10   3  -8 360.230 1436.14   1
  10  -3   8 -759.91 665.480   1
 -14   5   7 336.940 619.420   1
  14  -5  -7 1000.46 861.400   1
  14   5  -7 -3614.5 1268.96   1
  -8   0 -11 -1676.4 1115.33   1
  -8   0 -11 -506.70 1889.82   1
   8   0  11 2214.31 1145.32   1
   9  -6   5 10113.0 1807.77   1
  -9   6  -5 11091.4 1639.57   1
  -9  -6  -5 5559.69 922.670   1
   9   6   5 9694.37 1795.71   1
  -7   4  15 22942.4 2791.46   1
   7  -4 -15 16957.6 3374.08   1
   7   4 -15 9619.64 1844.76   1
   7  -4 -15 23121.5 2787.47   1
   9   1  10 2735.53 1383.69   1
  -9  -1 -10 1519.90 1034.53   1
  -9  -1 -10 4434.92 2971.51   1
  -9   1 -10 4624.28 2721.56   1
  -9   1 -10 2794.98 2393.27   1
   9  -1  10 2113.08 1129.64   1
 -14   5   3 -1854.7 1247.48   1
  14  -5  -3 804.800 628.150   1
  14   5  -3 -450.61 1388.40   1
   4  -4 -15 10545.8 2823.12   1
  -4   4  15 13316.5 2438.77   1
   4  -4 -15 11544.4 1915.07   1
   4   4 -15 9953.00 2920.50   1
  12  -4 -13 14860.3 2116.75   1
 -12   4  13 12389.9 2308.11   1
  12   4 -13 19185.0 2865.77   1
   1   6 -12 3096.96 1811.91   1
  -1   6  12 4066.10 1972.09   1
   1  -6 -12 -121.92 1102.78   1
   1  -6 -12 4957.43 1052.12   1
  15   2 -12 16836.3 2539.38   1
  15   2 -12 18403.9 2507.40   1
  15  -2 -12 17437.7 2215.59   1
  15  -2 -12 15628.4 2254.86   1
 -15   2  12 18575.0 3379.04   1
  14   0 -14 9559.32 1771.68   1
  14   0 -14 13066.0 1992.15   1
  14   0 -14 10528.4 1671.41   1
   5   5 -14 3005.90 1813.95   1
   5  -5 -14 3570.19 1455.36   1
   5  -5 -14 3659.05 1843.49   1
  -5   5  14 6650.66 1483.00   1
  -7  -4 -10 6540.67 1251.36   1
  -7   4 -10 5447.82 1755.78   1
   7   4  10 2047.72 1669.65   1
   7  -4  10 2377.99 1334.78   1
  -6   7  -6 3137.95 1963.63   1
   6   7   6 -2691.6 2111.50   1
  -6  -7  -6 4701.96 728.120   1
  15   3   0 4999.81 959.300   1
  15   3   0 1761.45 1737.47   1
  15  -3   0 3626.05 1575.44   1
 -15   3   0 2516.96 1958.82   1
  15  -3   0 2946.19 1145.85   1
  -3   2 -14 1517.42 971.690   1
  -3  -2 -14 1707.00 780.330   1
  -3   2 -14 3296.29 1762.21   1
  -3  -2 -14 50.4700 786.950   1
  16   2 -10 7600.19 2147.41   1
  16  -2 -10 10129.5 2374.52   1
 -16  -2  10 7953.01 1757.82   1
 -16   2  10 2388.11 1338.89   1
  16  -2 -10 7032.47 1151.96   1
  16   2 -10 3876.01 1627.16   1
 -14   0  -4 6343.65 1458.59   1
  14   0   4 15708.5 2301.07   1
  14   0   4 12115.5 1735.38   1
  -8  -3 -10 3369.59 1765.43   1
   8   3  10 2330.91 1244.57   1
   8  -3  10 4184.76 1876.91   1
  -8   3 -10 2249.24 2411.45   1
  16  -3  -4 6031.59 1479.80   1
  16  -3  -4 14665.0 2389.52   1
 -16   3   4 20774.7 3414.98   1
  16   3  -4 10158.6 2128.59   1
  16   3  -4 3012.36 2179.96   1
   6   5 -14 -1515.4 1683.41   1
  -6   5  14 8731.97 1601.88   1
   6  -5 -14 1795.91 1064.38   1
   2   3  14 2375.07 1643.29   1
  -2   3 -14 1553.88 1198.33   1
  -2  -3 -14 2831.44 1917.45   1
  -2   3 -14 1207.31 910.400   1
  -2  -3 -14 1203.65 889.580   1
  16  -1 -11 2899.21 1339.65   1
 -16   1  11 2986.92 2188.64   1
  16   1 -11 8786.49 1517.84   1
  16   1 -11 1655.39 1547.26   1
  16  -1 -11 5957.40 1426.53   1
 -16  -1  11 320.650 829.960   1
 -10   7   0 2923.12 1636.46   1
  10  -7   0 1170.06 823.750   1
  10   7   0 2424.08 1193.33   1
   7  -7 -10 23962.6 2762.54   1
  -7   7  10 20442.2 2664.38   1
  17  -1  -6 5279.74 2301.85   1
  17  -1  -6 1360.12 923.560   1
  17   1  -6 4652.55 1855.00   1
 -17   1   6 279.880 1038.90   1
  17   1  -6 1646.87 832.670   1
  11   0 -16 16294.1 3545.13   1
  11   0 -16 22933.7 2769.12   1
   8  -6 -12 11114.2 1840.49   1
  -8   6  12 12774.2 1919.56   1
  -2   7  -9 3743.71 2234.17   1
  -2  -7  -9 2999.03 1340.77   1
   2   7   9 10892.5 2921.96   1
   5   6   9 4290.19 3559.05   1
  -5   6  -9 8078.16 2011.18   1
   5   6   9 10810.8 1656.61   1
  -5  -6  -9 9373.80 1339.43   1
   7   7   5 -2189.6 1773.90   1
  -7   7  -5 -2736.8 1217.79   1
  15   1   2 -2520.7 1194.93   1
  15  -1   2 214.910 630.810   1
  15  -1   2 655.170 1181.40   1
  15   1   2 943.770 584.530   1
 -11   6  -2 5967.45 1588.65   1
  11  -6   2 6438.43 999.030   1
  11   6   2 3709.62 1847.62   1
   4   5 -14 17173.3 5045.04   1
  -4   5  14 20721.6 2857.32   1
   4  -5 -14 19474.2 4457.66   1
   4  -5 -14 22036.8 2745.71   1
   0   9   0 3195.14 1835.72   1
 -11   1  -8 -1273.4 1352.79   1
  11   1   8 11077.1 1867.81   1
 -11  -1  -8 3563.86 1740.89   1
  11  -1   8 3651.76 1808.43   1
 -11  -1  -8 4609.20 1730.75   1
  13  -5 -10 280.520 766.730   1
  13   5 -10 1586.40 1287.90   1
 -13   5  10 2220.24 1834.04   1
  17   0  -8 10271.4 1964.00   1
  17   0  -8 6586.58 1824.64   1
 -17   0   8 10366.8 1908.57   1
   5   7   7 7006.60 3155.08   1
  -5  -7  -7 87.4300 554.720   1
  -5   7  -7 -45.560 1207.14   1
   1  -1 -16 489.210 614.200   1
   1   1 -16 6054.91 1182.71   1
   1   1 -16 -325.73 743.550   1
 -17   1   7 3701.27 1720.89   1
 -17  -1   7 -1085.9 1410.18   1
  17  -1  -7 640.980 1520.97   1
  17   1  -7 702.680 1685.16   1
  17  -1  -7 1120.25 1022.46   1
  17   1  -7 1645.54 690.210   1
  15   0 -13 722.950 467.610   1
 -15   0  13 -1430.4 880.930   1
  15   0 -13 -532.77 981.850   1
  15   0 -13 -316.67 1315.68   1
  13  -2   5 3453.50 1534.34   1
  13   2   5 4909.49 1011.91   1
 -13   2  -5 198.610 1051.66   1
  13  -2   5 3956.72 1054.42   1
  12   2 -15 5898.46 1929.25   1
  12  -2 -15 308.710 816.170   1
  12  -2 -15 6976.00 1641.41   1
  12   2 -15 3469.86 2028.28   1
 -12   2  15 2420.52 994.590   1
  -8  -5  -8 31948.0 3833.80   1
   8  -5   8 41995.2 23167.3   1
  -8   5  -8 30352.4 3940.65   1
   8   5   8 25576.5 6322.24   1
  17   1  -5 7151.57 2359.30   1
  17  -1  -5 6551.87 1117.93   1
  17  -1  -5 -2072.8 1591.37   1
 -17   1   5 3117.52 1997.75   1
  17   1  -5 2669.27 1064.73   1
  -1   2 -15 -2611.2 1710.99   1
  -1  -2 -15 3461.09 1988.96   1
  -1  -2 -15 2752.96 1255.87   1
  -1   2 -15 734.720 809.570   1
   1   9   0 1003.09 1188.38   1
  -1   9   0 -739.89 981.040   1
   0   9  -1 9135.39 1942.67   1
   0   9   1 11469.5 2120.72   1
  17   0  -4 10982.1 2597.58   1
  17   0  -4 9547.18 2043.28   1
   2  -2 -16 9563.12 1606.99   1
   2   2 -16 7160.41 1203.34   1
   2  -2 -16 9115.10 1964.51   1
   2   2 -16 12365.2 2590.73   1
  -1   9   1 10424.7 2001.43   1
   1   9  -1 749.300 1151.27   1
  11  -6 -10 -1652.1 1006.51   1
 -11   6  10 -733.05 874.080   1
  11   6 -10 -955.69 1248.44   1
  -4   3 -13 -4388.7 1684.29   1
  -4  -3 -13 -553.86 896.460   1
   4   3  13 2548.27 1307.66   1
  -4   3 -13 -620.54 663.090   1
  -4  -3 -13 1358.86 959.770   1
  16  -3  -8 5518.59 1139.89   1
 -16   3   8 4076.31 1285.25   1
  16  -3  -8 2174.76 1708.57   1
  16   3  -8 5449.29 1733.79   1
  -8   1 -11 8667.63 1789.04   1
  -8  -1 -11 8093.38 2098.23   1
   8  -1  11 7359.24 1395.62   1
   8   1  11 7905.83 1634.76   1
  -8   1 -11 9481.86 1874.69   1
  -8  -1 -11 8845.39 2028.18   1
  12   0   7 767.030 1479.48   1
 -12   0  -7 -1500.0 1106.75   1
  16   0   0 3187.66 1819.73   1
  16   0   0 1517.10 751.000   1
   7  -8  -6 -6.1200 718.080   1
  -7   8   6 2225.09 1350.62   1
  -9  -5  -7 1251.55 1115.92   1
   9  -5   7 1207.99 730.660   1
  -9   5  -7 2261.65 1509.35   1
   9   5   7 4254.79 954.410   1
 -15   3  11 1315.30 1064.15   1
  15  -3 -11 1794.20 1147.68   1
  15   3 -11 1940.33 1692.85   1
  15  -3 -11 1947.31 887.690   1
 -14   1  14 2903.60 1389.87   1
  14   1 -14 2711.27 1105.57   1
  14  -1 -14 -263.17 848.200   1
  14   1 -14 465.350 714.120   1
  14  -1 -14 1469.58 1014.31   1
  14  -1 -14 -514.63 1139.59   1
  14   1 -14 1264.47 1303.44   1
  11   3   7 3495.89 1846.90   1
 -11   3  -7 1009.50 1395.62   1
  11  -3   7 1854.79 812.930   1
 -11  -3  -7 -1489.4 1152.68   1
  11  -3   7 1805.84 861.180   1
 -11   3  -7 3506.60 2473.43   1
   7   8   1 1195.85 1847.22   1
  -7   8  -1 226.790 396.420   1
   6   3 -16 3833.53 2754.57   1
   6  -3 -16 12247.5 2870.39   1
   6  -3 -16 9024.33 1699.95   1
  -6   3  16 9275.74 1790.49   1
  10   5 -13 1841.40 1400.61   1
  10  -5 -13 2235.48 1183.95   1
 -10   5  13 1452.23 1296.68   1
  10   6 -11 5696.39 1725.37   1
 -10   6  11 2233.37 1105.17   1
  10  -6 -11 1036.17 1083.39   1
  -6   8   7 549.490 1126.85   1
   6  -8  -7 2342.34 1153.44   1
  13   0 -15 2923.24 1611.51   1
  13   0 -15 -302.70 1049.39   1
  13   0 -15 1655.43 1450.20   1
   0   7 -10 2119.13 1792.36   1
   0  -7 -10 2115.72 923.070   1
   0  -7 -10 4533.76 1010.52   1
   0   7  10 4093.57 1377.37   1
   7   5 -14 4114.16 1915.52   1
  -7   5  14 1775.98 1105.07   1
   7  -5 -14 4334.15 1269.02   1
   7  -5 -14 3164.60 1445.86   1
  -8   8   3 2828.29 1410.51   1
  11  -4   6 -577.99 650.000   1
 -11  -4  -6 3492.59 1833.36   1
  11  -4   6 1991.10 912.170   1
 -11   4  -6 2888.83 1927.98   1
 -11   4  -6 -1567.7 1230.95   1
  11   4   6 1545.47 790.220   1
  14  -1   4 -2596.7 912.500   1
  14   1   4 -203.38 929.490   1
 -14   1  -4 -381.26 922.560   1
  14   1   4 -431.76 1052.64   1
  14  -1   4 -445.92 934.110   1
   8  -4 -15 -1698.6 1136.61   1
   8  -4 -15 5176.20 1281.45   1
  -8   4  15 5101.58 1466.77   1
   8   4 -15 4068.06 1573.84   1
  -2   0 -15 1316.20 1568.38   1
  -2   0 -15 118.990 689.960   1
   7   5   9 2544.63 1127.44   1
  -7   5  -9 3619.52 2104.35   1
  -7  -5  -9 8152.49 1541.95   1
   7  -5   9 5086.27 1047.64   1
   7  -5   9 5640.32 895.040   1
  -3   4  15 11031.1 2339.46   1
   3   4 -15 14602.7 2923.88   1
   3  -4 -15 16779.8 2881.14   1
   3  -4 -15 20731.4 2807.13   1
   5  -3 -16 3629.31 1866.30   1
   5  -3 -16 2608.13 1241.70   1
  -5   3  16 -1250.1 990.270   1
   5   3 -16 1566.89 1152.59   1
  12  -6   0 553.990 405.630   1
 -12   6   0 -1532.8 1108.80   1
  12   6   0 3853.88 2399.80   1
   5   8   4 -2481.5 1831.78   1
  -5   8  -4 279.610 809.410   1
   1   9   1 12025.1 2466.88   1
  -1   9  -1 5205.86 1380.59   1
  14  -4 -11 43178.8 23786.4   1
  14   4 -11 22543.3 3340.08   1
 -14   4  11 41419.9 23645.5   1
 -13   4  -3 -1078.9 1007.92   1
  13   4   3 -2025.5 1071.53   1
  13  -4   3 -64.640 664.920   1
  13   4   3 956.330 745.860   1
  13  -4   3 2801.71 1228.73   1
 -13   4  -3 124.810 977.200   1
  11  -1 -16 14879.4 2857.61   1
  11  -1 -16 10164.5 1407.11   1
  11   1 -16 13408.7 1805.73   1
  11   1 -16 12756.5 2585.78   1
  15   4  -2 2181.83 1614.50   1
  15  -4  -2 506.880 854.920   1
  15   4  -2 490.130 655.000   1
 -15   4   2 981.500 981.730   1
  -2   6 -11 7531.48 2358.67   1
   2   6  11 2389.48 2642.88   1
   2   6  11 1097.79 873.570   1
  -2  -6 -11 4162.41 905.270   1
  -2  -6 -11 2812.26 1175.13   1
  -4   8  -5 5037.64 1475.34   1
   4   8   5 2343.97 2203.93   1
  -8   8   2 5376.63 1365.27   1
  -1   8  -7 2675.46 1609.14   1
   1   8   7 5017.59 1597.70   1
   6   0 -17 -524.98 784.610   1
   6   0 -17 389.560 1085.13   1
   7  -3 -16 2614.00 1606.12   1
   7   3 -16 8935.46 2091.82   1
  -7   3  16 6480.60 1577.79   1
   7  -3 -16 8974.49 1704.15   1
  10  -2 -16 1864.29 1248.67   1
  10  -2 -16 2530.85 1382.09   1
 -10   2  16 -1082.5 783.960   1
  10   2 -16 -2206.1 1730.58   1
  14  -4   1 3315.90 1320.55   1
  14   4   1 804.940 1367.79   1
 -14   4  -1 5200.83 1648.38   1
  14   4   1 612.510 534.280   1
   3   5 -14 2234.87 1504.97   1
   3  -5 -14 -79.950 374.030   1
   3  -5 -14 2216.79 1330.18   1
  -3   5  14 974.790 1299.91   1
  -8   7  -4 7573.61 1886.90   1
   8   7   4 10707.6 1759.86   1
 -17   1   8 1194.26 1062.06   1
 -17  -1   8 1291.02 1113.46   1
  17  -1  -8 1151.39 1676.73   1
  17   1  -8 -1435.0 710.940   1
  17  -1  -8 55.7000 783.820   1
  17   1  -8 -4508.3 1403.69   1
 -14   5   8 10605.1 2264.44   1
  14   5  -8 5520.02 1518.44   1
  16   2  -1 9912.01 2039.92   1
  16   2  -1 14502.0 2181.02   1
  16  -2  -1 11167.9 1753.44   1
  16  -2  -1 11322.3 1801.73   1
 -16   2   1 7831.04 2621.20   1
  -8   8   4 11394.8 1720.13   1
   8  -8  -4 8871.85 2110.22   1
   7   0 -17 875.320 961.920   1
   7   0 -17 669.740 802.410   1
  -2   9   1 1355.17 1448.38   1
   2   9  -1 4751.86 1927.25   1
  -7  -3 -11 352.800 444.070   1
  -7   3 -11 1618.94 879.490   1
   7   3  11 -6.4600 1302.59   1
  -7  -3 -11 629.050 814.220   1
   7  -3  11 2473.14 1517.73   1
  -7   3 -11 1099.90 1151.00   1
   3  -8  -8 9518.46 1488.78   1
  -3   8   8 2764.56 1943.74   1
  -1   9   2 404.380 1146.85   1
 -14   5   2 13418.4 2916.01   1
  14  -5  -2 19307.2 3351.74   1
  14   5  -2 17465.6 2342.41   1
 -13   5  -1 -1076.4 1329.67   1
  13  -5   1 1412.59 896.970   1
  13   5   1 -1230.4 1175.67   1
  15   1 -13 4214.70 1327.06   1
 -15   1  13 3275.34 1506.71   1
  15  -1 -13 8974.53 1935.99   1
  15  -1 -13 5670.75 1155.99   1
  15   1 -13 4969.44 1024.76   1
  -4   0 -14 -34.660 824.140   1
  -4   0 -14 3115.85 1478.52   1
 -12   5  -3 1631.80 1755.86   1
 -12   5  -3 404.420 1000.55   1
  12  -5   3 -483.05 622.050   1
  12   5   3 -654.53 995.520   1
  16   3  -3 2679.73 1087.09   1
  16  -3  -3 4699.72 900.590   1
  16  -3  -3 3506.60 1706.36   1
 -16   3   3 6253.80 1355.68   1
  16   3  -3 4885.94 1164.90   1
  -2   9   0 298.520 988.160   1
   2   9   0 -620.92 1382.31   1
  -9   7   9 2905.70 1469.23   1
   9   7  -9 1335.84 1264.06   1
   9  -7  -9 958.080 975.040   1
   7   0  12 7503.63 1609.80   1
  -7   0 -12 8829.64 2171.46   1
  -7   0 -12 11169.2 2016.68   1
   0   9   2 6525.29 1882.47   1
  17   1  -4 1372.72 822.470   1
  17  -1  -4 -237.49 778.470   1
  17   1  -4 -3172.6 1706.38   1
  17  -1  -4 3708.80 2043.03   1
 -17   1   4 2368.47 1429.80   1
  -5   2 -13 1043.45 1488.13   1
   5   2  13 -681.61 1057.73   1
  -5   2 -13 1043.18 914.500   1
  -5  -2 -13 812.520 1609.21   1
  -5  -2 -13 2658.91 1287.65   1
 -11   3  15 1855.68 1229.97   1
  11   3 -15 5477.17 1857.48   1
  11  -3 -15 5232.54 1657.53   1
  11  -3 -15 3490.11 1503.72   1
  11   3 -15 2777.39 1666.15   1
   6   4  11 6022.53 1315.36   1
  -6   4 -11 8585.42 2528.33   1
  -6  -4 -11 7607.33 1107.35   1
   2  -8  -8 2434.87 1114.35   1
  -2   8   8 5370.78 1557.48   1
  10   6   4 2834.20 1424.79   1
 -10   6  -4 2438.01 1200.88   1
 -10   6  -4 3024.82 1594.61   1
  10  -6   4 5938.46 986.900   1
 -10  -6  -4 3632.97 1477.54   1
   5   0 -17 1728.28 1478.05   1
   5   0 -17 3754.49 1826.75   1
 -11   7   4 656.890 919.070   1
  11  -7  -4 4937.79 986.490   1
  11   7  -4 1176.82 1573.66   1
   0   3 -15 2537.81 1114.44   1
   0   3 -15 -1188.3 1717.24   1
   0   3  15 -2166.6 1527.62   1
   0  -3 -15 -86.020 1311.62   1
   0  -3 -15 3143.28 1374.85   1
   4   7   8 9853.67 3319.22   1
  -4   7  -8 1225.63 1307.82   1
  -4  -7  -8 3545.09 1484.40   1
  11   4 -14 -394.93 1274.77   1
  11  -4 -14 -1319.9 920.540   1
  11  -4 -14 -870.17 1055.80   1
 -11   4  14 -319.49 1011.53   1
  15  -4  -9 5775.52 1276.01   1
 -15   4   9 5862.95 1204.29   1
  15   4  -9 5082.21 1520.55   1
  -4   8   8 11048.7 1889.72   1
   4  -8  -8 13882.8 2016.82   1
  12   1   7 5559.20 1174.14   1
  12  -1   7 7284.44 1226.54   1
 -12   1  -7 5566.40 1971.41   1
  16   1   0 319.340 1466.15   1
  16  -1   0 -720.30 1210.05   1
  16  -1   0 1709.51 781.430   1
  16   1   0 1469.56 951.340   1
   6   8   3 -1051.8 1859.68   1
  -2   9   2 869.920 1202.02   1
  10   5   6 4252.64 971.930   1
 -10  -5  -6 1846.89 1213.57   1
 -10   5  -6 6146.50 1968.62   1
  10  -5   6 1350.30 814.780   1
  13   1 -15 38045.2 4749.72   1
  13  -1 -15 34962.5 4404.21   1
  13   1 -15 44263.0 24450.0   1
  13  -1 -15 39956.1 22074.6   1
  13   1 -15 42435.9 23475.5   1
  17   0  -9 -33.460 615.430   1
  17   0  -9 1411.10 1844.72   1
 -17   0   9 -302.37 1203.91   1
   4   3 -16 3326.01 1839.18   1
   4  -3 -16 4348.60 1177.98   1
  -4   3  16 1635.11 1216.53   1
   4  -3 -16 85.5500 910.920   1
 -11   7   3 4199.80 1260.72   1
  11  -7  -3 6732.66 1300.18   1
  11   7  -3 2854.65 2356.39   1
 -13   6   5 2121.13 996.200   1
  13  -6  -5 1864.44 967.570   1
  13   6  -5 -76.490 1610.88   1
  -2  -1 -15 15021.9 2536.76   1
  -2   1 -15 12802.2 1915.73   1
  -2   1 -15 14860.8 2976.05   1
  -2  -1 -15 13816.2 2586.46   1
  11  -7  -5 1816.32 1006.71   1
 -11   7   5 2603.22 1397.36   1
  11   7  -5 307.550 1357.28   1
  -8   8   1 1446.67 1123.83   1
  -3   8  -6 1656.03 1294.87   1
   3   8   6 3506.41 2202.49   1
  13  -6  -4 6445.18 1033.02   1
 -13   6   4 2043.23 1162.26   1
  13   6  -4 2276.39 1799.80   1
   8   0 -17 -826.82 965.360   1
   8   0 -17 944.010 950.800   1
   6  -1 -17 1193.90 740.810   1
   6   1 -17 1862.44 1196.97   1
   6  -1 -17 1966.46 1408.63   1
   6   1 -17 5030.82 1900.88   1
   8  -3 -16 1371.83 921.990   1
   8  -3 -16 2907.72 1414.91   1
   8   3 -16 5951.13 1391.54   1
  -8   3  16 2133.33 1114.96   1
 -10   7   8 2009.84 1100.66   1
  10  -7  -8 3326.08 1716.61   1
  10   7  -8 1792.44 1745.78   1
   0   6 -12 2951.46 1839.64   1
   0  -6 -12 160.010 599.240   1
   0  -6 -12 -1173.9 956.930   1
   0   6  12 -946.78 1497.34   1
 -12   6   9 14023.3 2657.11   1
  12  -6  -9 14052.1 2379.53   1
  12   6  -9 13618.6 2444.74   1
  17   0  -3 1323.17 799.850   1
  17   0  -3 1990.45 1136.86   1
   2   9   1 756.200 1395.59   1
   1   9   2 1289.45 1584.83   1
  -4  -6 -10 4215.53 639.090   1
   4   6  10 4948.01 1009.63   1
  -4   6 -10 10562.5 2066.49   1
   4   6  10 8968.52 2676.26   1
   7  -1 -17 12380.0 2002.78   1
   7   1 -17 9419.47 2023.97   1
   7  -1 -17 8933.63 1554.78   1
   7   1 -17 8997.70 1981.51   1
   6   5  10 1712.39 1016.78   1
  -6   5 -10 4535.99 1830.08   1
   6  -5  10 2557.79 1146.91   1
   6  -5  10 5695.44 885.020   1
  -6  -5 -10 6581.29 1223.04   1
  -8   5  14 7192.32 1488.22   1
   8  -5 -14 730.630 1063.92   1
   8  -5 -14 657.120 1001.28   1
   3   4  13 1705.33 2311.44   1
  -3   4 -13 -1064.3 1934.97   1
  -3  -4 -13 2060.09 1380.39   1
   3   4  13 -79.180 972.230   1
  -3  -4 -13 -94.070 386.040   1
   8  -8  -5 20119.5 4152.79   1
  -8   8   5 16119.5 2524.07   1
  -4  -1 -14 2999.24 1553.96   1
  -4   1 -14 1263.82 1243.96   1
  -4   1 -14 -524.80 1506.48   1
  -4  -1 -14 1064.80 741.600   1
  16   3  -9 1596.25 1703.42   1
  16  -3  -9 3694.35 1798.70   1
  16  -3  -9 1347.43 1188.46   1
 -16   3   9 1255.27 1078.45   1
  -7   1 -12 360.970 670.610   1
  -7   1 -12 4396.56 1439.70   1
   7   1  12 -407.51 1262.91   1
  -7  -1 -12 5552.15 1655.69   1
   7  -1  12 1708.51 862.970   1
  -7  -1 -12 1110.46 1156.92   1
  -4   7  11 -1091.3 916.700   1
   4  -7 -11 1594.97 1308.10   1
   4  -7 -11 121.990 868.790   1
   8  -7 -10 10540.6 1901.95   1
  -8   7  10 4148.63 1340.53   1
   3   5  12 -1776.0 1040.18   1
  -3   5 -12 -3245.1 1942.12   1
  -3  -5 -12 323.010 706.940   1
  -3  -5 -12 2772.53 1216.73   1
   3   5  12 -2616.8 1732.54   1
 -13   6   6 5612.14 1415.32   1
  13  -6  -6 5826.24 966.630   1
  13   6  -6 5781.76 1587.65   1
   1   8  -8 2997.90 1521.51   1
   1  -8  -8 -736.85 591.030   1
  -1   8   8 -66.350 1151.06   1
   1  -8  -8 1576.63 815.800   1
 -10   2  -9 12214.4 2147.48   1
  10   2   9 13760.0 2343.94   1
 -10  -2  -9 8968.07 1333.58   1
  10  -2   9 12808.1 3608.65   1
   5   1 -17 4918.36 1087.75   1
   5  -1 -17 5666.58 1478.99   1
   5   1 -17 -572.42 1745.11   1
   5  -1 -17 3932.43 914.440   1
  12   3   6 -53.560 1321.88   1
 -12   3  -6 2085.94 1351.39   1
 -12  -3  -6 1109.49 1170.58   1
 -12   3  -6 -244.76 1798.37   1
  12  -3   6 -649.18 888.450   1
  12  -3   6 -1967.8 1140.87   1
  -3   9   1 1586.76 1038.39   1
   3   9  -1 4000.20 1427.53   1
   5  -8  -8 3085.74 1342.03   1
  -5   8   8 3499.43 1811.48   1
 -10   7  -1 1054.21 933.340   1
  10  -7   1 -65.190 358.020   1
  10   7   1 790.060 625.480   1
  -9   2 -10 -1308.3 970.050   1
   9  -2  10 -1123.6 1098.14   1
  -9  -2 -10 137.260 1349.58   1
   9   2  10 935.590 908.000   1
  -9   2 -10 -144.25 1663.08   1
  -9  -2 -10 2325.61 1272.58   1
   9   6 -12 2613.40 1501.20   1
   9  -6 -12 -861.26 1008.51   1
  -9   6  12 -1422.6 905.440   1
  -1   5 -13 1888.22 850.180   1
  -1  -5 -13 1181.57 687.090   1
   1   5  13 1166.45 727.740   1
   1   5  13 1953.00 1915.05   1
  -1  -5 -13 2168.60 1056.85   1
   4   0 -17 2252.92 1260.62   1
   4   0 -17 3684.11 1862.09   1
  -1   9   3 12516.0 2360.70   1
   0   0 -16 6496.32 1524.80   1
   0   0 -16 3086.72 1297.74   1
  -1   4 -14 1944.25 1443.51   1
  -1  -4 -14 4150.86 1404.16   1
   1   4  14 -1349.8 1845.70   1
  -1  -4 -14 1213.30 800.940   1
  -5   7  11 33491.3 6568.78   1
   5  -7 -11 41366.8 22823.5   1
  16   0 -12 5746.60 1059.79   1
  16   0 -12 7507.69 2071.49   1
 -16   0  12 3192.91 1518.05   1
  16   0 -12 -336.19 894.600   1
  13   6  -3 -2297.9 1498.38   1
  13  -6  -3 871.420 531.250   1
 -13   6   3 -603.56 1097.70   1
   3   7 -11 6869.49 1695.35   1
   3  -7 -11 3432.80 1609.69   1
   3  -7 -11 8903.32 1532.22   1
  -3   7  11 14180.9 2272.07   1
   9  -4 -15 -780.69 982.980   1
   9  -4 -15 2763.42 1402.12   1
   9   4 -15 1346.54 1854.12   1
  -9   4  15 -254.96 1031.51   1
  17  -1  -9 9201.91 2356.09   1
  17   1  -9 5671.72 2159.58   1
 -17   1   9 4189.83 1302.54   1
 -17  -1   9 4958.38 1849.55   1
  17  -1  -9 7958.66 1325.65   1
  17   1  -9 8028.61 1128.12   1
  11  -7  -2 3227.85 1323.62   1
 -11   7   2 -56.030 1055.18   1
  11   7  -2 4301.33 1527.15   1
  -2   5  14 9185.77 2596.40   1
   2   5 -14 6924.27 2380.50   1
   2  -5 -14 7854.16 1409.78   1
   2  -5 -14 9124.20 1986.89   1
   2  -4 -15 -675.71 1105.88   1
   2  -4 -15 627.480 759.710   1
  -2   4  15 2567.00 2488.14   1
   2   4 -15 2754.09 1628.65   1
  -3   9   2 5042.08 1510.56   1
  -2   9   3 15059.1 2611.92   1
  13   0   6 1063.44 827.690   1
  13   0   6 -350.25 986.410   1
 -13   0  -6 3434.34 1540.35   1
  16   2 -11 1335.06 1472.62   1
  16   2 -11 366.510 458.340   1
  16  -2 -11 1346.81 782.610   1
 -16  -2  11 -762.95 845.080   1
 -16   2  11 -1540.3 1110.65   1
  16  -2 -11 968.510 1357.35   1
  11  -7  -6 680.600 911.870   1
 -11   7   6 4169.84 1114.81   1
  11   7  -6 3748.11 2445.44   1
   3   9   0 3259.42 1873.36   1
  -3   9   0 -660.00 939.330   1
  17   2  -6 254.440 687.190   1
  17   2  -6 4057.12 2248.88   1
 -17   2   6 -409.19 1289.84   1
  17  -2  -6 2407.07 1759.50   1
  17  -2  -6 -1112.5 802.710   1
   8   1 -17 8189.70 1355.95   1
   8  -1 -17 5124.65 1313.51   1
   8  -1 -17 10309.9 2218.33   1
   8   1 -17 9405.23 1852.78   1
   5   6 -13 -2655.8 1862.17   1
   5  -6 -13 -406.21 968.910   1
   5  -6 -13 -797.41 816.190   1
  -5   6  13 1755.12 1168.95   1
   0   9   3 3562.40 1737.72   1
  15  -2   2 2585.58 1131.61   1
  15  -2   2 6297.22 1584.06   1
  15   2   2 1747.45 950.080   1
  15   2   2 2989.62 1204.41   1
 -14   3  13 129.950 906.790   1
  14   3 -13 5566.20 1902.78   1
  14  -3 -13 3560.98 1678.58   1
  14  -3 -13 -521.14 1062.99   1
 -11  -2  -8 -208.61 1062.59   1
  11  -2   8 4336.47 1024.26   1
  11   2   8 1779.88 867.660   1
 -11   2  -8 2147.24 1521.28   1
  17  -1  -3 1305.24 781.840   1
  17   1  -3 626.160 377.310   1
  17   1  -3 2438.20 1101.44   1
 -17   1   3 -211.41 1561.89   1
  17  -1  -3 -1141.6 1408.23   1
  -9   7  -3 9356.19 2493.22   1
  -9   7  -3 4218.04 1044.24   1
   9   7   3 4461.18 1169.18   1
 -12   4  -5 5123.54 1735.96   1
 -12   4  -5 2783.34 1814.15   1
 -12  -4  -5 2914.14 1417.40   1
  12   4   5 1310.05 1087.30   1
  12  -4   5 2418.63 1067.07   1
  12  -4   5 1093.21 854.670   1
   4   6 -13 6207.42 1425.38   1
  -4   6  13 6238.63 1640.63   1
   4  -6 -13 555.380 729.760   1
   4  -6 -13 2443.52 1146.66   1
  -7   8   7 1169.06 1159.11   1
   7  -8  -7 -403.84 727.370   1
   1   2 -16 1008.13 1087.35   1
   1  -2 -16 -508.46 724.250   1
   1   2 -16 681.480 787.420   1
   1  -2 -16 6288.67 1981.72   1
  12  -5 -12 523.090 956.470   1
  12   5 -12 2436.15 1442.27   1
 -12   5  12 3823.05 2277.95   1
  17   2  -7 10243.1 2574.89   1
  17   2  -7 4539.39 1230.06   1
  17  -2  -7 7782.48 1309.59   1
 -17   2   7 5441.38 1288.48   1
  17  -2  -7 663.530 1521.25   1
  14   3   3 3401.12 1455.91   1
  14  -3   3 3170.36 1293.57   1
 -14   3  -3 7012.25 2106.89   1
 -14   3  -3 4730.41 1401.23   1
  14  -3   3 8823.68 1736.65   1
  14   3   3 6030.20 1645.96   1
   7   8   2 -45.650 1590.24   1
  13  -3 -14 -539.34 972.390   1
 -13   3  14 1754.55 923.510   1
  13  -3 -14 1928.89 1318.31   1
  13   3 -14 -608.15 1341.67   1
   3  -3 -16 -1832.0 1260.06   1
  -3   3  16 7601.77 1820.22   1
   3   3 -16 2897.04 1310.40   1
   3  -3 -16 2262.95 1130.85   1
  17  -2  -5 -418.94 808.570   1
 -17   2   5 4373.90 1465.69   1
  17  -2  -5 4980.03 1772.78   1
  17   2  -5 6255.44 2177.52   1
  17   2  -5 -577.37 558.390   1
  -1   7 -10 1401.51 1770.35   1
  -1  -7 -10 609.500 711.450   1
   1   7  10 2501.82 1714.06   1
 -16   3   2 -222.45 1639.75   1
  16  -3  -2 -1490.1 1206.49   1
  16   3  -2 2159.30 1828.78   1
  16  -3  -2 2146.09 951.380   1
  16   3  -2 422.100 418.980   1
  -6  -3 -12 4157.26 950.850   1
   6   3  12 1688.35 1013.71   1
   6  -3  12 2208.53 880.990   1
  -6   3 -12 11232.0 2051.76   1
  -6   3 -12 2031.45 1095.58   1
  -6  -3 -12 -241.94 752.110   1
   9   0 -17 3565.67 1733.36   1
   9   0 -17 -1274.2 1036.75   1
 -14   5   9 8196.89 2092.00   1
  14  -5  -9 7789.67 1349.68   1
  14   5  -9 12352.9 2408.65   1
  -8   8   0 3591.34 1595.08   1
   6  -6 -13 862.480 1000.59   1
   6  -6 -13 -1336.7 913.210   1
  -6   6  13 -208.61 897.500   1
  14  -5  -1 2116.41 896.130   1
 -14   5   1 2622.90 1208.09   1
  14   5  -1 2660.20 1527.86   1
  15  -4  -1 37661.2 4601.42   1
  15   4  -1 31736.9 3554.63   1
  15   4  -1 27672.0 5052.74   1
 -15   4   1 39867.3 7297.98   1
 -15   3  -1 12549.3 2392.95   1
  15  -3   1 5589.52 1698.18   1
  15   3   1 12625.7 2566.22   1
  15   3   1 6339.59 2028.30   1
  15  -3   1 10228.4 1860.61   1
   8   2  11 -1275.5 1347.05   1
  -8  -2 -11 -1776.3 788.890   1
  -8   2 -11 1047.90 769.800   1
   8  -2  11 3233.69 1766.40   1
  -8  -2 -11 4799.47 1406.67   1
  -8   2 -11 1379.59 1166.29   1
  12   0 -16 2752.71 1277.56   1
  12   0 -16 2567.77 1175.03   1
   2   9   2 950.910 1540.12   1
  13  -6  -7 435.290 340.780   1
 -13   6   7 1002.03 846.460   1
  13   6  -7 638.590 1490.03   1
   6  -7 -11 4948.51 1329.00   1
  -6   7  11 2418.22 1188.43   1
 -14   2  14 6676.33 1488.92   1
  14  -2 -14 5468.46 1118.73   1
  14   2 -14 11300.9 2064.70   1
  14  -2 -14 -600.85 958.330   1
  14  -2 -14 3961.90 1491.34   1
   4   1 -17 9611.53 2066.72   1
   4   1 -17 9790.99 1449.16   1
   4  -1 -17 7621.65 1297.04   1
   4  -1 -17 7751.06 1457.12   1
   2   8   7 3779.56 2089.25   1
  -2   8  -7 -233.05 1054.52   1
 -11   5  -5 4568.09 1397.53   1
 -11   5  -5 3091.20 1555.46   1
  11  -5   5 2234.54 996.000   1
  11   5   5 1414.17 981.060   1
 -11  -5  -5 1261.56 1137.29   1
   0   1 -16 5398.38 1489.89   1
   0  -1 -16 8981.93 1614.12   1
   0   1 -16 4529.96 1527.42   1
   0  -1 -16 3585.68 1624.51   1
  16  -1 -12 3074.77 1380.34   1
 -16   1  12 -952.06 1196.60   1
 -16  -1  12 50.5900 758.970   1
  16   1 -12 417.920 1224.62   1
  16  -1 -12 7121.74 1962.34   1
  16   1 -12 631.060 706.620   1
  -3   7  -9 4181.82 1242.37   1
   3   7   9 1302.55 1874.13   1
  -3  -7  -9 2541.88 1049.94   1
   2   7 -11 1579.62 1656.51   1
  -2   7  11 5395.73 1641.93   1
   2  -7 -11 843.480 1047.10   1
   2  -7 -11 3436.93 1460.49   1
  -9   3  16 77.0900 789.640   1
   9   3 -16 6323.23 2102.14   1
   9  -3 -16 -56.000 672.510   1
   9  -3 -16 2673.70 1361.73   1
  -3   9   3 1679.04 1607.65   1
  14  -2   4 1747.99 772.860   1
  14   2   4 4735.72 897.490   1
  14   2   4 2458.37 1168.65   1
 -14   2  -4 -854.56 1103.57   1
  14  -2   4 3486.59 1552.32   1
 -13   1  -6 -1533.1 1030.03   1
  13   1   6 -930.41 1190.92   1
  13  -1   6 2455.93 1270.52   1
  13  -1   6 1410.29 969.980   1
 -13   5  11 2099.98 1204.51   1
  13  -5 -11 423.610 712.030   1
  13   5 -11 707.280 1189.50   1
  17   0 -10 9150.95 2016.18   1
  17   0 -10 8578.57 2311.72   1
 -17   0  10 10411.0 2619.43   1
   3   9   1 10607.8 2354.84   1
   0   8  -8 716.430 1196.37   1
   0   8   8 -1782.5 1305.10   1
   8  -8  -6 -399.78 691.770   1
  -8   8   6 -371.16 1021.95   1
   6   0  13 1859.27 1030.96   1
  -6   0 -13 2544.47 1534.90   1
  -6   0 -13 527.420 1017.73   1
   3   6 -13 9275.80 2446.66   1
  -3   6  13 15266.7 2302.15   1
   3  -6 -13 9883.38 2995.40   1
   3  -6 -13 13363.1 1784.11   1
 -11   2  16 2372.16 1237.82   1
  11   2 -16 -2210.9 1499.52   1
  11  -2 -16 -536.31 1188.93   1
  11  -2 -16 2967.77 1628.23   1
   1   9   3 -1277.6 1254.71   1
 -12   6  -1 3143.35 1923.46   1
  12   6   1 5615.32 1287.09   1
  12  -6   1 1865.56 1028.03   1
   5   4  12 3946.66 1770.27   1
  -5  -4 -12 3920.10 1714.14   1
  -5   4 -12 -3.4500 750.860   1
  -5   4 -12 1518.80 2207.92   1
  -5  -4 -12 2133.22 1081.10   1
 -13   6   2 -229.28 938.890   1
  13  -6  -2 1922.87 1191.26   1
  13   6  -2 -326.17 1441.17   1
  17   2  -8 3350.22 1459.75   1
 -17   2   8 2848.04 1333.75   1
 -17  -2   8 -1579.0 1563.36   1
  17  -2  -8 2176.37 1665.24   1
  17   2  -8 6895.40 2071.32   1
  17  -2  -8 4536.02 838.170   1
  15   0   3 -1276.5 868.660   1
  15   0   3 -2569.4 1114.92   1
   6  -8  -8 -954.08 800.530   1
  -6   8   8 -299.33 872.760   1
  15  -2 -13 1399.36 1232.07   1
 -15   2  13 3250.15 1545.53   1
  15   2 -13 1204.10 816.610   1
  15   2 -13 2787.67 1756.48   1
  15  -2 -13 6670.82 1163.51   1
  15   4 -10 2270.73 2032.53   1
  15  -4 -10 836.470 908.860   1
 -15   4  10 613.590 1016.53   1
  11   6   3 12644.6 2197.35   1
 -11   6  -3 8121.92 1959.46   1
 -11   6  -3 6668.88 1478.68   1
  11  -6   3 9800.15 1685.95   1
  11  -5 -13 2365.37 1263.57   1
  11   5 -13 1279.39 1399.99   1
 -11   5  13 3076.97 1646.56   1
  11  -7  -1 902.030 688.370   1
 -11   7   1 5416.12 1261.16   1
  11   7  -1 -553.65 1315.28   1
   3   0 -17 1696.08 1318.64   1
   3   0 -17 2158.57 2135.16   1
   9  -5 -14 1972.53 1508.30   1
   9  -5 -14 12732.1 1950.89   1
  -9   5  14 9052.11 1639.80   1
  17  -2  -4 -1113.6 1525.54   1
 -17   2   4 -2169.2 1504.51   1
  17   2  -4 813.670 1603.35   1
  17   2  -4 1651.71 1160.98   1
  17  -2  -4 1819.21 1127.51   1
   5   5  11 3845.49 2188.06   1
  -5  -5 -11 1578.86 1146.69   1
   5   5  11 -3275.3 1231.69   1
  -5   5 -11 1472.56 1772.83   1
   9  -1 -17 -1271.3 846.090   1
   9   1 -17 -555.48 772.050   1
   9   1 -17 -1549.5 1408.91   1
   9  -1 -17 516.350 748.540   1
  17   0  -2 2006.06 1872.78   1
  17   0  -2 1466.76 806.590   1
  13  -4 -13 5355.67 1196.34   1
  13   4 -13 -1885.3 1120.80   1
 -13   4  13 847.060 1110.27   1
  -4   9   1 1476.15 1212.78   1
   4   9  -1 1889.68 1798.96   1
   8   6   7 489.660 1117.51   1
  -8  -6  -7 1660.00 1123.39   1
   8  -6   7 2535.79 1105.31   1
  -8   6  -7 100.830 1203.60   1
   7  -6 -13 1767.59 1245.28   1
   7  -6 -13 2561.85 1363.58   1
  -7   6  13 1582.26 1199.48   1
 -11   7   7 7407.92 1767.83   1
  11   7  -7 2396.86 1549.35   1
  11  -7  -7 3426.19 1476.52   1
  12   1 -16 1688.54 1189.21   1
  12  -1 -16 -275.07 1110.01   1
  12  -1 -16 2181.81 1175.16   1
  12   1 -16 -584.86 944.560   1
 -12  -2  -7 1213.36 1298.68   1
  12  -2   7 401.980 626.810   1
 -12   2  -7 -2080.3 1346.00   1
  12  -2   7 4102.07 2558.19   1
  16  -2   0 735.700 1301.62   1
  16   2   0 4941.78 1282.48   1
  16  -2   0 921.370 583.620   1
  16   2   0 3023.74 1310.09   1
 -16   2   0 4089.83 2813.21   1
  -4   9   2 3432.16 1915.83   1
 -15   3  12 2749.49 1396.80   1
  15  -3 -12 3372.43 1533.66   1
  15   3 -12 5022.69 1374.26   1
  15  -3 -12 3854.69 1929.58   1
  16   0   1 890.400 761.890   1
  16   0   1 1218.74 1406.34   1
  -1   9   4 2235.21 1337.79   1
  -7   6  -8 394.770 1387.07   1
   7   6   8 1073.50 1334.25   1
  -7  -6  -8 255.200 724.440   1
  -2   9   4 -486.48 1076.06   1
 -13   2  15 2217.36 1120.49   1
  13  -2 -15 -340.55 1041.19   1
  13   2 -15 -2459.6 1347.24   1
  13  -2 -15 -342.57 784.650   1
  13   2 -15 3443.29 1739.90   1
  -3   3 -14 4184.88 893.950   1
   3   3  14 9229.89 1769.15   1
  -3  -3 -14 4343.54 1276.83   1
  -3   3 -14 2607.85 1587.71   1
  -3  -3 -14 7300.14 1492.11   1
 -11   6  11 898.460 615.510   1
  11   6 -11 -925.25 1201.93   1
  11  -6 -11 1563.94 1342.85   1
  16  -3 -10 2478.41 1609.54   1
 -16  -3  10 -229.16 942.470   1
  16  -3 -10 2364.84 1561.61   1
 -16   3  10 2165.33 1100.40   1
  16   3 -10 2406.78 1686.81   1
  -2   2 -15 -506.30 1584.88   1
  -2  -2 -15 -156.11 788.290   1
  -2  -2 -15 1308.77 1132.31   1
  -2   2 -15 -66.670 676.340   1
  17  -1 -10 6896.65 2042.20   1
  17   1 -10 -1015.6 620.630   1
 -17  -1  10 2117.08 1097.85   1
 -17   1  10 1476.69 883.540   1
  17  -1 -10 -309.85 699.830   1
  17   1 -10 3626.76 1976.44   1
   6   1  13 25566.0 5516.91   1
  -6   1 -13 20391.0 3539.11   1
   6  -1  13 20865.0 5331.83   1
  -6   1 -13 25030.4 3249.52   1
  -6  -1 -13 20576.5 3658.36   1
  -6  -1 -13 26729.4 3516.05   1
   6  -2 -17 6415.46 1394.59   1
   6   2 -17 3781.02 1771.10   1
   6  -2 -17 2152.29 1092.31   1
   6   2 -17 8381.05 2219.83   1
   5   8   5 -1595.7 1900.61   1
  -5   8  -5 -1013.7 986.090   1
  -1   5  14 18240.7 2989.69   1
   1  -5 -14 10471.7 1499.37   1
   1  -5 -14 8289.79 1546.57   1
   1   5 -14 12388.3 2418.00   1
  -7   7  11 7046.04 1544.54   1
   7  -7 -11 1674.10 1277.61   1
   4   9   0 -461.96 1591.99   1
  -4   9   0 -247.88 964.420   1
  -3   6 -11 4051.90 2849.97   1
  -3  -6 -11 6193.83 1302.27   1
   3   6  11 3885.83 1749.53   1
   3   6  11 -1223.0 1862.46   1
 -14   4  12 3356.90 1522.60   1
  14   4 -12 2333.82 1472.13   1
  14  -4 -12 1053.03 1070.71   1
  15  -1   3 14058.4 2469.27   1
  15  -1   3 7651.32 1482.42   1
  15   1   3 4913.39 1449.35   1
 -15   1  -3 7119.05 1341.17   1
  15   1   3 8008.82 2548.36   1
   7   2 -17 2419.56 1327.62   1
   7  -2 -17 2512.01 1169.35   1
   7   2 -17 3011.15 1444.84   1
   7  -2 -17 1720.01 1264.14   1
  -1   6 -12 5649.60 1062.31   1
  -1  -6 -12 -43.690 617.540   1
  -1  -6 -12 136.370 647.850   1
   1   6  12 131.310 1844.20   1
  -9  -6  -6 603.820 848.040   1
   9  -6   6 493.560 347.620   1
  -9   6  -6 -299.34 1265.45   1
   9   6   6 -1377.0 885.800   1
  -7   7  -6 529.520 1173.16   1
   7   7   6 -532.35 1513.89   1
  13  -3   5 1959.80 1086.92   1
 -13   3  -5 -1719.4 1827.88   1
 -13   3  -5 865.300 1216.34   1
  13   3   5 2850.18 1243.84   1
  13  -3   5 744.640 594.280   1
 -12   3  15 1184.70 831.410   1
  12  -3 -15 1351.66 849.400   1
  12   3 -15 3365.95 1489.42   1
  12  -3 -15 -450.18 594.400   1
  -4   2 -14 2392.98 1265.06   1
   4   2  14 5639.21 1618.29   1
  -4  -2 -14 5126.93 1835.80   1
  -4   2 -14 3232.69 1574.06   1
  -4  -2 -14 9579.66 1711.60   1
  10  -4 -15 9238.33 1421.62   1
  10  -4 -15 6071.43 2320.95   1
 -10   4  15 7432.38 1990.59   1
  13  -5   2 8373.21 1442.62   1
 -13   5  -2 7113.75 2079.88   1
  13   5   2 8749.36 1845.74   1
   0   9   4 -956.25 1092.61   1
  -4   9   3 927.120 1086.57   1
  10  -7  -9 3603.10 1888.14   1
 -10   7   9 2229.62 1396.56   1
  10   7  -9 7113.81 2095.75   1
   1   7 -11 1729.97 1762.23   1
   1  -7 -11 -795.47 766.960   1
   1  -7 -11 1521.81 1071.64   1
  -1   7  11 -1847.5 1141.89   1
 -14   4  -2 11242.3 2183.15   1
  14   4   2 6493.38 1410.12   1
  14   4   2 6455.72 1612.12   1
  14  -4   2 7873.43 2019.97   1
   1  -4 -15 5013.53 1287.81   1
   1   4 -15 3461.84 1627.56   1
  -1   4  15 8340.57 2631.98   1
   1  -4 -15 4357.78 884.890   1
  -3   9   4 3634.12 1929.46   1
  -7   2 -12 2266.33 1677.73   1
  -7   2 -12 354.070 1125.10   1
   7   2  12 2748.07 1447.29   1
  -7  -2 -12 3564.73 1710.95   1
  -7  -2 -12 4271.56 1364.53   1
  -6  -7  -7 1705.25 1181.67   1
   6   7   7 2085.92 2102.20   1
  -6   7  -7 644.270 1175.84   1
   3  -1 -17 2329.88 1119.62   1
   3   1 -17 1813.56 1093.15   1
   3  -1 -17 -284.85 1442.58   1
   3   1 -17 4943.14 955.320   1
  -1   3 -15 1901.93 1174.86   1
  -1  -3 -15 2733.41 1259.43   1
   1   3  15 1162.93 1477.55   1
  -1   3 -15 3405.05 1958.92   1
  -1  -3 -15 1036.64 1596.78   1
   6   8   4 1801.14 2005.21   1
  -6   8  -4 219.020 829.720   1
  13  -6  -8 629.900 667.030   1
 -13   6   8 2223.75 1434.26   1
  13   6  -8 -118.22 1337.25   1
   2   6 -13 13055.3 2765.10   1
  -2   6  13 6494.58 1922.44   1
   2  -6 -13 7158.28 1796.61   1
   2  -6 -13 6280.73 1227.97   1
  17  -1  -2 1718.02 1215.53   1
 -17   1   2 4136.99 3070.76   1
  17   1  -2 -2417.5 1365.91   1
  17  -1  -2 -407.54 639.150   1
  17   1  -2 -1569.5 652.910   1
   2  -3 -16 -1953.7 1264.93   1
  -2   3  16 -658.08 1329.08   1
   2  -3 -16 1901.83 1289.81   1
   2   3 -16 2988.51 1352.94   1
   9   7 -10 2429.91 1166.32   1
  -9   7  10 6775.00 1778.36   1
   9  -7 -10 6174.31 1591.06   1
  -9   8   3 -499.05 1128.47   1
 -12   6  10 4126.84 2606.23   1
  12  -6 -10 3895.92 1802.64   1
  12   6 -10 2397.91 1842.11   1
  10   0 -17 -1453.1 1248.58   1
  10   0 -17 -1171.2 948.620   1
   5  -2 -17 2144.03 1057.21   1
   5  -2 -17 746.480 675.750   1
   5   2 -17 2916.05 1286.61   1
   5   2 -17 5811.06 1753.49   1
   4   8   6 10453.6 2861.46   1
  -4   8  -6 2156.62 1422.93   1
  15   0 -14 2121.29 1358.20   1
  15   0 -14 2211.37 1621.98   1
  15   0 -14 1799.06 1264.51   1
  12   4 -14 -695.29 1179.43   1
  12  -4 -14 -1632.5 966.040   1
  12  -4 -14 1349.39 1136.96   1
 -12   4  14 -251.38 1093.49   1
   6   6   9 -1576.0 1458.65   1
   6   6   9 105.570 707.430   1
  -6   6  -9 -2275.0 1375.62   1
  -6  -6  -9 599.630 1011.44   1
   3   9   2 1749.94 1822.64   1
  -8   8  -1 -899.45 1241.06   1
   9  -8  -4 326.160 645.500   1
  -9   8   4 501.420 513.070   1
  16  -1   1 1298.25 1339.44   1
  16   1   1 1397.23 1412.80   1
  16   1   1 2668.39 1132.67   1
  16  -1   1 997.930 983.080   1
   2   9   3 9634.00 2402.97   1
 -17   2   9 3496.81 1890.97   1
  17  -2  -9 -1966.0 1268.99   1
  17   2  -9 -94.880 1462.05   1
  17  -2  -9 1211.47 959.730   1
  17   2  -9 898.470 906.730   1
 -17  -2   9 2425.38 1371.28   1
  14   0 -15 -17.630 784.230   1
  14   0 -15 1766.18 2100.88   1
  14   0 -15 -830.71 1183.95   1
  10   6 -12 2624.20 1969.15   1
 -10   6  12 -2138.6 1131.09   1
  10  -6 -12 1700.76 1086.72   1
  16  -4  -6 -423.16 680.140   1
 -16   4   6 1875.34 1243.80   1
  16   4  -6 -225.23 1591.98   1
 -10   7  -2 1429.01 1044.14   1
  10  -7   2 1543.20 926.580   1
  10   7   2 -358.88 1140.70   1
  -3   0 -15 1019.73 876.990   1
  -3   0 -15 5505.72 1487.83   1
  -9   8   2 673.310 1060.10   1
  -8   7  -5 -109.10 1050.54   1
   8   2 -17 -1337.4 1715.57   1
   8  -2 -17 2842.45 1344.77   1
   8  -2 -17 1202.40 1092.19   1
  16  -4  -5 3232.93 1585.62   1
  16   4  -5 -651.11 1546.76   1
 -16   4   5 2783.92 1207.65   1
  14   0   5 1525.10 887.670   1
  14   0   5 471.360 473.370   1
  10  -3 -16 7646.70 1453.71   1
 -10   3  16 5794.29 1354.75   1
  10   3 -16 11267.2 1992.04   1
  10  -3 -16 3955.49 1682.88   1
  -3   8   9 8397.12 1944.15   1
   3  -8  -9 7646.59 1492.88   1
  17  -2  -3 3374.30 1943.21   1
 -17   2   3 5356.14 1693.79   1
  17   2  -3 1277.13 869.160   1
  17  -2  -3 1318.88 740.870   1
  17   2  -3 -1199.6 1412.71   1
  -1   8  -8 82.4500 1207.96   1
   1   8   8 7056.91 1579.80   1
 -13   6   1 4760.88 1210.28   1
  13  -6  -1 3189.59 1402.44   1
  13   6  -1 2599.90 1870.14   1
 -16   3   1 2880.62 1806.02   1
  16  -3  -1 715.570 735.260   1
  16  -3  -1 1657.98 926.260   1
  16   3  -1 885.970 723.870   1
  16   3  -1 -1091.4 1442.80   1
   4  -8  -9 282.350 758.290   1
  -4   8   9 3141.28 1891.39   1
  -9   4  -9 9995.05 2349.93   1
   9  -4   9 8168.82 1707.71   1
  -9  -4  -9 3267.45 1556.50   1
   9  -4   9 7241.13 1459.38   1
   9   4   9 7043.50 1427.43   1
  13   4   4 3036.90 1461.51   1
 -13   4  -4 3961.18 1838.30   1
  13  -4   4 1256.08 733.530   1
 -13   4  -4 -900.94 855.540   1
  13  -4   4 -949.16 654.350   1
   5   7   8 1121.27 2110.40   1
  -5   7  -8 472.800 1155.74   1
  -5  -7  -8 557.270 584.040   1
   8  -6 -13 1320.78 1171.73   1
   8  -6 -13 1491.26 1162.21   1
  -8   6  13 5147.32 1455.33   1
 -15   5   5 1126.10 728.490   1
  15  -5  -5 2727.81 1144.85   1
  15   5  -5 1356.84 1575.06   1
  -8   8   7 4613.12 1476.99   1
   8  -8  -7 3453.11 1510.21   1
 -14   5  10 21545.9 3583.74   1
  14  -5 -10 33293.0 19889.6   1
  14   5 -10 27887.5 3641.48   1
  16  -4  -7 2961.15 1363.81   1
  16   4  -7 5878.35 2153.62   1
 -16   4   7 3660.41 1873.29   1
  12  -5   4 4592.17 822.270   1
 -12   5  -4 1465.51 1056.73   1
  12   5   4 6600.58 1294.42   1
 -12   5  -4 3377.61 1737.48   1
  15  -5  -6 2718.34 1277.81   1
 -15   5   6 1992.66 1302.84   1
  15   5  -6 1882.57 1627.97   1
   4   9   1 1652.31 2011.42   1
   5   3  13 1746.94 1031.74   1
  -5  -3 -13 -770.61 1045.00   1
  -5   3 -13 2907.82 1422.65   1
  -5  -3 -13 141.510 760.150   1
  -5   3 -13 554.060 909.390   1
  -7   8   8 1841.60 1286.11   1
   7  -8  -8 5703.71 1298.16   1
  14  -5   0 4715.27 798.610   1
 -14   5   0 8518.33 1913.86   1
  14   5   0 6028.31 1255.71   1
  -9   8   5 794.700 772.820   1
   9  -8  -5 3328.58 1435.56   1
  10  -1 -17 1510.07 1225.05   1
  10  -1 -17 928.580 732.290   1
  10   1 -17 2509.80 1351.15   1
  10   1 -17 2313.69 1365.20   1
   7   8   3 -2390.1 1437.17   1
 -10   4  -8 3962.17 2082.39   1
  10  -4   8 5415.02 998.250   1
 -10  -4  -8 4185.30 1025.71   1
  10  -4   8 3870.36 1641.25   1
  10   4   8 3624.02 1726.51   1
   1   9   4 3085.96 2206.93   1
 -15   1  14 1106.97 1081.59   1
  15   1 -14 687.060 1280.30   1
  15  -1 -14 338.170 1216.25   1
  15  -1 -14 -813.61 1155.42   1
  15   1 -14 -1002.2 685.760   1
  15  -1 -14 2331.78 1368.12   1
  -2   8   9 2931.79 1947.79   1
   2  -8  -9 1221.85 791.230   1
   2  -8  -9 1582.70 1183.23   1
 -11   7   0 3611.61 1655.69   1
  11  -7   0 -96.460 504.060   1
  11   7   0 -745.97 1225.19   1
  -2   5 -13 6386.72 1753.82   1
   2   5  13 -550.19 1847.42   1
  -2  -5 -13 2442.00 1124.33   1
  -2  -5 -13 2076.62 1002.86   1
   2   5  13 1158.54 1020.42   1
   4   2 -17 2713.45 1483.31   1
   4  -2 -17 -855.00 1413.83   1
   4   2 -17 1274.46 798.690   1
   4  -2 -17 -117.76 800.410   1
  -4   9   4 2698.95 1496.27   1
   0  -2 -16 944.680 937.670   1
   0   2 -16 1459.80 1094.53   1
   0   2 -16 -192.67 650.640   1
   0  -2 -16 -327.20 647.990   1
  16  -2 -12 2846.49 1628.26   1
 -16   2  12 6462.89 1654.15   1
  16  -2 -12 4333.49 1187.99   1
  16   2 -12 5029.50 1811.84   1
  16   2 -12 2517.32 1288.07   1
  -2   7 -10 412.170 1498.78   1
  -2  -7 -10 2506.32 1102.44   1
   2   7  10 -1651.3 1587.28   1
  15   4   0 1255.91 816.720   1
 -15   4   0 1566.88 1315.15   1
  15   4   0 -1063.3 1172.90   1
  15  -4   0 3393.24 1429.41   1
  -1   0 -16 4797.62 1016.48   1
  -1   0 -16 2329.79 1145.54   1
   2   0 -17 677.270 935.130   1
   2   0 -17 765.800 584.270   1
 -10   6  -5 430.780 1109.35   1
  10   6   5 -1153.8 977.610   1
  10  -6   5 -1681.2 556.480   1
 -10  -6  -5 -95.140 722.220   1
  14  -1 -15 1270.52 1061.38   1
  14   1 -15 8957.35 2342.67   1
  14  -1 -15 8361.04 1428.01   1
  14   1 -15 7161.06 1494.80   1
  14   1 -15 12571.0 2481.49   1
  14  -1 -15 8440.38 1640.47   1
   8   4  10 1477.77 1113.60   1
   8  -4  10 -223.06 1032.67   1
  -8  -4 -10 1547.77 1114.34   1
  -8   4 -10 -1965.1 1520.54   1
 -16   4   4 4180.97 1332.30   1
  16   4  -4 423.900 1553.28   1
  16  -4  -4 2009.40 1258.04   1
 -17   0  11 903.080 810.880   1
  17   0 -11 3011.07 2359.29   1
  17   0 -11 -123.91 725.350   1
   3   8   7 2927.81 2084.87   1
  -3   8  -7 2459.89 1431.08   1
  13   2   6 1564.91 913.750   1
  13  -2   6 2241.53 1175.45   1
  13  -2   6 -86.820 814.510   1
 -13   2  -6 534.050 1186.56   1
 -15   5   4 -86.660 1064.00   1
  15  -5  -4 1524.69 903.210   1
  15   5  -4 -4078.6 1358.94   1
   2   4  14 -3277.3 1917.76   1
  -2  -4 -14 813.490 603.250   1
   2   4  14 148.330 951.330   1
  -2  -4 -14 -514.70 1254.86   1
  -2   4 -14 -847.78 1799.49   1
  11   7  -8 500.800 1193.96   1
  11  -7  -8 826.580 627.780   1
 -11   7   8 4174.64 1218.84   1
  -3  -1 -15 5811.63 1174.93   1
  -3   1 -15 -1435.0 1555.58   1
  -3   1 -15 2314.56 1217.04   1
  -5   8   9 5396.87 1095.52   1
   5  -8  -9 7224.84 1321.68   1
 -10   0 -10 7305.44 1748.18   1
 -10   0 -10 13424.1 2252.70   1
  10   0  10 11816.8 2788.77   1
  -5   9   2 1433.18 1268.97   1
  14  -1   5 5143.84 1164.65   1
  14   1   5 6352.91 1395.02   1
  14  -1   5 10587.5 2387.03   1
 -14   1  -5 1149.41 1043.91   1
  14   1   5 7337.79 1263.90   1
  -9   8   1 -33.780 1144.16   1
 -16   0  13 6179.65 1287.95   1
  16   0 -13 1585.15 1067.02   1
  16   0 -13 -253.95 1392.74   1
  16   0 -13 1123.33 1113.98   1
  15  -5  -7 471.050 437.230   1
  15   5  -7 298.290 1304.91   1
  10  -5 -14 -1600.3 841.280   1
  10   5 -14 2062.65 1520.98   1
  10  -5 -14 -22.680 990.170   1
 -10   5  14 -1361.6 986.900   1
  -2   9   5 4860.83 1435.86   1
   5   9  -1 -187.59 1471.50   1
  -5   9   1 4156.11 2640.55   1
  11   0   9 265.790 638.930   1
 -11   0  -9 -2589.3 1226.05   1
 -11   0  -9 187.280 1367.19   1
  -8   7  11 1089.30 1097.55   1
   8  -7 -11 3298.82 1701.26   1
  -1   9   5 -589.76 1027.94   1
  -5   6 -10 13369.9 2352.01   1
   5   6  10 8247.72 2693.64   1
   5   6  10 5159.17 1493.59   1
  -5  -6 -10 3853.99 1635.93   1
   5   0  14 5800.58 1130.86   1
  -5   0 -14 6194.27 1480.55   1
  -5   0 -14 4151.28 2729.39   1
  -4   5 -12 11803.8 2352.48   1
   4   5  12 7366.45 1738.92   1
  -4  -5 -12 12886.1 2181.34   1
   4   5  12 12710.1 3217.71   1
   9   2 -17 8399.41 2020.02   1
   9  -2 -17 14463.3 2144.33   1
   9  -2 -17 11519.7 2282.43   1
 -10   3  -9 2448.71 1662.34   1
 -10  -3  -9 1162.61 1134.98   1
  10  -3   9 2834.68 1821.48   1
  10  -3   9 1193.11 768.390   1
  17   0  -1 2298.75 1058.04   1
  17   0  -1 984.850 819.410   1
  -5   9   3 544.780 1101.51   1
  -9   7  -4 -81.630 904.330   1
   9   7   4 2695.96 1415.29   1
  -4  -4 -13 687.430 868.690   1
  -4  -4 -13 2695.56 1405.66   1
   4   4  13 -1205.4 1133.85   1
  -4   4 -13 7378.75 1682.86   1
  16  -4  -8 7586.38 1343.29   1
 -16   4   8 4455.23 1267.51   1
  16   4  -8 5575.16 1403.55   1
  -1   6  13 2891.42 1772.64   1
   1  -6 -13 817.650 711.510   1
   1  -6 -13 947.190 533.000   1
   1   6 -13 1869.38 1130.21   1
  -9   0 -11 -924.57 1723.84   1
  -9   0 -11 -310.44 983.460   1
   9   0  11 4672.62 925.670   1
  12  -2 -16 12351.4 1750.86   1
  12  -2 -16 11262.2 2610.63   1
  12   2 -16 10943.9 2361.39   1
   0   7 -11 1969.03 1961.71   1
   0   7  11 177.340 1408.47   1
   0  -7 -11 955.950 987.960   1
   0  -7 -11 -129.64 621.090   1
   9  -3  10 6822.89 1291.20   1
  -9  -3 -10 11546.0 2183.27   1
   9   3  10 6699.57 1781.80   1
  -9   3 -10 11365.3 2120.06   1
  -3   9   5 2119.87 1235.27   1
 -15   4  11 4935.39 1209.47   1
  15   4 -11 5707.01 1286.65   1
  15  -4 -11 5303.25 1026.08   1
  -9   5  -8 1984.40 1810.65   1
   9  -5   8 4487.92 1697.23   1
  -9  -5  -8 4245.75 1466.34   1
   9   5   8 6032.42 1357.84   1
  11   4   7 25608.9 5729.34   1
  11  -4   7 36489.5 21793.1   1
 -11  -4  -7 28067.5 3594.90   1
 -11   4  -7 27841.2 3811.55   1
   6   4 -16 4327.57 1542.09   1
  -6   4  16 2422.94 1306.46   1
   6  -4 -16 233.710 786.330   1
   6  -4 -16 4445.10 1332.09   1
  -1  -1 -16 3135.51 1327.83   1
  -1   1 -16 880.770 733.660   1
  -1  -1 -16 3459.11 1708.71   1
  -1   1 -16 4002.07 1888.34   1
   1   8  -9 1807.59 1340.77   1
   1  -8  -9 2459.18 1085.78   1
  -1   8   9 4828.83 1729.61   1
   8   5   9 -1380.0 1240.31   1
   8  -5   9 1328.57 745.130   1
  -8  -5  -9 441.180 856.800   1
  -8   5  -9 4096.96 3099.39   1
   2  -1 -17 -827.78 655.070   1
   2   1 -17 2938.14 1547.41   1
   2  -1 -17 -1095.1 1443.27   1
   2   1 -17 281.060 722.900   1
  13   0 -16 -2267.1 1310.42   1
  13   0 -16 1340.86 1065.46   1
  17   1 -11 -1277.0 1386.73   1
  17  -1 -11 2096.65 1965.36   1
 -17  -1  11 -1.7800 927.930   1
 -17   1  11 591.860 771.960   1
  17  -1 -11 2373.05 1162.36   1
  17   1 -11 1222.20 876.730   1
 -12   6  -2 -22.740 1125.32   1
  12  -6   2 2406.59 1032.80   1
  12   6   2 2856.42 1637.83   1
   5   4 -16 5532.67 1651.27   1
   5  -4 -16 4495.91 1248.56   1
  -5   4  16 4366.53 1640.32   1
   5  -4 -16 923.640 918.080   1
  16  -3 -11 4723.95 1315.46   1
 -16   3  11 4119.46 2603.47   1
  16  -3 -11 4320.05 1387.21   1
  16   3 -11 227.700 1260.41   1
  12  -7  -4 -162.80 610.360   1
 -12   7   4 3674.55 1652.81   1
  12   7  -4 -106.61 1354.35   1
   6  -5 -15 6995.55 1491.47   1
  -6   5  15 6609.21 1826.32   1
   6   5 -15 1643.45 2115.79   1
   6  -5 -15 5149.86 1419.69   1
   5   5 -15 6226.08 1744.01   1
  -5   5  15 213.580 1178.79   1
   5  -5 -15 4430.52 1265.20   1
   5  -5 -15 1642.08 1193.46   1
 -13   6   9 2847.50 1270.39   1
  13  -6  -9 3079.52 1426.36   1
  13   6  -9 1445.96 1512.16   1
  17  -2 -10 2696.36 1910.08   1
  17   2 -10 -36.290 1278.01   1
  17  -2 -10 2596.51 1488.14   1
 -17  -2  10 266.050 623.870   1
  17   2 -10 2464.61 1121.02   1
 -17   2  10 -1265.0 1033.24   1
 -10  -1 -10 -2395.5 1368.90   1
 -10   1 -10 6102.66 2711.01   1
  10   1  10 -1594.1 1317.98   1
 -10  -1 -10 -404.22 1211.02   1
 -10   1 -10 2409.70 1380.21   1
  10  -1  10 2616.18 1596.93   1
  -6   2 -13 45.5300 2223.94   1
   6  -2  13 850.120 658.470   1
  -6   2 -13 1186.90 1174.30   1
   6   2  13 -182.38 1128.42   1
  -6  -2 -13 -1282.5 936.540   1
  -6  -2 -13 3550.74 1726.75   1
   9  -8  -6 5102.21 1210.99   1
  -9   8   6 1233.69 945.530   1
  17  -3  -6 5831.10 1379.32   1
 -17   3   6 4747.37 1512.75   1
  17  -3  -6 38.7400 985.830   1
  17   3  -6 6383.58 2440.86   1
  17   3  -6 2561.53 1108.51   1
   3   9   3 3914.90 2241.39   1
   5   9   0 -1228.5 1756.48   1
  -5   9   0 1213.42 1194.37   1
  -4   7  -9 1785.45 1526.34   1
   4   7   9 2876.92 2178.60   1
  -4  -7  -9 2762.43 1196.99   1
  12  -7  -5 45.7000 656.060   1
 -12   7   5 -209.04 978.320   1
  12   7  -5 -519.90 1263.63   1
  15  -3   2 921.660 1042.63   1
  15   3   2 3306.83 1726.28   1
  15   3   2 343.810 317.620   1
  15  -3   2 2701.96 1114.74   1
 -15   3  -2 7282.23 2180.52   1
   7   4 -16 3756.55 2144.29   1
   7  -4 -16 2220.63 1539.93   1
   7  -4 -16 2065.09 1294.03   1
  -7   4  16 3105.05 1823.23   1
   0   5  14 3514.04 2226.76   1
   0  -5 -14 1463.91 1009.33   1
   0  -5 -14 319.900 448.420   1
   0   5 -14 2335.65 2006.65   1
  16  -1 -13 36.8600 1268.56   1
  16  -1 -13 1014.43 904.480   1
  16  -1 -13 -463.69 837.450   1
  16   1 -13 1967.84 1634.02   1
 -16   1  13 3551.65 1895.64   1
  16   1 -13 203.720 570.810   1
 -11  -3  -8 7064.42 1715.70   1
  11  -3   8 3923.31 1707.80   1
 -11   3  -8 3061.00 1761.59   1
  11   3   8 3337.24 1709.24   1
  11  -3   8 15615.8 2295.78   1
 -15   5   3 3859.29 1970.25   1
  15  -5  -3 -510.11 703.060   1
  15   5  -3 3249.54 1841.31   1
  15  -2   3 6229.50 1208.34   1
  15   2   3 7314.52 1573.21   1
 -15   2  -3 1444.87 1326.70   1
  15  -2   3 9329.62 1684.81   1
  15   2   3 6785.99 1165.27   1
  11   0 -17 4417.08 1162.60   1
  11   0 -17 -1868.4 943.680   1
   7   4  11 -3372.7 1069.83   1
   7  -4  11 -779.16 1018.23   1
  -7  -4 -11 3054.67 1590.81   1
  -7   4 -11 -1317.7 1797.66   1
 -11   1  -9 6670.23 2244.61   1
 -11  -1  -9 3554.07 1737.54   1
  11   1   9 5752.67 1414.45   1
  11  -1   9 7300.08 1356.44   1
 -11  -1  -9 9250.68 1879.18   1
   0   9   5 6373.62 1811.52   1
  -1   3  16 1300.01 1477.02   1
   1   3 -16 3155.89 1534.20   1
   1  -3 -16 4912.26 1552.67   1
   1  -3 -16 6813.03 1177.20   1
 -17   3   7 728.130 782.850   1
  17  -3  -7 446.050 758.930   1
  17   3  -7 3511.88 2391.48   1
  17  -3  -7 538.900 1125.51   1
  12   0   8 1286.45 988.880   1
 -12   0  -8 -2659.6 1044.36   1
  16   4  -3 -1407.8 1351.43   1
  16  -4  -3 -379.56 719.960   1
 -16   4   3 2698.54 1291.42   1
 -10  -5  -7 5152.83 1124.80   1
 -10   5  -7 6790.77 1903.47   1
  10   5   7 5710.78 1009.58   1
  10  -5   7 3415.62 1506.33   1
   4   9   2 -2709.0 1761.72   1
  -6   8   9 4649.75 1288.91   1
   6  -8  -9 1737.54 1208.65   1
  17  -3  -5 -1300.2 1107.74   1
  17   3  -5 -3604.2 1630.04   1
  17  -3  -5 -947.08 719.850   1
  17   3  -5 1179.21 855.160   1
 -17   3   5 1188.20 732.090   1
   3  -2 -17 12906.6 2071.28   1
   3   2 -17 9796.49 2090.84   1
   3  -2 -17 15046.8 2023.08   1
   3   2 -17 12673.0 2607.60   1
  13  -5 -12 11697.9 1803.31   1
 -13   5  12 9416.58 1577.87   1
  13   5 -12 3454.41 1813.97   1
   5   1  14 -44.080 1117.28   1
  -5   1 -14 1394.56 1217.93   1
  -5  -1 -14 2848.14 1489.20   1
  -5  -1 -14 1047.10 652.880   1
  -5   1 -14 -532.76 897.960   1
  12  -7  -3 1420.06 998.810   1
  12   7  -3 3155.89 1833.72   1
 -12   7   3 1173.23 798.420   1
   2   9   4 -5.8300 1601.07   1
  17   1  -1 7260.87 1802.38   1
  17   1  -1 5930.02 1018.01   1
  17  -1  -1 7645.73 1761.87   1
  17  -1  -1 3764.93 1564.13   1
 -17   2   2 3993.92 2128.53   1
  17  -2  -2 4927.60 841.210   1
  17   2  -2 4758.98 877.950   1
  17   2  -2 3459.24 1494.70   1
  17  -2  -2 1850.77 1614.18   1
  11   4 -15 24060.9 5705.59   1
 -11   4  15 24315.7 5624.09   1
  11  -4 -15 33397.9 7810.57   1
  15  -5  -8 3728.82 2524.37   1
 -15   5   8 -357.93 1072.18   1
  15   5  -8 1498.52 1359.72   1
   0  -4 -15 13301.2 3372.95   1
   0   4  15 2991.53 1941.86   1
   0   4 -15 9031.83 2566.58   1
   0  -4 -15 6314.60 1841.07   1
  -9   1 -11 4659.11 2185.00   1
  -9  -1 -11 1910.54 1039.28   1
   9   1  11 1902.93 1059.63   1
  -9  -1 -11 2328.50 1660.18   1
   9  -1  11 1154.51 720.210   1
  -9   1 -11 1674.86 1241.04   1
  -8   3 -11 1656.49 1164.69   1
  -8   3 -11 -1868.0 1730.85   1
   8   3  11 -161.27 1197.22   1
   8  -3  11 -954.39 1147.20   1
  -8  -3 -11 285.880 863.630   1
   7   5 -15 1739.17 1066.90   1
   7  -5 -15 5418.31 1380.19   1
  -7   5  15 126.800 775.660   1
   7  -5 -15 -549.60 969.800   1
  -5   9   4 -227.57 1085.83   1
   4   5 -15 2219.50 1480.20   1
   4  -5 -15 1121.81 670.070   1
   4  -5 -15 2593.46 1174.27   1
  -4   5  15 3085.24 1624.61   1
  12   5 -13 2498.27 1554.79   1
 -12   5  13 4918.50 1743.57   1
  12  -5 -13 1825.62 1239.26   1
  14   3 -14 13656.4 3576.92   1
  14  -3 -14 1828.68 1227.57   1
 -14   3  14 8416.13 2542.44   1
  14  -3 -14 11824.3 2923.05   1
  -4   9   5 6538.18 2016.16   1
  16   2   1 1825.62 1025.85   1
  16  -2   1 1477.66 749.820   1
  16   2   1 -2027.1 1306.73   1
  16  -2   1 330.290 1227.95   1
 -16   2  -1 2661.60 2057.63   1
  -9   6  13 9974.12 2689.54   1
   9  -6 -13 10387.9 2508.22   1
   7   5  10 5942.34 1711.74   1
  -7  -5 -10 2973.33 1178.53   1
   7  -5  10 3095.05 1192.74   1
  -7   5 -10 1321.98 1574.90   1
  18   0  -6 874.040 620.770   1
  18   0  -6 4918.41 2529.88   1
 -18   0   6 5333.71 1810.38   1
  18   0  -7 1388.36 702.640   1
 -18   0   7 -1173.5 1193.64   1
  18   0  -7 -1365.0 1565.57   1
   4   4 -16 920.860 1231.39   1
  -4   4  16 -2284.7 1233.68   1
   4  -4 -16 88.9900 371.770   1
   4  -4 -16 3053.32 1315.81   1
  13  -1 -16 1270.08 1047.73   1
  13   1 -16 -2900.4 1279.93   1
  13  -1 -16 2384.78 1305.70   1
  13   1 -16 2050.61 1874.52   1
  13   1 -16 1416.35 1337.94   1
  14   3   4 75.0800 1133.01   1
 -14   3  -4 -419.16 1926.41   1
 -14   3  -4 3684.91 1912.86   1
  14   3   4 1772.83 926.580   1
  14  -3   4 -1230.6 917.420   1
  14  -3   4 1105.25 624.890   1
  12  -7  -6 -82.800 710.370   1
 -12   7   6 1624.17 902.230   1
  12   7  -6 -2033.7 1415.09   1
  -9   8   0 1726.23 974.100   1
  13  -6   0 4326.13 1193.45   1
  13   6   0 5025.56 1563.77   1
 -13   6   0 2258.99 1110.70   1
   8   0  12 2089.22 1060.44   1
  -8   0 -12 1382.99 1183.12   1
  -8   0 -12 -1366.8 1801.35   1
  -4   7  12 7348.38 2131.99   1
   4  -7 -12 5205.31 1659.75   1
   4  -7 -12 11107.0 2720.66   1
  -2   6 -12 5351.28 1927.60   1
  -2  -6 -12 1084.23 795.250   1
   2   6  12 1369.76 778.930   1
   2   6  12 4498.56 2746.10   1
  -2   8  -8 112.420 1150.11   1
   2   8   8 6115.91 2538.23   1
  11  -3 -16 2309.48 1223.02   1
  11  -3 -16 3272.59 1368.36   1
 -11   3  16 6437.71 1860.68   1
  11   3 -16 5688.82 2654.11   1
   5  -7 -12 3210.01 1675.67   1
   5  -7 -12 -1848.3 846.580   1
  -5   7  12 724.630 1091.36   1
   8   4 -16 -1497.1 1563.50   1
   8  -4 -16 -317.34 1045.98   1
   8  -4 -16 -614.98 1145.80   1
  -8   4  16 1709.95 1162.90   1
  11  -6   4 2093.35 957.380   1
 -11   6  -4 4372.58 1377.18   1
 -11   6  -4 2343.59 1213.15   1
 -11  -6  -4 819.870 906.160   1
  11   6   4 1640.21 1179.40   1
  10  -7 -10 -1515.6 849.960   1
  10   7 -10 2926.30 1782.72   1
 -10   7  10 571.260 623.640   1
 -17   3   8 2313.55 1152.03   1
  17   3  -8 4293.73 1763.62   1
  17  -3  -8 2907.42 1217.31   1
  17  -3  -8 1801.77 1665.51   1
  11   1 -17 -1171.5 1317.18   1
  11  -1 -17 -1052.3 1005.35   1
  11   1 -17 1008.76 779.500   1
  11  -1 -17 1208.91 813.460   1
 -15   3  13 49.5800 1064.03   1
  15   3 -13 2537.76 1797.26   1
  15  -3 -13 -3572.8 1011.13   1
  15  -3 -13 1442.80 759.670   1
 -14   6   5 2306.15 1004.08   1
  14  -6  -5 3774.56 2423.82   1
  14   6  -5 1205.64 1559.71   1
 -12   1  -8 3499.32 1608.01   1
  12   1   8 3284.71 1345.63   1
  12  -1   8 3509.03 1381.48   1
 -12  -1  -8 2702.89 1417.84   1
  16  -4  -9 4207.78 1154.96   1
 -16   4   9 5877.87 1820.93   1
  16   4  -9 3093.21 1650.01   1
 -18   0   5 -931.51 1619.05   1
  18   0  -5 2100.90 832.690   1
  18   0  -5 -1712.7 1520.03   1
  -8   8   8 1390.87 1120.70   1
   8  -8  -8 3077.93 1234.36   1
  16   0   2 2385.11 1321.05   1
  16   0   2 3247.74 1279.73   1
  17   3  -4 3060.50 1979.75   1
  17  -3  -4 1381.78 1347.97   1
 -17   3   4 4876.39 1768.99   1
  17   3  -4 929.710 717.110   1
  17  -3  -4 4112.53 1040.94   1
 -18   0   8 12669.3 3557.73   1
  18   0  -8 15204.4 3937.34   1
  18   0  -8 12631.8 3513.35   1
  10   2 -17 10452.1 3275.73   1
  10  -2 -17 11422.3 3515.03   1
  10  -2 -17 15261.6 3688.10   1
 -11   7  -1 3397.45 1453.95   1
  11   7   1 1100.76 1046.96   1
  11  -7   1 1647.98 891.090   1
   0   8  -9 967.100 1281.99   1
   0   8   9 -1777.8 1381.91   1
   0  -8  -9 917.770 911.080   1
   5   9   1 14050.1 3802.77   1
   3   7 -12 2301.72 1778.88   1
   3  -7 -12 4140.27 1384.42   1
  -3   7  12 12173.6 3246.01   1
   3  -7 -12 370.060 445.550   1
 -12   4  -6 397.100 993.980   1
  12  -4   6 717.630 595.780   1
 -12  -4  -6 1933.50 1334.53   1
  12   4   6 -1248.8 914.200   1
  12  -4   6 -61.500 742.290   1
 -12   4  -6 -169.51 1162.76   1
  12  -6 -11 3807.34 2559.13   1
 -12   6  11 5787.43 1645.27   1
  12   6 -11 4649.35 2038.99   1
 -15   2  14 1292.56 1045.22   1
  15  -2 -14 -1061.7 958.850   1
  15   2 -14 -1355.9 1199.54   1
  15  -2 -14 4585.84 1553.47   1
  15  -2 -14 1030.95 1091.36   1
  14  -6  -6 4192.75 1295.92   1
  14   6  -6 -2407.7 1308.05   1
 -14   6   6 -61.170 1030.36   1
  12  -3   7 2461.38 1059.47   1
  12   3   7 1163.53 890.680   1
 -12   3  -7 -2097.9 1210.57   1
 -12   3  -7 -1456.7 1916.09   1
 -12  -3  -7 1313.27 1168.31   1
  12  -3   7 -645.76 725.460   1
 -16   3   0 7405.72 2153.54   1
  16  -3   0 5174.39 1583.84   1
  16   3   0 2288.95 1457.14   1
  16  -3   0 4375.82 1203.17   1
  16   3   0 6936.65 1765.19   1
  14  -6  -4 2502.15 1048.39   1
 -14   6   4 1918.70 1216.14   1
  14   6  -4 -1521.1 1577.47   1
 -12   7   2 1924.49 1018.60   1
  12  -7  -2 1374.44 784.540   1
  12   7  -2 6881.37 2099.62   1
   6  -7 -12 -1000.6 919.580   1
  -6   7  12 6497.53 2310.51   1
   6  -7 -12 42.3300 856.720   1
 -13   3  15 5224.51 1785.09   1
  13  -3 -15 -1625.8 1116.12   1
  13   3 -15 9492.88 2549.80   1
  13  -3 -15 6823.52 1831.73   1
   6   8   5 3009.05 1988.47   1
  -6   8  -5 -344.60 999.090   1
  18  -1  -6 3427.65 1994.22   1
 -18   1   6 -854.35 1361.77   1
  18   1  -6 5263.77 2890.35   1
  18  -1  -6 1739.85 1083.99   1
  18   1  -6 -211.99 672.290   1
   1   9   5 3306.00 1669.60   1
 -11   6  12 807.920 930.010   1
  11  -6 -12 -564.22 827.900   1
  11   6 -12 96.4100 1234.12   1
 -18   1   7 8436.03 2470.70   1
 -18  -1   7 11332.1 3117.33   1
  18  -1  -7 6849.51 2736.73   1
  18   1  -7 13358.8 4033.58   1
  18  -1  -7 4952.42 1421.61   1
  18   1  -7 3316.30 1288.07   1
   1   0 -17 1063.48 950.510   1
   1   0 -17 211.090 389.820   1
  14   2 -15 711.320 1326.36   1
 -14   2  15 5715.66 1628.11   1
  14  -2 -15 4288.22 1415.43   1
  14  -2 -15 -481.44 1186.57   1
  11  -5   6 3134.32 1158.35   1
 -11   5  -6 2910.58 1558.20   1
  11   5   6 4529.17 1180.30   1
 -11  -5  -6 1916.87 1199.44   1
   5   8   6 4551.79 1985.01   1
  -5   8  -6 2050.92 1695.09   1
  -8   5  15 1205.16 1048.67   1
   8  -5 -15 3340.66 1468.17   1
   8  -5 -15 -432.15 1055.82   1
  -2  -3 -15 7416.87 2323.87   1
  -2  -3 -15 5154.41 1563.76   1
  -2   3 -15 3822.67 2547.37   1
  -2   3 -15 3939.43 1299.09   1
 -10   7  -3 3179.10 1319.93   1
  10   7   3 5272.44 1574.38   1
  -3   5  15 5853.16 1836.10   1
   3   5 -15 3565.64 2243.73   1
   3  -5 -15 5344.39 1699.98   1
   3  -5 -15 12149.8 2947.27   1
  11  -7  -9 9615.64 2659.55   1
 -11   7   9 8265.17 2426.50   1
  11   7  -9 13112.8 3410.66   1
  -3  -2 -15 2238.76 1006.04   1
  -3  -2 -15 4511.43 1639.02   1
  -3   2 -15 612.150 864.040   1
  -3   2 -15 3452.33 1783.71   1
  -8   1 -12 7684.50 2909.65   1
  -8  -1 -12 -778.34 968.640   1
  -8   1 -12 1890.54 1298.17   1
   8  -1  12 -1014.1 1114.58   1
   8   1  12 566.890 661.490   1
  -8  -1 -12 -169.08 767.850   1
  14  -5 -11 3634.88 1684.08   1
 -14   5  11 4806.97 1558.34   1
  14   5 -11 1650.72 1365.91   1
  13  -5   3 1484.56 768.260   1
 -13   5  -3 -180.97 686.220   1
 -13   5  -3 1358.22 1173.08   1
  13   5   3 -408.68 542.790   1
  13   5   3 721.500 802.330   1
   4   6  11 6677.47 2459.02   1
  -4   6 -11 3124.26 1729.75   1
   4   6  11 3474.12 1420.11   1
  -4  -6 -11 2450.00 1135.63   1
  15   0   4 4204.31 1281.86   1
  15   0   4 -480.05 1066.61   1
 -15   5   2 14263.7 4048.91   1
  15  -5  -2 12913.6 3290.86   1
  15   5  -2 8683.87 2219.17   1
  -6   9   2 -167.85 1032.59   1
   6   3 -17 4128.25 2006.66   1
   6  -3 -17 -555.35 1332.45   1
   6  -3 -17 -233.85 791.560   1
  14  -2   5 -2050.4 984.280   1
  14  -2   5 136.350 380.190   1
 -14   2  -5 2123.78 1457.14   1
  14   2   5 -978.83 1171.48   1
  14   2   5 -512.52 769.660   1
 -14   4  13 6880.58 1943.00   1
  14   4 -13 -980.93 1136.18   1
  14  -4 -13 1104.86 1045.70   1
  14  -5   1 2616.14 984.510   1
  14   5   1 1604.98 1332.60   1
 -14   5  -1 2974.86 1284.17   1
   9  -8  -7 1450.69 1164.30   1
  -9   8   7 -685.27 930.810   1
 -13   0  -7 -3327.7 896.720   1
  13   0   7 1127.92 792.850   1
   7  -3 -17 1456.42 1291.96   1
   7  -3 -17 2383.89 1167.31   1
   7   3 -17 2998.28 1564.73   1
  -9   7  11 1234.46 1149.82   1
   9  -7 -11 1955.68 1198.15   1
 -14   4  -3 2412.39 1195.94   1
  14   4   3 4399.88 1290.32   1
 -14   4  -3 5236.11 1984.25   1
  14  -4   3 10835.8 2671.86   1
  14   4   3 1243.69 781.010   1
   0   6 -13 3799.87 2539.32   1
   0  -6 -13 1425.05 759.710   1
   0   6  13 -1416.3 1409.74   1
   0  -6 -13 959.040 738.320   1
  -6   9   3 1453.78 1607.74   1
 -12   7   7 2599.40 1089.49   1
  12  -7  -7 4344.06 1269.01   1
  12   7  -7 6357.43 2248.74   1
  -4  -3 -14 -739.20 1103.29   1
  -4   3 -14 -1972.1 1577.10   1
  -4  -3 -14 1081.48 870.730   1
  -4   3 -14 379.520 940.230   1
   4   3  14 -127.33 941.770   1
  13   4 -14 3434.91 1873.94   1
  13  -4 -14 3664.85 1789.33   1
 -13   4  14 602.360 528.220   1
  -2   9   6 3785.70 2552.50   1
   3   4 -16 5010.13 1665.53   1
  -3   4  16 2256.81 1670.29   1
   3  -4 -16 1641.96 854.130   1
   3  -4 -16 3603.71 1573.10   1
  -5   9   5 496.570 1034.74   1
  18   1  -5 -1403.9 1607.99   1
 -18   1   5 -475.12 1530.97   1
  18  -1  -5 2169.00 1850.83   1
  18  -1  -5 -95.480 368.710   1
  18   1  -5 -428.87 655.040   1
  -7  -3 -12 5826.13 1918.99   1
   7   3  12 5715.93 1492.72   1
  -7  -3 -12 2654.14 1095.03   1
  -7   3 -12 4638.49 1627.22   1
  -7   3 -12 6329.46 1953.70   1
   7  -3  12 3204.29 1479.03   1
  17   0 -12 4455.96 1376.35   1
 -17   0  12 2645.20 1092.81   1
  17   0 -12 832.290 1378.80   1
  -7   8   9 1497.44 1079.34   1
   7  -8  -9 2889.58 1490.32   1
  16   1   2 1588.81 754.270   1
  16  -1   2 2111.61 862.660   1
  16   1   2 -183.97 1302.72   1
  16  -1   2 582.870 1292.82   1
  16  -4  -2 1153.27 750.450   1
  16   4  -2 -570.40 1450.51   1
 -16   4   2 2404.30 1804.39   1
   6   4  12 752.910 861.160   1
   6  -4  12 2466.84 1052.14   1
  -6   4 -12 1853.56 1361.30   1
  -6  -4 -12 -782.47 676.510   1
  -6   4 -12 4230.32 1435.79   1
  18   1  -8 2406.00 1697.78   1
 -18  -1   8 3914.95 1275.27   1
 -18   1   8 424.220 582.150   1
  18   1  -8 758.920 526.960   1
  18  -1  -8 -1595.8 1609.74   1
  18  -1  -8 1122.87 1086.66   1
   7   8   4 -672.76 1435.23   1
  -7   8  -4 -1637.1 916.230   1
   6   9  -1 1862.36 1602.99   1
  -6   9   1 2337.23 1243.74   1
  -1   7 -11 11350.1 3030.50   1
  -1  -7 -11 11656.7 3333.97   1
   1   7  11 5453.55 1974.13   1
  -3   9   6 5492.13 1588.64   1
   6   5  11 2288.05 1103.80   1
  -6   5 -11 3966.75 1788.01   1
   6  -5  11 2191.48 796.320   1
  -6  -5 -11 3175.86 1408.36   1
   6  -5  11 219.760 207.810   1
   5   3 -17 4651.70 1818.33   1
   5  -3 -17 2539.43 1225.53   1
   5  -3 -17 2275.48 956.650   1
  14  -6  -7 -1095.6 731.020   1
 -14   6   7 4153.09 1359.93   1
  14   6  -7 3902.93 2105.73   1
  15   4   1 2000.20 954.600   1
  15  -4   1 1742.19 947.400   1
  15   4   1 928.860 1322.92   1
 -15   4  -1 4642.91 1565.43   1
 -11   5  14 699.150 1131.78   1
  11   5 -14 1586.77 1482.57   1
  11  -5 -14 2249.74 1134.37   1
 -15   5   9 6447.10 1855.05   1
  15  -5  -9 7730.37 2082.45   1
  15   5  -9 9968.41 3128.87   1
 -14   6   3 6685.27 1922.31   1
  14  -6  -3 5120.43 1363.25   1
  14   6  -3 8724.44 2798.24   1
  -3   7 -10 369.860 1487.82   1
  -3  -7 -10 2402.46 1076.95   1
   3   7  10 -2922.1 1816.02   1
  18   0  -4 4266.93 1813.92   1
 -18   0   4 2977.60 1961.69   1
  18   0  -4 6577.34 2033.57   1
   5   6 -14 2947.07 1821.72   1
  -5   6  14 3426.07 1675.28   1
   5  -6 -14 286.660 517.920   1
   5  -6 -14 5140.39 1730.32   1
  -4   8  -7 1931.02 1327.93   1
   4   8   7 -58.520 1736.26   1
  -1   2 -16 388.130 1040.46   1
  -1  -2 -16 3783.40 2508.45   1
  -1  -2 -16 925.700 859.500   1
  -1   2 -16 1380.87 897.530   1
 -17   3   9 10201.9 2933.66   1
  17  -3  -9 1031.33 1052.87   1
  17   3  -9 2964.00 2176.89   1
  17  -3  -9 6150.41 2223.97   1
  -1   9   6 736.170 1176.79   1
   2   7 -12 1124.90 1859.64   1
  -2   7  12 2746.19 1482.53   1
   2  -7 -12 2278.88 1132.91   1
   2  -7 -12 -55.360 829.440   1
  -9   4  16 39.3000 830.250   1
   9   4 -16 5566.96 1648.02   1
   9  -4 -16 -753.36 1068.12   1
   9  -4 -16 1307.55 830.620   1
   2   2 -17 6566.05 2624.93   1
   2   2 -17 9434.70 2527.40   1
   2  -2 -17 12513.0 2972.34   1
   2  -2 -17 8600.17 2493.80   1
 -10   8   4 3500.02 1508.39   1
  10  -8  -4 -84.960 538.050   1
 -18   0   9 -1962.6 1178.48   1
  18   0  -9 -513.64 1526.06   1
  18   0  -9 -716.47 666.330   1
   1  -1 -17 1634.50 1047.99   1
   1  -1 -17 -1755.3 1600.50   1
   1   1 -17 2686.23 1071.01   1
   1   1 -17 154.240 350.710   1
 -10   8   3 5420.32 1720.37   1
  10  -8  -3 1956.43 1088.41   1
  17   2 -11 5261.03 1804.27   1
 -17   2  11 3737.54 2573.07   1
 -17  -2  11 3349.21 1799.01   1
  17  -2 -11 5452.42 1953.34   1
  17  -2 -11 10361.9 2700.70   1
  17   2 -11 6530.27 1733.12   1
   6  -6 -14 873.240 936.150   1
   6  -6 -14 2761.76 1365.29   1
  -6   6  14 618.940 880.600   1
   4   9   3 1361.40 1848.68   1
   3   9   4 4277.22 2004.91   1
 -10   2 -10 514.180 1748.77   1
  10  -2  10 3651.93 1451.66   1
  10   2  10 4667.63 1333.36   1
 -10  -2 -10 3871.57 1376.10   1
   7   0 -18 2521.69 1124.79   1
   7   0 -18 -2261.3 1404.29   1
  15   1   4 7.77000 848.530   1
  15   1   4 4405.54 1614.73   1
  15  -1   4 701.770 735.500   1
  15  -1   4 -2699.6 1057.96   1
 -15   1  -4 922.950 845.470   1
   8   3 -17 2885.90 1696.25   1
   8  -3 -17 4172.48 1682.97   1
   8  -3 -17 8242.70 2164.24   1
   7  -7 -12 816.260 980.260   1
  -7   7  12 -1375.0 882.600   1
   6   0 -18 6061.34 2095.97   1
   6   0 -18 4921.52 1546.90   1
   4   6 -14 4512.34 1617.66   1
   4  -6 -14 144.170 673.900   1
  -4   6  14 2068.44 1185.97   1
   4  -6 -14 1541.48 822.320   1
  16  -2 -13 162.620 710.390   1
  16  -2 -13 -621.46 1125.30   1
 -16   2  13 -2241.7 1069.20   1
  16   2 -13 3637.87 2259.85   1
  17   0   0 39530.3 24640.2   1
  17   0   0 34679.6 8012.69   1
 -17   3   3 4163.20 1435.17   1
  17  -3  -3 5078.81 1530.24   1
  17   3  -3 2078.80 842.890   1
  17   3  -3 -853.83 1560.84   1
  17  -3  -3 455.300 436.130   1
 -13   6  10 5398.90 1825.22   1
  13   6 -10 6997.67 2334.99   1
  13  -6 -10 6268.86 1698.05   1
  -6   9   4 2806.91 1343.96   1
   7   7   7 -1867.5 1615.34   1
  -7   7  -7 3464.92 1883.61   1
  -7  -7  -7 1810.15 952.720   1
   7   0  13 -3749.6 1249.42   1
  -7   0 -13 2144.73 1307.38   1
  -7   0 -13 -81.560 941.080   1
  13  -1   7 3754.76 2574.48   1
  13  -1   7 4686.98 1696.33   1
  13   1   7 12622.8 3292.77   1
 -13   1  -7 6651.83 2164.70   1
 -11  -2  -9 433.310 1127.67   1
  11   2   9 4653.01 1318.11   1
 -11   2  -9 965.960 1466.67   1
  11  -2   9 575.520 1626.79   1
  -3   5 -13 -2650.6 1585.93   1
  -3  -5 -13 493.470 449.890   1
  -3  -5 -13 301.850 250.070   1
   3   5  13 2745.47 1863.59   1
   3   5  13 5161.67 1541.42   1
  -9   8  -1 3411.81 1401.30   1
  -4   9   6 1267.09 689.980   1
  -8   6  -8 -999.86 1245.73   1
  -8  -6  -8 1232.39 883.810   1
   8   6   8 2866.97 1115.89   1
  17  -1 -12 2293.35 1095.28   1
  17   1 -12 813.340 1428.20   1
  17  -1 -12 3438.75 2186.39   1
 -17  -1  12 5010.29 1654.02   1
 -17   1  12 1704.65 1013.53   1
  17   1 -12 2851.34 1263.76   1
  10  -8  -5 874.410 579.950   1
 -10   8   5 2227.79 1351.23   1
  -5   2 -14 -590.91 945.880   1
  -5  -2 -14 -313.07 831.460   1
  -5  -2 -14 1868.22 1305.46   1
  -5   2 -14 2626.34 1242.31   1
   5   2  14 -1008.1 944.060   1
  -2   0 -16 11316.1 2819.48   1
  -2   0 -16 8061.36 2330.78   1
  -8   7  -6 -1964.3 1001.62   1
  12  -7  -1 2851.62 1089.65   1
 -12   7   1 -204.35 1431.28   1
  12   7  -1 1430.53 1554.12   1
  17  -2  -1 -3640.5 1170.04   1
  17   2  -1 -232.16 646.150   1
  17  -2  -1 1363.91 674.790   1
  17   2  -1 -1123.5 1310.55   1
 -17   2   1 3594.08 1588.89   1
   4  -8 -10 -1016.6 703.200   1
  -4   8  10 -675.07 1020.02   1
  15   0 -15 1703.38 1072.65   1
  15   0 -15 1871.14 978.580   1
  15   0 -15 -1270.3 1146.26   1
   6   9   0 2016.48 2087.12   1
  -6   9   0 13.4000 994.590   1
 -10   8   2 336.220 394.160   1
   8   0 -18 13170.5 3393.94   1
   8   0 -18 10009.4 2529.03   1
  -9   2 -11 3697.18 1685.93   1
   9  -2  11 1073.76 662.250   1
  -9   2 -11 152.660 1846.50   1
  -9  -2 -11 3823.75 2565.67   1
   9   2  11 1140.53 697.130   1
  12   0 -17 617.830 706.970   1
  12   0 -17 1226.95 918.100   1
   3  -8 -10 1635.76 931.840   1
   3  -8 -10 376.750 661.510   1
  -3   8  10 -531.26 1013.59   1
  15   4 -12 -265.80 1055.26   1
  15  -4 -12 1118.21 986.500   1
 -15   4  12 574.050 724.870   1
   9  -6   7 -236.66 472.270   1
  -9   6  -7 944.510 1354.72   1
   9   6   7 -340.26 814.700   1
  -9  -6  -7 270.790 781.810   1
  18   1  -4 361.970 1588.04   1
  18  -1  -4 2244.95 934.570   1
  18  -1  -4 -25.040 1635.08   1
  18   1  -4 -377.45 651.730   1
 -18   1   4 -554.49 1761.92   1
   4  -3 -17 1228.43 919.930   1
   4  -3 -17 3531.97 1491.01   1
   4   3 -17 2445.92 1169.57   1
   0   3 -16 1767.87 1043.41   1
   0   3  16 4284.22 1622.61   1
   0  -3 -16 -165.49 1329.57   1
   0  -3 -16 5913.53 1578.00   1
  -6  -7  -8 1664.22 830.090   1
  -6   7  -8 1231.86 1275.47   1
   6   7   8 3170.68 1977.56   1
  -1   5 -14 -652.67 1599.22   1
  -1  -5 -14 2722.98 1066.94   1
   1   5  14 3260.68 1269.54   1
  -1  -5 -14 2113.16 1174.06   1
   1   5  14 2250.49 2056.50   1
 -10   6  13 2018.62 1558.87   1
  10   6 -13 5664.56 1977.83   1
  10  -6 -13 506.820 936.680   1
 -16   3  12 13985.7 3694.44   1
  16   3 -12 9974.24 2896.59   1
  16  -3 -12 10187.7 2549.48   1
  16  -3 -12 3235.00 1390.99   1
   5   9   2 4168.08 1984.03   1
  -4   0 -15 -1576.9 820.990   1
  -4   0 -15 3854.51 2584.28   1
  -9   5  15 230.080 943.520   1
   9  -5 -15 1665.58 1177.61   1
   9  -5 -15 586.120 787.790   1
   7  -6 -14 2047.24 1215.29   1
   7  -6 -14 1434.90 718.710   1
  -7   6  14 511.950 939.740   1
   5   0 -18 3734.79 2927.17   1
   5   0 -18 3263.36 1319.28   1
  -3  -4 -14 798.480 909.270   1
   3   4  14 4864.69 1542.18   1
   3   4  14 4905.56 2168.14   1
  -3   4 -14 2851.43 1318.86   1
  -3  -4 -14 1803.09 1046.72   1
  18  -1  -9 11293.1 3189.02   1
 -18   1   9 7114.46 2089.76   1
  18  -1  -9 11808.2 2857.08   1
  18   1  -9 7290.95 1841.40   1
 -18  -1   9 8873.07 2607.43   1
  18   1  -9 7984.26 2265.67   1
   2   5 -15 5449.60 2292.68   1
   2  -5 -15 1573.84 860.910   1
   2  -5 -15 -229.29 695.650   1
  -2   5  15 -296.77 1345.38   1
  16  -4 -10 3576.50 1729.70   1
  16   4 -10 3148.57 1564.51   1
 -16   4  10 6009.55 1672.67   1
  13   2 -16 6910.06 2112.61   1
  13   2 -16 3531.13 1710.96   1
  13  -2 -16 3601.89 1451.14   1
  13  -2 -16 2416.85 1072.29   1
   0   9   6 -1875.4 1175.27   1
   2   9   5 4262.59 1928.71   1
  -2   9  -5 481.400 757.340   1
  -7  -6  -9 1266.10 850.240   1
   7   6   9 1113.04 732.830   1
  -7   6  -9 5023.21 1721.58   1
 -13   3  -6 587.550 1243.66   1
 -13   3  -6 -416.53 2009.21   1
  13  -3   6 -89.730 729.440   1
  13  -3   6 -588.99 737.900   1
  13   3   6 -371.86 552.370   1
  -1   8  -9 -54.520 1117.42   1
   1   8   9 234.790 1282.97   1
  -1  -8  -9 381.640 480.310   1
  -5   8  10 4882.32 1476.73   1
   5  -8 -10 2228.64 1187.78   1
   7   1 -18 474.050 705.340   1
   7  -1 -18 274.800 664.940   1
   7   1 -18 2995.03 1354.85   1
   7  -1 -18 1670.55 1601.45   1
   6   1 -18 3029.09 2099.35   1
   6  -1 -18 6951.02 2185.48   1
   6   1 -18 2045.13 1259.77   1
   6  -1 -18 1941.55 1289.31   1
  17  -1   0 2349.40 857.120   1
  17   1   0 885.790 620.590   1
  17  -1   0 2276.42 1435.06   1
  17   1   0 712.640 1416.05   1
  -3   6  14 1296.03 1205.48   1
   3   6 -14 3491.88 1822.24   1
   3  -6 -14 -508.12 979.340   1
   3  -6 -14 349.410 351.660   1
 -12   5  -5 366.520 1014.37   1
  12   5   5 -640.27 1003.83   1
  12  -5   5 -86.100 595.620   1
 -12   5  -5 2241.37 966.920   1
  -7  -1 -13 2440.54 965.140   1
  -7   1 -13 3834.97 2592.81   1
  -7  -1 -13 1416.03 1371.26   1
   7  -1  13 7832.16 2046.74   1
   7   1  13 1178.55 1171.22   1
  -7   1 -13 6052.69 2132.77   1
  16   0 -14 -114.40 951.020   1
  16   0 -14 3690.22 1706.66   1
  16   0 -14 6515.59 2155.58   1
  14  -6  -8 2203.56 1019.81   1
 -14   6   8 1556.30 875.950   1
  14   6  -8 743.670 1464.24   1
  11   2 -17 6011.37 1875.67   1
  11  -2 -17 596.880 728.830   1
  11  -2 -17 -940.80 896.650   1
 -14   6   2 3235.70 1448.44   1
  14  -6  -2 963.750 908.770   1
  14   6  -2 1307.96 1592.53   1
 -13   6  -1 3196.22 1890.51   1
  13  -6   1 4510.85 1101.44   1
  13   6   1 5943.71 2108.97   1
 -13   4  -5 -518.69 992.910   1
 -13   4  -5 2429.73 1425.37   1
  13   4   5 2754.06 1236.42   1
  13  -4   5 1703.68 863.280   1
  12  -4 -15 3481.45 1491.73   1
  12   4 -15 1055.59 916.500   1
 -12   4  15 4615.84 1626.73   1
  12  -4 -15 679.040 1004.99   1
 -12   6  -3 -110.40 1202.06   1
 -12   6  -3 911.380 865.240   1
  12  -6   3 -545.93 583.440   1
  12   6   3 -329.62 1095.87   1
 -12  -2  -8 9577.92 2804.15   1
 -12   2  -8 1398.85 1445.40   1
  12  -2   8 6847.78 1858.23   1
  12  -2   8 5374.93 1450.88   1
  12   2   8 4837.50 1364.55   1
   2  -8 -10 2756.75 1302.75   1
  -2   8  10 7743.62 2092.44   1
   2  -8 -10 12875.0 2997.44   1
 -12   7   8 -298.29 897.280   1
  12  -7  -8 551.350 440.510   1
  12   7  -8 -1674.0 1180.38   1
  -1  -4 -15 1455.11 1061.77   1
  -1   4 -15 6146.67 2145.71   1
   1   4  15 -2507.8 1584.35   1
  -1  -4 -15 328.900 799.280   1
   9  -3 -17 6027.90 1670.60   1
   9   3 -17 5851.14 2296.51   1
   9  -3 -17 7442.38 1989.97   1
  -2  -1 -16 2559.83 1186.73   1
  -2   1 -16 490.250 723.330   1
  -2  -1 -16 1921.94 1101.33   1
  -2   1 -16 3270.20 1292.77   1
   2   4 -16 -4681.2 1712.29   1
  -2   4  16 -2185.1 1440.74   1
   2  -4 -16 564.090 852.560   1
   2  -4 -16 -997.34 789.030   1
  -3   8  -8 962.840 1299.73   1
   3   8   8 4630.95 2456.89   1
  15  -1 -15 -2948.8 1034.77   1
  15  -1 -15 1301.46 1018.81   1
  15   1 -15 2284.60 1268.21   1
  15   1 -15 6071.90 1864.41   1
  15  -1 -15 2506.45 1437.91   1
 -15   5   1 1118.25 1595.58   1
  15  -5  -1 2806.19 1106.12   1
  15   5  -1 7672.93 2318.86   1
  18   0  -3 2617.49 1024.79   1
  18   0  -3 590.400 508.770   1
   8  -1 -18 5767.75 1715.23   1
   8   1 -18 9034.32 2973.63   1
   8   1 -18 7060.92 2378.54   1
   8  -1 -18 6434.52 1959.32   1
  12   1 -17 3757.26 2543.28   1
  12   1 -17 350.330 832.600   1
  12  -1 -17 29.4200 970.430   1
  12  -1 -17 1638.06 1269.48   1
   9   7   5 1617.58 960.220   1
  -9   7  -5 2464.53 1237.94   1
  12  -3 -16 16961.5 4064.03   1
  12  -3 -16 10584.5 3564.92   1
 -12   3  16 8909.78 2326.42   1
   1   7 -12 443.780 1690.66   1
  -1   7  12 1802.43 1542.29   1
   1  -7 -12 2223.46 952.620   1
   1  -7 -12 586.310 549.100   1
 -10   8   6 3556.86 1318.36   1
  10  -8  -6 5765.27 1331.84   1
  14   0 -16 424.380 809.680   1
  14   0 -16 4367.57 1534.55   1
  14   0 -16 3445.49 2024.38   1
  -6   9   5 -380.08 1111.46   1
  -4  -1 -15 2751.27 1189.83   1
  -4   1 -15 3393.29 1327.64   1
  -4  -1 -15 4165.94 1348.13   1
  -4   1 -15 7402.41 1990.95   1
 -10  -6  -6 1693.15 1247.04   1
  10   6   6 -329.38 853.990   1
 -10   6  -6 -886.69 1176.08   1
  10  -6   6 481.680 345.800   1
  18  -2  -6 780.030 1458.13   1
 -18   2   6 -1080.1 1041.45   1
  18   2  -6 -1387.0 1762.01   1
  18  -2  -6 1255.53 701.640   1
  18   2  -6 -207.17 604.770   1
   9   0 -18 2938.37 1534.82   1
   9   0 -18 984.970 793.010   1
  18   2  -7 4082.24 2100.58   1
  18   2  -7 2304.43 821.300   1
  18  -2  -7 5100.51 1435.23   1
 -18   2   7 2611.37 1634.04   1
  18  -2  -7 4981.98 1506.48   1
  -5   9   6 2374.30 1565.17   1
   5   1 -18 4890.37 2216.80   1
   5  -1 -18 5452.53 1618.28   1
   5  -1 -18 3058.43 1223.43   1
   5   1 -18 3292.14 1149.95   1
  18   0 -10 911.100 1426.36   1
  18   0 -10 1302.25 993.430   1
 -18   0  10 1684.12 1126.11   1
 -10   8   1 -239.21 968.080   1
  14   0   6 5299.92 1382.96   1
  14   0   6 3093.67 1167.18   1
   9  -8  -8 3303.58 1432.87   1
  -9   8   8 1132.22 1113.56   1
  -8   2 -12 2177.46 1078.25   1
  -8  -2 -12 -1435.1 1141.80   1
   8   2  12 2829.41 1072.47   1
   8  -2  12 -225.41 1110.69   1
  -8   2 -12 666.150 1132.14   1
  -8  -2 -12 -1153.9 1017.36   1
 -17   3  10 2841.70 1566.55   1
 -17  -3  10 -1952.2 1021.09   1
  17  -3 -10 2335.32 1039.74   1
  17   3 -10 1738.85 1601.77   1
  17  -3 -10 -90.570 791.550   1
  -6   3 -13 -711.96 816.920   1
   6  -3  13 1508.58 868.210   1
  -6   3 -13 -5101.2 1756.77   1
  -6  -3 -13 1983.16 734.980   1
   6   3  13 -1577.8 1159.42   1
  -6  -3 -13 2092.98 846.490   1
   8  -7 -12 -1168.2 807.450   1
  -8   7  12 4989.80 1741.44   1
  -5   7  -9 -23.150 1318.87   1
   5   7   9 -1352.4 1949.37   1
  -5  -7  -9 31.4600 467.510   1
   8  -8  -9 2461.39 1037.91   1
  -8   8   9 -978.29 817.670   1
 -11   7  -2 1452.77 873.370   1
  11  -7   2 486.450 374.750   1
  11   7   2 2529.66 1567.69   1
 -10   4  16 -2341.9 877.680   1
  10  -4 -16 1159.97 969.750   1
  10  -4 -16 -598.09 1057.06   1
  -5   5 -12 -6030.2 1577.21   1
  -5  -5 -12 -123.56 608.290   1
   5   5  12 3386.17 1556.23   1
   4   0 -18 8272.02 2259.29   1
   4   0 -18 8406.85 2086.83   1
  -6   8  10 11825.8 2563.21   1
   6  -8 -10 12560.8 2154.51   1
 -16   1  14 9426.78 1876.21   1
  16  -1 -14 5256.58 1549.86   1
  16   1 -14 9299.17 1873.11   1
  16   1 -14 8010.73 2140.12   1
  16  -1 -14 5257.77 1423.36   1
 -16   4   1 5645.20 1526.88   1
  16   4  -1 3040.03 1719.24   1
  16  -4  -1 4949.21 990.770   1
  16   4  -1 1356.35 815.300   1
  15  -3   3 3049.41 1035.65   1
  15   3   3 1256.10 726.290   1
  15   3   3 709.850 822.750   1
  15  -3   3 -36.330 794.470   1
 -15   3  -3 3959.16 1473.18   1
 -15   3  -3 4388.33 2312.54   1
   6   6  10 1900.10 1323.23   1
  -6  -6 -10 302.240 679.860   1
  -6   6 -10 769.280 1241.11   1
   6   6  10 -1487.4 1526.43   1
   8  -6 -14 1482.29 1144.96   1
   8  -6 -14 1358.90 1140.32   1
  -8   6  14 3444.28 1538.03   1
  15  -5 -10 1769.72 1442.10   1
 -15   5  10 308.760 610.720   1
  15   5 -10 1335.18 1480.47   1
   6   9   1 4247.74 2166.71   1
  18  -2  -5 -455.41 1402.13   1
 -18   2   5 3207.59 1556.83   1
  18   2  -5 1845.79 1012.13   1
  18   2  -5 3756.45 2079.53   1
  18  -2  -5 5296.70 1093.65   1
   3   3 -17 -3816.0 1504.74   1
   3  -3 -17 639.230 1472.05   1
   3  -3 -17 3895.84 1617.24   1
  -3   6 -12 5148.92 1808.67   1
   3   6  12 11532.5 2271.24   1
   3   6  12 11371.7 2520.17   1
  -3  -6 -12 10138.1 2281.64   1
  16  -2   2 205.650 330.320   1
  16   2   2 -822.85 897.910   1
  16   2   2 759.280 1261.03   1
 -16   2  -2 -1545.0 1934.26   1
  16  -2   2 769.760 1054.95   1
  -5  -4 -13 4070.13 1602.42   1
   5   4  13 5040.74 1304.37   1
  -5  -4 -13 633.490 732.340   1
  -5   4 -13 4312.15 1908.39   1
 -18   2   8 6815.60 1998.13   1
 -18  -2   8 7951.87 1648.62   1
  18  -2  -8 3810.90 1828.96   1
  18   2  -8 9082.03 2575.94   1
  18  -2  -8 13306.2 3039.33   1
  18   2  -8 8743.97 2313.98   1
   0   0 -17 -576.30 665.470   1
   0   0 -17 -4273.1 1351.24   1
  17   3  -2 6550.05 1371.51   1
 -17   3   2 5470.29 1180.05   1
  17  -3  -2 13816.7 2586.81   1
  17  -3  -2 9014.16 1765.89   1
  17   3  -2 7255.60 1967.13   1
 -11   7  10 3231.86 1530.11   1
  11  -7 -10 1683.17 1269.11   1
  11   7 -10 177.850 1142.03   1
  13   5 -13 -266.76 1345.95   1
  13  -5 -13 -1942.1 830.650   1
 -13   5  13 1083.31 987.240   1
  18   1  -3 6275.79 1300.13   1
 -18   1   3 6460.16 1740.08   1
  18  -1  -3 5002.39 1030.04   1
  18   1  -3 2638.79 1176.51   1
  18  -1  -3 8224.43 1862.84   1
   1   9   6 11184.2 2594.09   1
  -1   6 -13 9776.01 2490.58   1
  -1  -6 -13 2387.14 983.140   1
   1   6  13 4148.04 2057.76   1
  -1  -6 -13 61.4000 385.800   1
  14   1 -16 1027.76 761.030   1
  14  -1 -16 4038.74 2017.91   1
  14   1 -16 1963.04 1193.38   1
  14   1 -16 3125.75 1659.87   1
  14  -1 -16 2666.64 1572.45   1
  16   3   1 1765.71 1040.71   1
  16  -3   1 1664.40 975.540   1
  16   3   1 894.200 1372.24   1
  16  -3   1 -1988.4 951.510   1
 -16   3  -1 2967.02 1373.29   1
 -10   7  11 3383.32 1813.84   1
  10  -7 -11 704.380 687.570   1
  10   7 -11 -2303.4 1111.42   1
  -7   9   3 2222.52 1371.36   1
   1   8 -10 436.750 1173.90   1
   1  -8 -10 1175.13 915.660   1
  -1   8  10 344.800 1352.13   1
  -7   9   2 1663.97 1661.82   1
   9  -1 -18 1162.37 1133.42   1
   9   1 -18 916.670 846.290   1
   9  -1 -18 -686.32 1219.87   1
   9   1 -18 440.470 1455.46   1
  18  -1 -10 988.240 602.010   1
 -18   1  10 -897.30 1034.59   1
 -18  -1  10 2060.90 1350.52   1
  18  -1 -10 2041.07 1375.21   1
  18   1 -10 1682.12 1518.41   1
  18   1 -10 -114.87 534.560   1
   1  -2 -17 1010.44 687.250   1
   1   2 -17 1767.14 1078.34   1
   1  -2 -17 1910.83 1384.50   1
   1   2 -17 -299.60 1462.36   1
   2   6 -14 6172.93 1927.12   1
   2  -6 -14 4277.18 1718.99   1
   2  -6 -14 7433.27 1464.94   1
  -2   6  14 5581.32 2018.56   1
  14  -1   6 3384.00 1380.95   1
  14   1   6 3127.03 1334.30   1
 -14   1  -6 1390.37 1019.56   1
  14   1   6 3124.36 1373.95   1
  14  -1   6 1183.52 1194.17   1
 -12   7   0 4316.10 1756.54   1
  12  -7   0 1876.25 1059.83   1
  12   7   0 273.870 1233.60   1
  15  -2   4 3375.65 1444.93   1
 -15   2  -4 -72.740 839.630   1
  15  -2   4 368.890 939.950   1
  15   2   4 2202.27 1168.89   1
  15   2   4 -410.19 866.950   1
  -2   7 -11 1856.67 1796.18   1
  -2  -7 -11 1907.30 1209.42   1
   2   7  11 3936.50 2704.15   1
  -3   9   7 4955.77 1217.60   1
  -2   9   7 12502.3 2628.30   1
   4  -1 -18 2552.92 1202.99   1
   4   1 -18 3316.03 1487.34   1
   4  -1 -18 2769.99 1188.34   1
   4   1 -18 1554.90 995.400   1
   4   9   4 6309.37 2183.97   1
  14  -5 -12 -1072.9 892.090   1
  14   5 -12 466.270 1361.14   1
 -14   5  12 1697.81 1317.49   1
  13  -2   7 -3112.7 1090.21   1
 -13   2  -7 -3126.2 1083.23   1
  13   2   7 -239.48 1467.69   1
  13  -2   7 1048.18 575.750   1
  -6   0 -14 1178.96 1109.65   1
   6   0  14 807.420 646.640   1
  -6   0 -14 2180.95 1088.47   1
  12  -6 -12 5247.85 1415.64   1
 -12   6  12 -220.27 978.240   1
  12   6 -12 874.760 1213.84   1
 -10   5  15 2942.64 1499.20   1
  10  -5 -15 3158.56 1387.02   1
  10  -5 -15 6390.96 1732.49   1
  -7   9   4 1199.54 1192.93   1
  14   5   2 -941.69 1305.30   1
 -14   5  -2 2445.26 1034.18   1
  14  -5   2 4256.60 1359.86   1
   1   5 -15 2178.89 1325.36   1
   1  -5 -15 3446.45 1340.42   1
  -1   5  15 701.640 1578.66   1
   1  -5 -15 1348.86 1011.53   1
  -7   9   1 4048.86 1645.71   1
   7   9  -1 -1459.3 1270.23   1
  17   2 -12 2946.07 2084.35   1
  17  -2 -12 -415.67 743.060   1
 -17   2  12 3914.13 1748.61   1
  17  -2 -12 2043.39 1290.33   1
 -10   4  -9 4465.00 1436.61   1
  10   4   9 6150.17 1382.56   1
  10  -4   9 3654.31 1464.34   1
 -10  -4  -9 6132.95 1558.98   1
  10  -4   9 4469.39 918.450   1
   0  -1 -17 -2715.4 1254.36   1
   0   1 -17 1161.06 1396.11   1
   0  -1 -17 128.370 732.710   1
   0   1 -17 -277.11 692.450   1
 -14   6   9 7749.40 1924.91   1
  14  -6  -9 5819.21 1236.14   1
  14   6  -9 3349.57 1673.11   1
   5   9   3 -1767.5 1733.55   1
  10  -3 -17 5321.97 1385.58   1
  10  -3 -17 1547.16 1205.92   1
  10   3 -17 4879.68 1791.33   1
 -10   7  -4 1715.78 1600.57   1
  10   7   4 20.6900 1057.99   1
 -10   8   7 1770.29 1233.53   1
  10  -8  -7 89.7600 156.170   1
 -14   6   1 5357.65 1490.59   1
  14  -6  -1 6341.73 1406.35   1
  14   6  -1 4599.32 1537.10   1
 -17   0  13 -515.96 885.930   1
  17   0 -13 518.270 484.070   1
  17   0 -13 386.130 1080.30   1
  15  -3 -14 19123.9 3272.85   1
 -15   3  14 15609.4 3735.66   1
  15  -3 -14 20284.9 3320.33   1
  15   3 -14 19190.0 3712.27   1
  10   0 -18 22266.2 3925.59   1
  10   0 -18 9232.48 1690.70   1
  -9   4 -10 1166.40 1627.93   1
  -9  -4 -10 -936.19 776.770   1
   9   4  10 -136.82 1313.21   1
   9  -4  10 2100.16 860.720   1
   9  -4  10 2668.16 989.330   1
 -12   5  14 12622.2 2475.31   1
  12  -5 -14 11713.5 2427.69   1
  12   5 -14 7804.96 2009.14   1
  -3   9  -5 1418.37 1025.79   1
   3   9   5 4864.13 2635.58   1
  -4   9   7 2744.31 1336.44   1
  18  -2  -4 2131.71 829.680   1
  18   2  -4 2658.99 1783.60   1
  18  -2  -4 3229.28 1658.97   1
  18   2  -4 -208.12 584.200   1
 -18   2   4 154.890 1301.57   1
  11  -6   5 -1203.3 474.060   1
 -11   6  -5 -3344.2 1095.03   1
 -11  -6  -5 306.100 807.670   1
  11   6   5 843.300 714.990   1
  -6   8  -6 3273.37 1439.43   1
   6   8   6 -4561.4 1849.89   1
  -1   9   7 847.740 1176.52   1
  16   0   3 265.020 466.320   1
  16   0   3 1216.35 1368.21   1
  18  -2  -9 -1576.7 1235.55   1
  18   2  -9 2572.30 1695.24   1
  18  -2  -9 2647.48 1216.10   1
  18   2  -9 1488.90 1027.02   1
 -18  -2   9 2760.74 1254.31   1
 -18   2   9 2835.96 1166.71   1
 -14   3  15 1334.19 937.060   1
  14  -3 -15 -930.92 1034.21   1
  14   3 -15 4214.89 1784.05   1
  14  -3 -15 2152.49 1050.75   1
  13  -7  -5 3101.40 1152.15   1
 -13   7   5 4286.19 1715.63   1
  13   7  -5 616.580 1369.96   1
  -6   9   6 3167.09 1487.90   1
 -16   5   6 -622.41 1189.85   1
  16  -5  -6 -346.63 646.470   1
  16   5  -6 2961.45 1813.92   1
  16   4 -11 8225.14 1749.00   1
 -16   4  11 2444.78 1096.79   1
  16  -4 -11 4458.91 1203.16   1
 -10   8   0 -604.46 1222.72   1
 -13   6  11 5250.89 1313.27   1
  13  -6 -11 6321.49 1378.50   1
  13   6 -11 3197.65 1589.20   1
 -13   7   4 1911.11 1870.59   1
  13  -7  -4 977.770 818.040   1
  13   7  -4 1343.11 1707.96   1
  -3   3 -15 7650.31 2426.69   1
  -3  -3 -15 2306.32 1189.99   1
  -3  -3 -15 3034.45 1484.35   1
   3   3  15 1294.08 1199.16   1
  -3   3 -15 258.850 811.520   1
  -7   8  10 3318.95 1739.97   1
   7  -8 -10 2258.41 1304.98   1
 -17   4   6 6450.47 1892.80   1
  17  -4  -6 5120.05 1242.57   1
  17   4  -6 3498.21 1901.57   1
   7  -2 -18 16126.4 2816.18   1
   7   2 -18 11636.2 2786.49   1
   7  -2 -18 9429.01 2299.33   1
  -2   8  -9 -718.27 1032.53   1
   2   8   9 1767.90 1906.74   1
  -7   8  -5 -1589.9 1073.98   1
   7   8   5 -3016.6 1564.90   1
 -16   5   5 2015.49 1110.61   1
  16  -5  -5 1446.13 858.850   1
  16   5  -5 1892.39 1839.02   1
 -14   3  -5 -206.73 1288.15   1
 -14   3  -5 1615.72 1236.14   1
  14   3   5 4386.04 1670.94   1
  14  -3   5 3852.71 1381.93   1
  14  -3   5 4441.86 944.560   1
  14   3   5 3162.23 1381.39   1
  15   4   2 -812.63 625.360   1
 -15   4  -2 1226.59 1261.78   1
  15   4   2 2175.84 1384.82   1
  15  -4   2 3295.52 1138.04   1
   6   2 -18 2257.06 1444.27   1
   6  -2 -18 5289.91 1127.96   1
   6  -2 -18 2101.54 987.640   1
   0   7 -12 3811.51 1942.34   1
   0   7  12 3942.54 1856.69   1
   0  -7 -12 1971.86 673.140   1
 -12   7   9 1197.65 1234.32   1
  12  -7  -9 -1878.3 736.560   1
  12   7  -9 2219.87 1182.81   1
   3   0 -18 11391.0 2390.86   1
   3   0 -18 12698.8 4280.07   1
 -11   4  -8 1929.38 1541.23   1
  11  -4   8 -560.41 600.660   1
 -11  -4  -8 1400.62 1151.85   1
  11  -4   8 4603.37 1041.70   1
  11   4   8 2426.58 1268.58   1
  17  -2   0 5261.53 1191.34   1
  17   2   0 6030.03 1593.01   1
  17  -2   0 3527.50 1539.25   1
 -17   2   0 9549.47 2458.29   1
  17   2   0 6743.96 1413.98   1
  18   0  -2 7052.43 1462.09   1
  18   0  -2 5860.20 1645.14   1
  -7  -2 -13 1563.08 1285.34   1
  -7   2 -13 1159.41 1143.75   1
   7  -2  13 4446.72 1181.80   1
   7   2  13 1606.00 1117.88   1
  -7  -2 -13 -2174.9 1066.60   1
  -7   2 -13 5165.57 1193.54   1
   4   7  10 7933.77 2736.71   1
  -4   7 -10 1152.64 1585.64   1
  -4  -7 -10 1150.41 861.500   1
  -6  -1 -14 1410.22 1120.37   1
   6   1  14 793.870 885.890   1
  -6   1 -14 1809.63 1584.19   1
  -6  -1 -14 -1597.1 1350.07   1
  -6   1 -14 672.650 1102.32   1
   6  -1  14 1218.06 768.130   1
   5   8   7 2451.85 2492.55   1
  -5   8  -7 238.350 1094.91   1
  -1   4  16 580.170 1499.66   1
   1   4 -16 915.940 763.920   1
   1  -4 -16 2143.01 954.250   1
 -17   4   7 14235.0 3252.21   1
  17  -4  -7 20711.2 3380.95   1
  17   4  -7 14700.8 2673.16   1
   9  -5   9 936.680 659.220   1
   9   5   9 -1174.9 1137.64   1
  -9  -5  -9 998.510 1147.54   1
  -9   5  -9 6177.59 1688.89   1
 -13   5  -4 7659.14 1911.01   1
  13  -5   4 5496.41 1154.33   1
 -13   5  -4 3309.13 1357.25   1
  13   5   4 2951.96 1529.07   1
  11  -6 -13 -506.11 882.630   1
 -11   6  13 843.340 976.880   1
  11   6 -13 -2907.5 1077.96   1
 -17   4   5 6948.10 1838.82   1
  17  -4  -5 3721.51 1325.89   1
  17   4  -5 906.910 1709.46   1
  -9   6  14 1280.77 1113.56   1
   9  -6 -14 153.080 882.580   1
  16  -5  -7 2290.81 982.130   1
 -16   5   7 32.2900 1513.08   1
  16   5  -7 4720.72 2203.13   1
  13  -7  -6 192.160 628.100   1
 -13   7   6 3437.67 1341.62   1
  13   7  -6 442.210 1339.73   1
  17   0   1 841.260 1378.33   1
  17   0   1 -110.28 709.890   1
 -18   0  11 1628.26 1043.60   1
  18   0 -11 2349.65 1000.07   1
  18   0 -11 923.870 1298.70   1
  -5   6 -11 12185.8 2504.96   1
  -5  -6 -11 13065.7 2204.85   1
   5   6  11 13884.9 2637.41   1
   5   6  11 12773.1 3213.94   1
  -2  -2 -16 11761.5 2696.53   1
  -2   2 -16 13407.0 3016.40   1
  -2  -2 -16 10249.5 2213.33   1
  -2   2 -16 5378.70 1136.36   1
 -15   2  15 8889.22 1950.05   1
  15  -2 -15 9684.11 1981.50   1
  15   2 -15 4956.68 1243.91   1
  15  -2 -15 10890.5 2061.16   1
  13   0 -17 1010.24 628.780   1
 -10   5  -8 -109.33 1329.08   1
  10   5   8 3552.52 1258.07   1
 -10  -5  -8 -709.47 799.990   1
  10  -5   8 -20.110 656.130   1
   8   2 -18 -3427.4 1871.87   1
   8  -2 -18 3261.00 1363.27   1
  12  -2 -17 24996.2 4136.00   1
 -17   1  13 21882.0 4432.91   1
  17   1 -13 15830.4 2952.52   1
  17  -1 -13 21006.0 4864.93   1
  17  -1 -13 26043.2 4419.96   1
  17   1 -13 23236.5 3943.96   1
   8  -4  11 -1513.0 883.260   1
  -8  -4 -11 -980.49 801.570   1
  -8   4 -11 358.040 1647.65   1
   8   4  11 1393.02 818.370   1
  10   1 -18 10519.6 2018.16   1
  10  -1 -18 5881.72 1623.11   1
   9  -7 -12 92.4800 488.830   1
  -9   7  12 -1301.7 875.670   1
 -14   4  14 500.910 725.830   1
  14  -4 -14 2480.04 1236.48   1
  14   4 -14 2928.72 1484.18   1
  -7   9   5 2423.67 1269.68   1
   6   9   2 10860.7 2874.53   1
  -7   9   0 4556.75 1635.93   1
   7   9   0 410.690 1207.34   1
  -4  -2 -15 3149.67 1503.95   1
  -4  -2 -15 1049.37 1024.72   1
   4   2  15 3830.68 1299.19   1
  -4   2 -15 3621.71 1542.24   1
  -4   2 -15 3574.94 1716.09   1
  13  -7  -3 537.240 492.510   1
 -13   7   3 -2215.1 1246.62   1
  13   7  -3 -1935.5 1408.20   1
 -15   5   0 20854.5 4684.29   1
  15   5   0 15807.8 3507.46   1
  15  -5   0 16710.2 3086.43   1
   0   8 -10 2810.66 1374.21   1
   0  -8 -10 1462.82 931.020   1
   0   8  10 -1312.4 1497.74   1
  -1  -3 -16 13596.0 2686.52   1
   1   3  16 11869.5 2671.67   1
  -1   3 -16 11133.3 2623.61   1
   2   3 -17 -1048.0 1577.44   1
   2  -3 -17 -641.29 780.580   1
  16   1   3 9213.54 1828.13   1
  16  -1   3 2107.47 1037.52   1
  16  -1   3 7724.32 1618.89   1
  16   1   3 6673.76 1294.26   1
   5   2 -18 1161.19 828.420   1
   5  -2 -18 3948.53 1594.26   1
   5   2 -18 5397.42 1343.33   1
 -14   4  -4 6576.61 2065.47   1
 -14   4  -4 2177.28 1506.79   1
  14   4   4 2112.14 1016.40   1
  14  -4   4 2413.48 874.640   1
  14   4   4 2380.01 843.370   1
  -8   5 -10 1861.25 1735.56   1
   8   5  10 1328.04 974.270   1
  -8  -5 -10 2941.99 1122.48   1
   8  -5  10 965.350 602.160   1
 -16   5   4 1897.47 1221.88   1
  16  -5  -4 3394.84 1199.34   1
  16   5  -4 2709.45 1794.69   1
  -5   9   7 12821.7 2385.06   1
  17  -3 -11 1080.22 992.170   1
 -17   3  11 2753.29 1150.36   1
  17  -3 -11 25.5600 840.250   1
  17   3 -11 3534.47 1774.70   1
  -2   5 -14 11393.6 2546.67   1
  -2  -5 -14 2833.56 1034.83   1
   2   5  14 8864.27 2009.99   1
   2   5  14 4274.48 2057.77   1
  -2   9  -6 1990.64 1159.96   1
   2   9   6 -4017.6 1791.82   1
 -10  -3 -10 6392.20 1541.72   1
 -10   3 -10 1321.25 1545.47   1
  10   3  10 9454.24 2033.05   1
  10  -3  10 6666.13 1325.37   1
 -11   4  16 2420.86 1354.66   1
  11  -4 -16 3581.41 1891.67   1
  -5   7  13 6751.87 1550.25   1
   5  -7 -13 2736.88 1300.32   1
 -11   0 -10 18382.3 3261.72   1
 -11   0 -10 30395.0 5165.05   1
  11   0  10 21580.5 4693.85   1
   0   9   7 4671.23 1570.63   1
 -16   3  13 6289.88 1281.96   1
  16  -3 -13 1387.06 1157.52   1
  16   3 -13 2561.30 1537.56   1
  16  -3 -13 4156.95 1622.12   1
   3  -1 -18 2166.85 1024.06   1
   3   1 -18 1832.87 1503.48   1
   3   1 -18 -93.440 633.580   1
   1   6 -14 1221.06 1030.59   1
   1  -6 -14 -625.14 628.970   1
  -1   6  14 2104.65 2235.22   1
 -18   1   2 7032.27 2198.55   1
  18   1  -2 1302.99 755.780   1
  18  -1  -2 2730.42 1492.64   1
  18   1  -2 2545.12 1220.72   1
  18  -1  -2 1594.73 894.110   1
 -16   2  14 542.270 638.210   1
  16  -2 -14 -311.91 1089.52   1
  16   2 -14 2246.35 1460.29   1
  16  -2 -14 310.940 409.780   1
  -8   8  -4 -46.580 969.010   1
  17  -4  -8 5644.55 1354.93   1
 -17   4   8 6426.59 1723.26   1
  17   4  -8 7392.78 2052.99   1
 -10   0 -11 -341.82 1115.40   1
  10   0  11 145.420 633.260   1
 -10   0 -11 2847.47 1267.39   1
  -4   7  13 751.520 846.840   1
   4  -7 -13 -354.00 622.600   1
  11   3   9 536.380 816.560   1
  11  -3   9 1722.52 1033.63   1
 -11  -3  -9 920.890 1064.95   1
  11  -3   9 4424.20 1155.70   1
  15   4 -13 133.870 1209.55   1
  15  -4 -13 3748.59 1244.58   1
 -15   4  13 2163.77 927.280   1
  13  -6   2 2063.32 851.970   1
 -13   6  -2 2340.61 1118.34   1
  13   6   2 -2094.1 1213.70   1
  -9   8   9 1512.78 1246.83   1
   9  -8  -9 -687.09 695.890   1
  17   1   1 8121.05 1598.32   1
  17  -1   1 7170.62 1763.41   1
  17  -1   1 6158.67 1529.05   1
  17   1   1 3822.27 1682.76   1
  17   4  -4 1313.29 1650.09   1
 -17   4   4 140.980 871.240   1
  17  -4  -4 2997.47 1069.88   1
  18   1 -11 2231.05 1074.20   1
  18  -1 -11 -183.14 600.910   1
 -18   1  11 -104.12 1033.43   1
 -18  -1  11 -1672.7 842.200   1
  18  -1 -11 -1039.6 1246.91   1
  18   1 -11 3405.08 2014.25   1
  -5  -3 -14 4863.91 1283.29   1
  -5   3 -14 2406.63 1158.63   1
   5   3  14 1798.73 1158.18   1
  15   0   5 1217.72 709.660   1
  15   0   5 -1335.8 1120.33   1
  17  -3  -1 739.830 927.670   1
 -17   3   1 -2325.7 1557.37   1
  17  -3  -1 2590.60 975.480   1
  17   3  -1 495.820 520.610   1
  17   3  -1 4554.75 1302.86   1
  -6   7  13 -590.85 895.010   1
   6  -7 -13 1550.52 1301.64   1
   4   5  13 2548.08 1557.54   1
   4   5  13 1159.68 759.100   1
  -4  -5 -13 -124.60 614.530   1
  11  -8  -4 2763.49 979.260   1
 -11   8   4 2889.52 1127.44   1
 -16   5   8 2953.06 1356.06   1
  16  -5  -8 4076.77 1462.74   1
  13   1 -17 47.4800 843.150   1
  13  -1 -17 2914.84 1534.45   1
  18  -2  -3 -238.76 696.210   1
  18   2  -3 -415.65 600.200   1
 -18   2   3 1952.30 1504.49   1
  18  -2  -3 -1851.4 1429.65   1
  18   2  -3 2304.22 1241.32   1
   9   3  11 2347.48 1184.85   1
   9  -3  11 4198.52 1622.86   1
  -9  -3 -11 7417.57 1703.27   1
   4   8   8 497.320 1679.88   1
 -13   7   7 2637.36 1100.95   1
  13  -7  -7 606.280 747.090   1
  12   4   7 2805.22 1363.93   1
  12  -4   7 2219.28 1175.33   1
 -12  -4  -7 992.340 942.430   1
  12  -4   7 2385.92 888.780   1
  16   4   0 5029.38 1027.53   1
 -16   4   0 3749.64 2021.88   1
  16   4   0 8043.48 1850.52   1
  16  -4   0 3043.73 1049.94   1
 -15   5  11 2433.60 936.120   1
  15  -5 -11 9070.65 1777.61   1
  11   5   7 1263.66 809.060   1
 -11  -5  -7 -439.67 865.450   1
  11  -5   7 2237.52 826.480   1
  14  -2 -16 9603.62 2258.14   1
  12   0   9 7405.58 1804.48   1
   6  -5 -16 7307.25 1595.16   1
  -6   5  16 2743.27 1283.63   1
  13  -4 -15 1818.95 1131.07   1
 -13   4  15 1047.01 917.350   1
   9  -2 -18 5335.88 1711.13   1
  -3   0 -16 10570.1 2048.69   1
 -18   2  10 3377.01 1348.24   1
  18  -2 -10 2191.58 1030.86   1
  18   2 -10 1402.39 754.840   1
 -18  -2  10 2293.69 952.850   1
  13  -3 -16 3241.90 1320.53   1
 -13   3  16 884.770 930.480   1
 -11   8   3 1303.79 1002.65   1
  11  -8  -3 3308.81 1249.33   1
   2   4  15 487.820 1319.07   1
  -2  -4 -15 3030.08 1231.87   1
   2   4  15 2885.65 1325.23   1
 -11   8   5 2145.92 1286.56   1
  11  -8  -5 1171.50 698.360   1
  -5   5  16 213.400 1086.15   1
   5  -5 -16 190.800 583.120   1
  14   2   6 -2359.1 1222.41   1
  14  -2   6 2412.43 969.080   1
  14  -2   6 1797.09 1332.12   1
  14   2   6 2687.34 1226.77   1
  -3   7  13 2311.03 1477.11   1
   3  -7 -13 3222.76 1280.72   1
 -11  -1 -10 1955.26 1556.20   1
  11   1  10 5561.08 1844.33   1
  11  -1  10 3169.93 1573.03   1
  -6   4  17 17694.5 3088.31   1
   6  -4 -17 14103.4 2542.29   1
   7  -5 -16 10829.9 2014.12   1
  -7   5  16 9011.25 1877.28   1
  11   0 -18 55486.0 9001.96   1
 -12   7  -1 1951.83 1337.83   1
  12  -7   1 734.380 688.880   1
  12   7   1 1092.14 798.290   1
 -10   8   8 5188.91 1129.19   1
  10  -8  -8 3655.64 1278.26   1
 -13   7   2 -929.28 1082.12   1
  13  -7  -2 847.910 483.080   1
   4   2 -18 -1018.4 590.540   1
   4  -2 -18 2211.16 1035.24   1
  -9   0 -12 4472.83 1557.17   1
   9   0  12 2789.24 1185.66   1
 -10   1 -11 -723.83 1253.53   1
 -10  -1 -11 -1817.0 1178.31   1
  10  -1  11 -1231.8 1182.43   1
  10   1  11 -452.37 1638.84   1
  -7   4  17 6696.12 1790.21   1
   7  -4 -17 2689.80 1299.06   1
 -11   3  17 -364.28 866.370   1
  11  -3 -17 -1307.8 1013.48   1
   7  -5  11 10112.1 2350.17   1
  -7  -5 -11 12103.8 2202.59   1
   7   5  11 14922.4 3183.10   1
  11  -7   3 -1734.2 522.310   1
  -4  -4 -14 -233.72 650.640   1
   4   4  14 678.700 633.310   1
  12   3   8 10658.9 2302.27   1
  12  -3   8 7381.22 1591.84   1
  12  -3   8 9654.30 2572.11   1
 -12  -3  -8 8747.67 1888.00   1
  16  -5  -3 6131.14 1129.24   1
 -16   5   3 12850.9 2473.03   1
 -15   6   5 -496.42 1152.45   1
  15  -6  -5 3937.14 1326.92   1
  -7  -4 -12 -669.63 762.250   1
   7   4  12 3115.19 1103.36   1
   7  -4  12 1921.20 1256.41   1
  14  -6 -10 327.730 821.170   1
   4  -8 -11 4158.75 1576.56   1
   8  -8 -10 2896.91 1360.46   1
  12  -6   4 496.350 413.680   1
  15  -6  -6 3127.98 1246.64   1
 -15   6   6 3317.44 1752.23   1
  15  -1   5 9293.73 2193.78   1
  15   1   5 5566.56 1189.56   1
  15  -1   5 7948.37 1486.72   1
  15   1   5 6254.43 1566.69   1
   0  -2 -17 13972.6 2456.33   1
   0   2 -17 13410.9 2260.32   1
  11  -5 -15 1415.43 997.570   1
  14  -6   0 3630.47 1244.65   1
 -14   6   0 3602.13 1829.22   1
  -5   4  17 3393.24 1444.51   1
   5  -4 -17 5482.78 1309.55   1
   0  -5 -15 5955.96 1142.78   1
   0   5  15 2849.32 1913.63   1
   7  -7 -13 3578.63 1514.92   1
 -10   8  -1 -816.28 1145.93   1
   2   6  13 4547.45 1871.49   1
  -2  -6 -13 7319.86 1512.70   1
 -12  -1  -9 875.440 1199.08   1
   5  -8 -11 2995.02 1301.27   1
  -7  -7  -8 1747.44 1076.55   1
   2   0 -18 25905.2 4352.28   1
  18  -3  -6 1868.74 1148.80   1
   3  -8 -11 3362.69 1300.41   1
  17  -4  -9 902.990 882.880   1
  -1   0 -17 -1785.1 758.990   1
  18  -3  -7 5799.17 1507.82   1
  -3  -1 -16 2106.56 1310.09   1
  -3   1 -16 -1599.7 828.510   1
   4  -5 -16 5840.26 1430.83   1
  11  -7 -11 1374.03 1035.49   1
  16   0 -15 557.830 737.350   1
  15  -6  -4 1443.63 785.720   1
  11  -8  -6 371.760 599.820   1
  -8  -3 -12 3061.30 1214.28   1
   8  -4 -17 -1000.5 1003.44   1
  11  -1 -18 -298.95 963.950   1
  11   1 -18 -49.540 776.320   1
  -5   0 -15 3069.31 1314.03   1
   8  -5 -16 2548.68 1450.69   1
  17  -4  -3 6878.59 1427.29   1
  15   0 -16 11186.8 2084.51   1
  15  -6  -7 -1062.4 740.090   1
  10  -6 -14 8157.42 1650.65   1
  -9   1 -12 367.160 1282.59   1
  -9  -1 -12 -1399.7 1097.52   1
  -3  -7 -11 625.640 516.100   1
  -1  -7 -12 -97.410 534.430   1
  18  -3  -5 -1294.2 794.120   1
  18   3  -5 695.430 550.130   1
  18   0  -1 1974.87 601.470   1
  16  -3   2 4668.90 981.660   1
;
_shelx_hkl_checksum              14429
_shelx_shelxl_version_number     2014/7
_olex2_submission_special_instructions 'No special instructions were received'
loop_
_space_group_symop_operation_xyz
'x, y, z'
'-x, y+1/2, -z+1/2'
'-x, -y, -z'
'x, -y-1/2, z-1/2'
loop_
_atom_site_label
_atom_site_type_symbol
_atom_site_fract_x
_atom_site_fract_y
_atom_site_fract_z
_atom_site_U_iso_or_equiv
_atom_site_adp_type
_atom_site_occupancy
_atom_site_site_symmetry_order
_atom_site_calc_flag
_atom_site_refinement_flags_posn
S1 S 0.64488(10) 1.05887(19) 0.38844(9) 0.0270(4) Uani 1 1 d .
O13 O 0.2415(3) 0.8324(5) 0.4181(3) 0.0272(8) Uani 1 1 d .
N4 N 0.4662(3) 0.9440(6) 0.2985(3) 0.0257(10) Uani 1 1 d .
C1 C 0.4028(4) 0.9359(7) 0.4366(4) 0.0235(11) Uani 1 1 d .
C2 C 0.5717(4) 1.0324(7) 0.4603(4) 0.0246(11) Uani 1 1 d .
C3 C 0.4776(4) 0.9707(7) 0.3987(4) 0.0241(11) Uani 1 1 d .
C5 C 0.5466(4) 0.9848(7) 0.2841(4) 0.0240(11) Uani 1 1 d .
C6 C 0.5551(4) 0.9742(7) 0.1836(4) 0.0253(11) Uani 1 1 d .
H6A H 0.5484 1.0936 0.1558 0.030 Uiso 1 1 calc R
H6B H 0.4987 0.9051 0.1394 0.030 Uiso 1 1 calc R
C7 C 0.6497(4) 0.8945(7) 0.1794(4) 0.0243(11) Uani 1 1 d .
H7A H 0.7074 0.9572 0.2261 0.029 Uiso 1 1 calc R
H7B H 0.6544 0.7706 0.2001 0.029 Uiso 1 1 calc R
C8 C 0.6498(4) 0.9073(7) 0.0735(4) 0.0245(11) Uani 1 1 d .
H8A H 0.6394 1.0308 0.0521 0.029 Uiso 1 1 calc R
H8B H 0.5933 0.8396 0.0286 0.029 Uiso 1 1 calc R
C9 C 0.7438(4) 0.8419(7) 0.0600(4) 0.0267(11) Uani 1 1 d .
H9A H 0.8021 0.8933 0.1125 0.032 Uiso 1 1 calc R
H9B H 0.7480 0.7135 0.0678 0.032 Uiso 1 1 calc R
C10 C 0.7449(4) 0.8911(8) -0.0428(4) 0.0332(13) Uani 1 1 d .
H10A H 0.6846 0.8447 -0.0946 0.040 Uiso 1 1 calc R
H10B H 0.7431 1.0199 -0.0489 0.040 Uiso 1 1 calc R
C11 C 0.8345(4) 0.8227(10) -0.0624(5) 0.0410(15) Uani 1 1 d .
H11A H 0.8312 0.8610 -0.1285 0.061 Uiso 1 1 calc GR
H11B H 0.8352 0.6949 -0.0598 0.061 Uiso 1 1 calc GR
H11C H 0.8947 0.8682 -0.0116 0.061 Uiso 1 1 calc GR
C12 C 0.3064(4) 0.8730(7) 0.3711(4) 0.0272(11) Uani 1 1 d .
C14 C 0.1579(4) 0.7688(8) 0.3443(4) 0.0289(12) Uani 1 1 d .
C15 C 0.0738(4) 0.7091(8) 0.3584(5) 0.0333(13) Uani 1 1 d .
H15 H 0.0674 0.7103 0.4217 0.040 Uiso 1 1 calc R
C16 C -0.0005(4) 0.6475(8) 0.2729(4) 0.0311(13) Uani 1 1 d .
H16 H -0.0594 0.6040 0.2783 0.037 Uiso 1 1 calc R
C17 C 0.0088(4) 0.6477(8) 0.1796(5) 0.0361(13) Uani 1 1 d .
H17 H -0.0441 0.6056 0.1232 0.043 Uiso 1 1 calc R
C18 C 0.0936(4) 0.7079(8) 0.1672(4) 0.0337(13) Uani 1 1 d .
H18 H 0.0997 0.7068 0.1037 0.040 Uiso 1 1 calc R
C19 C 0.1706(4) 0.7712(7) 0.2530(4) 0.0288(12) Uani 1 1 d .
C20 C 0.2674(4) 0.8395(7) 0.2716(4) 0.0273(11) Uani 1 1 d .
H20 H 0.2979 0.8575 0.2242 0.033 Uiso 1 1 calc R
loop_
_atom_site_aniso_label
_atom_site_aniso_U_11
_atom_site_aniso_U_22
_atom_site_aniso_U_33
_atom_site_aniso_U_23
_atom_site_aniso_U_13
_atom_site_aniso_U_12
S1 0.0297(7) 0.0345(8) 0.0200(6) 0.0004(5) 0.0130(5) -0.0017(5)
O13 0.0275(18) 0.035(2) 0.0226(18) -0.0026(16) 0.0131(15) -0.0031(15)
N4 0.035(2) 0.023(2) 0.025(2) -0.0008(17) 0.0173(19) 0.0011(18)
C1 0.028(2) 0.025(3) 0.020(2) 0.0005(19) 0.011(2) 0.005(2)
C2 0.031(3) 0.025(3) 0.023(2) 0.005(2) 0.016(2) 0.002(2)
C3 0.027(2) 0.027(3) 0.020(2) 0.003(2) 0.010(2) 0.004(2)
C5 0.029(3) 0.026(3) 0.020(2) 0.0027(19) 0.012(2) -0.002(2)
C6 0.029(3) 0.033(3) 0.016(2) 0.000(2) 0.0123(19) -0.003(2)
C7 0.030(3) 0.027(3) 0.020(2) 0.001(2) 0.014(2) -0.003(2)
C8 0.029(3) 0.025(3) 0.021(2) -0.001(2) 0.011(2) -0.003(2)
C9 0.032(3) 0.029(3) 0.022(2) -0.001(2) 0.013(2) -0.002(2)
C10 0.041(3) 0.035(3) 0.030(3) -0.001(2) 0.021(2) 0.001(2)
C11 0.039(3) 0.054(4) 0.037(3) 0.000(3) 0.023(3) 0.002(3)
C12 0.027(3) 0.030(3) 0.029(3) 0.003(2) 0.016(2) 0.002(2)
C14 0.024(2) 0.032(3) 0.030(3) 0.005(2) 0.009(2) 0.000(2)
C15 0.032(3) 0.034(3) 0.036(3) -0.001(2) 0.015(2) -0.003(2)
C16 0.027(3) 0.032(3) 0.035(3) -0.001(2) 0.012(2) -0.009(2)
C17 0.030(3) 0.040(4) 0.037(3) -0.002(3) 0.010(2) -0.005(2)
C18 0.034(3) 0.040(4) 0.028(3) -0.003(2) 0.013(2) -0.005(2)
C19 0.030(3) 0.028(3) 0.030(3) 0.001(2) 0.013(2) 0.003(2)
C20 0.029(3) 0.026(3) 0.027(3) -0.001(2) 0.011(2) 0.002(2)
loop_
_atom_type_symbol
_atom_type_description
_atom_type_scat_dispersion_real
_atom_type_scat_dispersion_imag
_atom_type_scat_source
C C 0.0030 0.0010 'International Tables Vol C Tables 4.2.6.8 and 6.1.1.4'
H H 0.0000 0.0000 'International Tables Vol C Tables 4.2.6.8 and 6.1.1.4'
N N 0.0060 0.0030 'International Tables Vol C Tables 4.2.6.8 and 6.1.1.4'
O O 0.0110 0.0060 'International Tables Vol C Tables 4.2.6.8 and 6.1.1.4'
S S 0.1180 0.1170 'International Tables Vol C Tables 4.2.6.8 and 6.1.1.4'
loop_
_geom_angle_atom_site_label_1
_geom_angle_atom_site_label_2
_geom_angle_atom_site_label_3
_geom_angle
_geom_angle_site_symmetry_1
_geom_angle_site_symmetry_3
C2 S1 C5 89.1(3) . .
C14 O13 C12 105.8(4) . .
C5 N4 C3 110.5(4) . .
C2 C1 C12 124.0(5) 3_676 .
C3 C1 C2 115.3(5) . 3_676
C3 C1 C12 120.7(5) . .
C1 C2 S1 128.1(4) 3_676 .
C1 C2 C3 122.7(5) 3_676 .
C3 C2 S1 109.2(4) . .
N4 C3 C1 123.3(5) . .
N4 C3 C2 114.7(4) . .
C1 C3 C2 122.0(5) . .
N4 C5 S1 116.4(4) . .
N4 C5 C6 122.4(5) . .
C6 C5 S1 121.2(4) . .
C5 C6 H6A 108.1 . .
C5 C6 H6B 108.1 . .
C5 C6 C7 116.8(4) . .
H6A C6 H6B 107.3 . .
C7 C6 H6A 108.1 . .
C7 C6 H6B 108.1 . .
C6 C7 H7A 109.7 . .
C6 C7 H7B 109.7 . .
H7A C7 H7B 108.2 . .
C8 C7 C6 110.0(4) . .
C8 C7 H7A 109.7 . .
C8 C7 H7B 109.7 . .
C7 C8 H8A 108.4 . .
C7 C8 H8B 108.4 . .
C7 C8 C9 115.4(4) . .
H8A C8 H8B 107.5 . .
C9 C8 H8A 108.4 . .
C9 C8 H8B 108.4 . .
C8 C9 H9A 109.4 . .
C8 C9 H9B 109.4 . .
H9A C9 H9B 108.0 . .
C10 C9 C8 111.3(4) . .
C10 C9 H9A 109.4 . .
C10 C9 H9B 109.4 . .
C9 C10 H10A 108.8 . .
C9 C10 H10B 108.8 . .
H10A C10 H10B 107.7 . .
C11 C10 C9 113.8(5) . .
C11 C10 H10A 108.8 . .
C11 C10 H10B 108.8 . .
C10 C11 H11A 109.5 . .
C10 C11 H11B 109.5 . .
C10 C11 H11C 109.5 . .
H11A C11 H11B 109.5 . .
H11A C11 H11C 109.5 . .
H11B C11 H11C 109.5 . .
O13 C12 C1 115.3(4) . .
C20 C12 O13 111.9(5) . .
C20 C12 C1 132.7(5) . .
O13 C14 C15 125.6(5) . .
O13 C14 C19 109.8(5) . .
C15 C14 C19 124.6(5) . .
C14 C15 H15 122.4 . .
C14 C15 C16 115.3(5) . .
C16 C15 H15 122.4 . .
C15 C16 H16 118.9 . .
C15 C16 C17 122.2(5) . .
C17 C16 H16 118.9 . .
C16 C17 H17 119.2 . .
C18 C17 C16 121.6(5) . .
C18 C17 H17 119.2 . .
C17 C18 H18 121.2 . .
C17 C18 C19 117.5(5) . .
C19 C18 H18 121.2 . .
C14 C19 C18 118.8(5) . .
C14 C19 C20 106.7(5) . .
C18 C19 C20 134.5(5) . .
C12 C20 C19 105.8(5) . .
C12 C20 H20 127.1 . .
C19 C20 H20 127.1 . .
loop_
_geom_bond_atom_site_label_1
_geom_bond_atom_site_label_2
_geom_bond_distance
_geom_bond_site_symmetry_2
S1 C2 1.746(5) .
S1 C5 1.752(5) .
O13 C12 1.384(6) .
O13 C14 1.382(6) .
N4 C3 1.406(7) .
N4 C5 1.300(7) .
C1 C2 1.415(7) 3_676
C1 C3 1.411(7) .
C1 C12 1.460(7) .
C2 C1 1.414(7) 3_676
C2 C3 1.416(7) .
C5 C6 1.497(7) .
C6 H6A 0.9900 .
C6 H6B 0.9900 .
C6 C7 1.529(7) .
C7 H7A 0.9900 .
C7 H7B 0.9900 .
C7 C8 1.528(7) .
C8 H8A 0.9900 .
C8 H8B 0.9900 .
C8 C9 1.536(7) .
C9 H9A 0.9900 .
C9 H9B 0.9900 .
C9 C10 1.532(7) .
C10 H10A 0.9900 .
C10 H10B 0.9900 .
C10 C11 1.527(8) .
C11 H11A 0.9800 .
C11 H11B 0.9800 .
C11 H11C 0.9800 .
C12 C20 1.360(7) .
C14 C15 1.390(8) .
C14 C19 1.393(8) .
C15 H15 0.9500 .
C15 C16 1.393(8) .
C16 H16 0.9500 .
C16 C17 1.399(8) .
C17 H17 0.9500 .
C17 C18 1.389(8) .
C18 H18 0.9500 .
C18 C19 1.419(8) .
C19 C20 1.436(8) .
C20 H20 0.9500 .
loop_
_geom_hbond_atom_site_label_D
_geom_hbond_atom_site_label_H
_geom_hbond_atom_site_label_A
_geom_hbond_distance_DH
_geom_hbond_distance_HA
_geom_hbond_distance_DA
_geom_hbond_angle_DHA
C20 H20 N4 0.95 2.39 2.893(8) 113.1
loop_
_geom_torsion_atom_site_label_1
_geom_torsion_atom_site_label_2
_geom_torsion_atom_site_label_3
_geom_torsion_atom_site_label_4
_geom_torsion
_geom_torsion_site_symmetry_1
_geom_torsion_site_symmetry_4
S1 C2 C3 N4 0.8(6) . .
S1 C2 C3 C1 179.5(4) . .
S1 C5 C6 C7 45.1(7) . .
O13 C12 C20 C19 -0.4(6) . .
O13 C14 C15 C16 -178.7(5) . .
O13 C14 C19 C18 178.9(5) . .
O13 C14 C19 C20 0.2(6) . .
N4 C5 C6 C7 -136.5(5) . .
C1 C2 C3 N4 -179.0(5) 3_676 .
C1 C2 C3 C1 -0.3(9) 3_676 .
C1 C12 C20 C19 176.9(6) . .
C2 S1 C5 N4 0.3(5) . .
C2 S1 C5 C6 178.7(5) . .
C2 C1 C3 N4 178.9(5) 3_676 .
C2 C1 C3 C2 0.3(8) 3_676 .
C2 C1 C12 O13 -4.8(8) 3_676 .
C2 C1 C12 C20 178.0(6) 3_676 .
C3 N4 C5 S1 0.2(6) . .
C3 N4 C5 C6 -178.3(5) . .
C3 C1 C12 O13 175.8(5) . .
C3 C1 C12 C20 -1.4(9) . .
C5 S1 C2 C1 179.2(5) . 3_676
C5 S1 C2 C3 -0.6(4) . .
C5 N4 C3 C1 -179.3(5) . .
C5 N4 C3 C2 -0.6(7) . .
C5 C6 C7 C8 -175.4(4) . .
C6 C7 C8 C9 176.4(4) . .
C7 C8 C9 C10 -169.4(5) . .
C8 C9 C10 C11 -177.5(5) . .
C12 O13 C14 C15 178.9(6) . .
C12 O13 C14 C19 -0.4(6) . .
C12 C1 C3 N4 -1.6(8) . .
C12 C1 C3 C2 179.7(5) . .
C14 O13 C12 C1 -177.3(5) . .
C14 O13 C12 C20 0.5(6) . .
C14 C15 C16 C17 -0.7(9) . .
C14 C19 C20 C12 0.1(6) . .
C15 C14 C19 C18 -0.4(9) . .
C15 C14 C19 C20 -179.1(5) . .
C15 C16 C17 C18 0.7(10) . .
C16 C17 C18 C19 -0.5(9) . .
C17 C18 C19 C14 0.4(9) . .
C17 C18 C19 C20 178.7(6) . .
C18 C19 C20 C12 -178.3(6) . .
C19 C14 C15 C16 0.5(9) . .
